MODEL 1
REMARK VINA RESULT:    -7.885      0.000      0.000
REMARK INTER + INTRA:         -11.881
REMARK INTER:                 -11.112
REMARK INTRA:                  -0.769
REMARK UNBOUND:                -0.769
REMARK  Name = 
REMARK  8 active torsions:
REMARK  status: ('A' for Active; 'I' for Inactive)
REMARK    1  A    between atoms: C_1  and  C_2
REMARK    2  A    between atoms: C_7  and  N_8
REMARK    3  A    between atoms: N_8  and  C_9
REMARK    4  A    between atoms: C_9  and  C_10
REMARK    5  A    between atoms: C_10  and  C_11
REMARK    6  A    between atoms: C_14  and  C_15
REMARK    7  A    between atoms: C_20  and  O_21
REMARK    8  A    between atoms: O_21  and  C_22
REMARK                            x       y       z     vdW  Elec       q    Type
REMARK                         _______ _______ _______ _____ _____    ______ ____
ROOT
ATOM      1  N   UNL     1      44.698   4.222  13.153  0.00  0.00    +0.000 N 
ATOM      2  H   UNL     1      44.708   3.884  14.115  0.00  0.00    +0.000 HD
ENDROOT
BRANCH   1   9
ATOM      3  C   UNL     1      48.920   7.037  13.571  0.00  0.00    +0.000 C 
ATOM      4  C   UNL     1      47.505   6.803  13.116  0.00  0.00    +0.000 A 
ATOM      5  C   UNL     1      46.767   7.854  12.532  0.00  0.00    +0.000 A 
ATOM      6 CL   UNL     1      47.442   9.419  12.219  0.00  0.00    +0.000 Cl
ATOM      7  C   UNL     1      45.429   7.689  12.187  0.00  0.00    +0.000 A 
ATOM      8  C   UNL     1      44.796   6.477  12.426  0.00  0.00    +0.000 A 
ATOM      9  C   UNL     1      45.469   5.390  13.016  0.00  0.00    +0.000 A 
ATOM     10  C   UNL     1      46.855   5.552  13.314  0.00  0.00    +0.000 A 
BRANCH  10  11
ATOM     11  O   UNL     1      47.476   4.494  13.955  0.00  0.00    +0.000 OA
BRANCH  11  12
ATOM     12  C   UNL     1      47.300   4.258  15.373  0.00  0.00    +0.000 C 
ATOM     13  C   UNL     1      48.107   5.048  16.419  0.00  0.00    +0.000 C 
ATOM     14  N   UNL     1      48.692   3.809  16.947  0.00  0.00    +0.000 NA
ATOM     15  C   UNL     1      48.017   3.007  15.924  0.00  0.00    +0.000 C 
ATOM     16  H   UNL     1      48.416   3.583  17.902  0.00  0.00    +0.000 HD
ENDBRANCH  11  12
ENDBRANCH  10  11
ENDBRANCH   1   9
BRANCH   1  17
ATOM     17  C   UNL     1      44.746   3.143  12.172  0.00  0.00    +0.000 C 
BRANCH  17  18
ATOM     18  C   UNL     1      43.993   3.530  10.892  0.00  0.00    +0.000 C 
BRANCH  18  19
ATOM     19  C   UNL     1      44.840   3.308   9.658  0.00  0.00    +0.000 A 
ATOM     20  C   UNL     1      45.170   2.011   9.245  0.00  0.00    +0.000 A 
ATOM     21  C   UNL     1      45.977   1.810   8.121  0.00  0.00    +0.000 A 
ATOM     22  C   UNL     1      46.459   2.901   7.391  0.00  0.00    +0.000 A 
ATOM     23  C   UNL     1      46.151   4.200   7.811  0.00  0.00    +0.000 A 
ATOM     24  C   UNL     1      45.347   4.399   8.939  0.00  0.00    +0.000 A 
BRANCH  22  25
ATOM     25  C   UNL     1      47.305   2.628   6.196  0.00  0.00    +0.000 C 
ATOM     26  N   UNL     1      48.660   2.602   6.380  0.00  0.00    +0.000 N 
ATOM     27  O   UNL     1      46.818   2.464   5.084  0.00  0.00    +0.000 OA
ATOM     28  H   UNL     1      49.106   2.974   7.206  0.00  0.00    +0.000 HD
ATOM     29  H   UNL     1      49.221   2.527   5.539  0.00  0.00    +0.000 HD
ENDBRANCH  22  25
ENDBRANCH  18  19
ENDBRANCH  17  18
ENDBRANCH   1  17
TORSDOF 7
ENDMDL
MODEL 2
REMARK VINA RESULT:    -7.880      1.496      2.080
REMARK INTER + INTRA:         -11.874
REMARK INTER:                 -10.767
REMARK INTRA:                  -1.107
REMARK UNBOUND:                -0.769
REMARK  Name = 
REMARK  8 active torsions:
REMARK  status: ('A' for Active; 'I' for Inactive)
REMARK    1  A    between atoms: C_1  and  C_2
REMARK    2  A    between atoms: C_7  and  N_8
REMARK    3  A    between atoms: N_8  and  C_9
REMARK    4  A    between atoms: C_9  and  C_10
REMARK    5  A    between atoms: C_10  and  C_11
REMARK    6  A    between atoms: C_14  and  C_15
REMARK    7  A    between atoms: C_20  and  O_21
REMARK    8  A    between atoms: O_21  and  C_22
REMARK                            x       y       z     vdW  Elec       q    Type
REMARK                         _______ _______ _______ _____ _____    ______ ____
ROOT
ATOM      1  N   UNL     1      43.878   6.467  12.116  0.00  0.00    +0.000 N 
ATOM      2  H   UNL     1      43.866   5.821  12.904  0.00  0.00    +0.000 HD
ENDROOT
BRANCH   1   9
ATOM      3  C   UNL     1      48.892   7.346  12.230  0.00  0.00    +0.000 C 
ATOM      4  C   UNL     1      47.458   7.783  12.113  0.00  0.00    +0.000 A 
ATOM      5  C   UNL     1      47.137   9.158  12.084  0.00  0.00    +0.000 A 
ATOM      6 CL   UNL     1      48.340  10.405  12.084  0.00  0.00    +0.000 Cl
ATOM      7  C   UNL     1      45.814   9.588  12.068  0.00  0.00    +0.000 A 
ATOM      8  C   UNL     1      44.783   8.659  12.093  0.00  0.00    +0.000 A 
ATOM      9  C   UNL     1      45.030   7.273  12.135  0.00  0.00    +0.000 A 
ATOM     10  C   UNL     1      46.390   6.842  12.094  0.00  0.00    +0.000 A 
BRANCH  10  11
ATOM     11  O   UNL     1      46.608   5.480  12.204  0.00  0.00    +0.000 OA
BRANCH  11  12
ATOM     12  C   UNL     1      46.288   4.757  13.418  0.00  0.00    +0.000 C 
ATOM     13  C   UNL     1      47.264   4.725  14.609  0.00  0.00    +0.000 C 
ATOM     14  N   UNL     1      47.354   3.262  14.533  0.00  0.00    +0.000 NA
ATOM     15  C   UNL     1      46.496   3.229  13.346  0.00  0.00    +0.000 C 
ATOM     16  H   UNL     1      46.968   2.771  15.340  0.00  0.00    +0.000 HD
ENDBRANCH  11  12
ENDBRANCH  10  11
ENDBRANCH   1   9
BRANCH   1  17
ATOM     17  C   UNL     1      43.373   5.868  10.885  0.00  0.00    +0.000 C 
BRANCH  17  18
ATOM     18  C   UNL     1      43.501   4.339  10.925  0.00  0.00    +0.000 C 
BRANCH  18  19
ATOM     19  C   UNL     1      44.476   3.834   9.884  0.00  0.00    +0.000 A 
ATOM     20  C   UNL     1      45.180   4.732   9.072  0.00  0.00    +0.000 A 
ATOM     21  C   UNL     1      46.059   4.261   8.092  0.00  0.00    +0.000 A 
ATOM     22  C   UNL     1      46.251   2.887   7.915  0.00  0.00    +0.000 A 
ATOM     23  C   UNL     1      45.535   1.984   8.708  0.00  0.00    +0.000 A 
ATOM     24  C   UNL     1      44.653   2.457   9.686  0.00  0.00    +0.000 A 
BRANCH  22  25
ATOM     25  C   UNL     1      47.208   2.443   6.863  0.00  0.00    +0.000 C 
ATOM     26  N   UNL     1      47.237   3.160   5.698  0.00  0.00    +0.000 N 
ATOM     27  O   UNL     1      47.920   1.458   7.012  0.00  0.00    +0.000 OA
ATOM     28  H   UNL     1      46.506   3.807   5.438  0.00  0.00    +0.000 HD
ATOM     29  H   UNL     1      47.809   2.776   4.955  0.00  0.00    +0.000 HD
ENDBRANCH  22  25
ENDBRANCH  18  19
ENDBRANCH  17  18
ENDBRANCH   1  17
TORSDOF 7
ENDMDL
MODEL 3
REMARK VINA RESULT:    -7.155      2.330      4.022
REMARK INTER + INTRA:         -10.852
REMARK INTER:                 -10.080
REMARK INTRA:                  -0.773
REMARK UNBOUND:                -0.769
REMARK  Name = 
REMARK  8 active torsions:
REMARK  status: ('A' for Active; 'I' for Inactive)
REMARK    1  A    between atoms: C_1  and  C_2
REMARK    2  A    between atoms: C_7  and  N_8
REMARK    3  A    between atoms: N_8  and  C_9
REMARK    4  A    between atoms: C_9  and  C_10
REMARK    5  A    between atoms: C_10  and  C_11
REMARK    6  A    between atoms: C_14  and  C_15
REMARK    7  A    between atoms: C_20  and  O_21
REMARK    8  A    between atoms: O_21  and  C_22
REMARK                            x       y       z     vdW  Elec       q    Type
REMARK                         _______ _______ _______ _____ _____    ______ ____
ROOT
ATOM      1  N   UNL     1      44.443   5.770  12.275  0.00  0.00    +0.000 N 
ATOM      2  H   UNL     1      43.723   6.058  12.936  0.00  0.00    +0.000 HD
ENDROOT
BRANCH   1   9
ATOM      3  C   UNL     1      48.353   9.031  12.332  0.00  0.00    +0.000 C 
ATOM      4  C   UNL     1      47.624   7.804  12.810  0.00  0.00    +0.000 A 
ATOM      5  C   UNL     1      48.248   6.917  13.713  0.00  0.00    +0.000 A 
ATOM      6 CL   UNL     1      49.814   7.212  14.392  0.00  0.00    +0.000 Cl
ATOM      7  C   UNL     1      47.631   5.731  14.098  0.00  0.00    +0.000 A 
ATOM      8  C   UNL     1      46.385   5.399  13.583  0.00  0.00    +0.000 A 
ATOM      9  C   UNL     1      45.711   6.231  12.669  0.00  0.00    +0.000 A 
ATOM     10  C   UNL     1      46.327   7.471  12.325  0.00  0.00    +0.000 A 
BRANCH  10  11
ATOM     11  O   UNL     1      45.678   8.239  11.374  0.00  0.00    +0.000 OA
BRANCH  11  12
ATOM     12  C   UNL     1      44.713   9.253  11.748  0.00  0.00    +0.000 C 
ATOM     13  C   UNL     1      43.566   9.649  10.801  0.00  0.00    +0.000 C 
ATOM     14  N   UNL     1      44.038  11.038  10.763  0.00  0.00    +0.000 NA
ATOM     15  C   UNL     1      45.199  10.710  11.594  0.00  0.00    +0.000 C 
ATOM     16  H   UNL     1      43.402  11.715  11.184  0.00  0.00    +0.000 HD
ENDBRANCH  11  12
ENDBRANCH  10  11
ENDBRANCH   1   9
BRANCH   1  17
ATOM     17  C   UNL     1      44.235   4.418  11.766  0.00  0.00    +0.000 C 
BRANCH  17  18
ATOM     18  C   UNL     1      43.735   4.448  10.315  0.00  0.00    +0.000 C 
BRANCH  18  19
ATOM     19  C   UNL     1      44.703   3.762   9.377  0.00  0.00    +0.000 A 
ATOM     20  C   UNL     1      44.820   2.366   9.370  0.00  0.00    +0.000 A 
ATOM     21  C   UNL     1      45.737   1.736   8.523  0.00  0.00    +0.000 A 
ATOM     22  C   UNL     1      46.544   2.492   7.666  0.00  0.00    +0.000 A 
ATOM     23  C   UNL     1      46.447   3.888   7.683  0.00  0.00    +0.000 A 
ATOM     24  C   UNL     1      45.532   4.516   8.535  0.00  0.00    +0.000 A 
BRANCH  22  25
ATOM     25  C   UNL     1      47.495   1.767   6.777  0.00  0.00    +0.000 C 
ATOM     26  N   UNL     1      48.612   2.444   6.369  0.00  0.00    +0.000 N 
ATOM     27  O   UNL     1      47.277   0.625   6.394  0.00  0.00    +0.000 OA
ATOM     28  H   UNL     1      48.702   3.446   6.450  0.00  0.00    +0.000 HD
ATOM     29  H   UNL     1      49.185   1.977   5.677  0.00  0.00    +0.000 HD
ENDBRANCH  22  25
ENDBRANCH  18  19
ENDBRANCH  17  18
ENDBRANCH   1  17
TORSDOF 7
ENDMDL
MODEL 4
REMARK VINA RESULT:    -7.120      2.106      3.386
REMARK INTER + INTRA:         -10.803
REMARK INTER:                 -10.186
REMARK INTRA:                  -0.617
REMARK UNBOUND:                -0.769
REMARK  Name = 
REMARK  8 active torsions:
REMARK  status: ('A' for Active; 'I' for Inactive)
REMARK    1  A    between atoms: C_1  and  C_2
REMARK    2  A    between atoms: C_7  and  N_8
REMARK    3  A    between atoms: N_8  and  C_9
REMARK    4  A    between atoms: C_9  and  C_10
REMARK    5  A    between atoms: C_10  and  C_11
REMARK    6  A    between atoms: C_14  and  C_15
REMARK    7  A    between atoms: C_20  and  O_21
REMARK    8  A    between atoms: O_21  and  C_22
REMARK                            x       y       z     vdW  Elec       q    Type
REMARK                         _______ _______ _______ _____ _____    ______ ____
ROOT
ATOM      1  N   UNL     1      45.739   4.813  11.758  0.00  0.00    +0.000 N 
ATOM      2  H   UNL     1      45.730   5.632  11.151  0.00  0.00    +0.000 HD
ENDROOT
BRANCH   1   9
ATOM      3  C   UNL     1      49.033   7.381  14.671  0.00  0.00    +0.000 C 
ATOM      4  C   UNL     1      48.044   6.274  14.422  0.00  0.00    +0.000 A 
ATOM      5  C   UNL     1      47.856   5.263  15.388  0.00  0.00    +0.000 A 
ATOM      6 CL   UNL     1      48.653   5.270  16.927  0.00  0.00    +0.000 Cl
ATOM      7  C   UNL     1      47.016   4.181  15.143  0.00  0.00    +0.000 A 
ATOM      8  C   UNL     1      46.356   4.078  13.926  0.00  0.00    +0.000 A 
ATOM      9  C   UNL     1      46.507   5.044  12.913  0.00  0.00    +0.000 A 
ATOM     10  C   UNL     1      47.326   6.178  13.197  0.00  0.00    +0.000 A 
BRANCH  10  11
ATOM     11  O   UNL     1      47.513   7.077  12.162  0.00  0.00    +0.000 OA
BRANCH  11  12
ATOM     12  C   UNL     1      46.720   8.285  12.055  0.00  0.00    +0.000 C 
ATOM     13  C   UNL     1      45.944   8.839  13.263  0.00  0.00    +0.000 C 
ATOM     14  N   UNL     1      44.672   8.718  12.539  0.00  0.00    +0.000 NA
ATOM     15  C   UNL     1      45.340   8.107  11.387  0.00  0.00    +0.000 C 
ATOM     16  H   UNL     1      44.215   9.606  12.334  0.00  0.00    +0.000 HD
ENDBRANCH  11  12
ENDBRANCH  10  11
ENDBRANCH   1   9
BRANCH   1  17
ATOM     17  C   UNL     1      44.450   4.131  11.809  0.00  0.00    +0.000 C 
BRANCH  17  18
ATOM     18  C   UNL     1      43.808   4.064  10.417  0.00  0.00    +0.000 C 
BRANCH  18  19
ATOM     19  C   UNL     1      44.764   3.499   9.389  0.00  0.00    +0.000 A 
ATOM     20  C   UNL     1      45.033   2.125   9.346  0.00  0.00    +0.000 A 
ATOM     21  C   UNL     1      45.939   1.610   8.414  0.00  0.00    +0.000 A 
ATOM     22  C   UNL     1      46.583   2.460   7.508  0.00  0.00    +0.000 A 
ATOM     23  C   UNL     1      46.335   3.836   7.560  0.00  0.00    +0.000 A 
ATOM     24  C   UNL     1      45.431   4.349   8.496  0.00  0.00    +0.000 A 
BRANCH  22  25
ATOM     25  C   UNL     1      47.529   1.855   6.530  0.00  0.00    +0.000 C 
ATOM     26  N   UNL     1      48.711   2.510   6.313  0.00  0.00    +0.000 N 
ATOM     27  O   UNL     1      47.256   0.832   5.916  0.00  0.00    +0.000 OA
ATOM     28  H   UNL     1      48.865   3.466   6.599  0.00  0.00    +0.000 HD
ATOM     29  H   UNL     1      49.289   2.146   5.565  0.00  0.00    +0.000 HD
ENDBRANCH  22  25
ENDBRANCH  18  19
ENDBRANCH  17  18
ENDBRANCH   1  17
TORSDOF 7
ENDMDL
MODEL 5
REMARK VINA RESULT:    -6.805      2.472      3.512
REMARK INTER + INTRA:         -10.358
REMARK INTER:                  -9.643
REMARK INTRA:                  -0.715
REMARK UNBOUND:                -0.769
REMARK  Name = 
REMARK  8 active torsions:
REMARK  status: ('A' for Active; 'I' for Inactive)
REMARK    1  A    between atoms: C_1  and  C_2
REMARK    2  A    between atoms: C_7  and  N_8
REMARK    3  A    between atoms: N_8  and  C_9
REMARK    4  A    between atoms: C_9  and  C_10
REMARK    5  A    between atoms: C_10  and  C_11
REMARK    6  A    between atoms: C_14  and  C_15
REMARK    7  A    between atoms: C_20  and  O_21
REMARK    8  A    between atoms: O_21  and  C_22
REMARK                            x       y       z     vdW  Elec       q    Type
REMARK                         _______ _______ _______ _____ _____    ______ ____
ROOT
ATOM      1  N   UNL     1      45.873   5.413  11.983  0.00  0.00    +0.000 N 
ATOM      2  H   UNL     1      45.648   6.369  11.713  0.00  0.00    +0.000 HD
ENDROOT
BRANCH   1   9
ATOM      3  C   UNL     1      48.953   7.369  15.535  0.00  0.00    +0.000 C 
ATOM      4  C   UNL     1      48.076   6.283  14.972  0.00  0.00    +0.000 A 
ATOM      5  C   UNL     1      48.012   5.024  15.607  0.00  0.00    +0.000 A 
ATOM      6 CL   UNL     1      48.839   4.674  17.089  0.00  0.00    +0.000 Cl
ATOM      7  C   UNL     1      47.282   3.976  15.056  0.00  0.00    +0.000 A 
ATOM      8  C   UNL     1      46.608   4.158  13.855  0.00  0.00    +0.000 A 
ATOM      9  C   UNL     1      46.639   5.383  13.162  0.00  0.00    +0.000 A 
ATOM     10  C   UNL     1      47.344   6.467  13.765  0.00  0.00    +0.000 A 
BRANCH  10  11
ATOM     11  O   UNL     1      47.416   7.638  13.032  0.00  0.00    +0.000 OA
BRANCH  11  12
ATOM     12  C   UNL     1      48.320   7.776  11.908  0.00  0.00    +0.000 C 
ATOM     13  C   UNL     1      49.825   7.488  12.055  0.00  0.00    +0.000 C 
ATOM     14  N   UNL     1      50.157   8.861  11.656  0.00  0.00    +0.000 NA
ATOM     15  C   UNL     1      48.740   9.224  11.578  0.00  0.00    +0.000 C 
ATOM     16  H   UNL     1      50.656   8.935  10.770  0.00  0.00    +0.000 HD
ENDBRANCH  11  12
ENDBRANCH  10  11
ENDBRANCH   1   9
BRANCH   1  17
ATOM     17  C   UNL     1      44.770   4.485  11.753  0.00  0.00    +0.000 C 
BRANCH  17  18
ATOM     18  C   UNL     1      44.210   4.638  10.332  0.00  0.00    +0.000 C 
BRANCH  18  19
ATOM     19  C   UNL     1      45.037   3.873   9.322  0.00  0.00    +0.000 A 
ATOM     20  C   UNL     1      45.099   2.475   9.365  0.00  0.00    +0.000 A 
ATOM     21  C   UNL     1      45.887   1.772   8.449  0.00  0.00    +0.000 A 
ATOM     22  C   UNL     1      46.618   2.457   7.472  0.00  0.00    +0.000 A 
ATOM     23  C   UNL     1      46.578   3.855   7.437  0.00  0.00    +0.000 A 
ATOM     24  C   UNL     1      45.792   4.556   8.358  0.00  0.00    +0.000 A 
BRANCH  22  25
ATOM     25  C   UNL     1      47.432   1.656   6.515  0.00  0.00    +0.000 C 
ATOM     26  N   UNL     1      48.497   2.279   5.924  0.00  0.00    +0.000 N 
ATOM     27  O   UNL     1      47.146   0.499   6.236  0.00  0.00    +0.000 OA
ATOM     28  H   UNL     1      48.614   3.282   5.930  0.00  0.00    +0.000 HD
ATOM     29  H   UNL     1      48.967   1.756   5.194  0.00  0.00    +0.000 HD
ENDBRANCH  22  25
ENDBRANCH  18  19
ENDBRANCH  17  18
ENDBRANCH   1  17
TORSDOF 7
ENDMDL
MODEL 6
REMARK VINA RESULT:    -6.580      1.689      2.668
REMARK INTER + INTRA:         -10.042
REMARK INTER:                  -9.100
REMARK INTRA:                  -0.941
REMARK UNBOUND:                -0.769
REMARK  Name = 
REMARK  8 active torsions:
REMARK  status: ('A' for Active; 'I' for Inactive)
REMARK    1  A    between atoms: C_1  and  C_2
REMARK    2  A    between atoms: C_7  and  N_8
REMARK    3  A    between atoms: N_8  and  C_9
REMARK    4  A    between atoms: C_9  and  C_10
REMARK    5  A    between atoms: C_10  and  C_11
REMARK    6  A    between atoms: C_14  and  C_15
REMARK    7  A    between atoms: C_20  and  O_21
REMARK    8  A    between atoms: O_21  and  C_22
REMARK                            x       y       z     vdW  Elec       q    Type
REMARK                         _______ _______ _______ _____ _____    ______ ____
ROOT
ATOM      1  N   UNL     1      46.128   6.095  13.658  0.00  0.00    +0.000 N 
ATOM      2  H   UNL     1      46.154   5.079  13.723  0.00  0.00    +0.000 HD
ENDROOT
BRANCH   1   9
ATOM      3  C   UNL     1      50.664   7.501  15.496  0.00  0.00    +0.000 C 
ATOM      4  C   UNL     1      49.682   7.276  14.378  0.00  0.00    +0.000 A 
ATOM      5  C   UNL     1      49.996   7.692  13.067  0.00  0.00    +0.000 A 
ATOM      6 CL   UNL     1      51.525   8.387  12.639  0.00  0.00    +0.000 Cl
ATOM      7  C   UNL     1      49.069   7.578  12.035  0.00  0.00    +0.000 A 
ATOM      8  C   UNL     1      47.808   7.058  12.290  0.00  0.00    +0.000 A 
ATOM      9  C   UNL     1      47.424   6.634  13.577  0.00  0.00    +0.000 A 
ATOM     10  C   UNL     1      48.400   6.703  14.615  0.00  0.00    +0.000 A 
BRANCH  10  11
ATOM     11  O   UNL     1      47.978   6.345  15.883  0.00  0.00    +0.000 OA
BRANCH  11  12
ATOM     12  C   UNL     1      48.183   5.008  16.402  0.00  0.00    +0.000 C 
ATOM     13  C   UNL     1      47.303   3.831  15.943  0.00  0.00    +0.000 C 
ATOM     14  N   UNL     1      46.850   3.594  17.319  0.00  0.00    +0.000 NA
ATOM     15  C   UNL     1      47.600   4.754  17.808  0.00  0.00    +0.000 C 
ATOM     16  H   UNL     1      47.151   2.705  17.717  0.00  0.00    +0.000 HD
ENDBRANCH  11  12
ENDBRANCH  10  11
ENDBRANCH   1   9
BRANCH   1  17
ATOM     17  C   UNL     1      45.033   6.583  12.825  0.00  0.00    +0.000 C 
BRANCH  17  18
ATOM     18  C   UNL     1      44.160   5.421  12.330  0.00  0.00    +0.000 C 
BRANCH  18  19
ATOM     19  C   UNL     1      44.718   4.802  11.069  0.00  0.00    +0.000 A 
ATOM     20  C   UNL     1      45.355   5.596  10.107  0.00  0.00    +0.000 A 
ATOM     21  C   UNL     1      45.844   5.025   8.928  0.00  0.00    +0.000 A 
ATOM     22  C   UNL     1      45.709   3.651   8.698  0.00  0.00    +0.000 A 
ATOM     23  C   UNL     1      45.054   2.856   9.644  0.00  0.00    +0.000 A 
ATOM     24  C   UNL     1      44.562   3.431  10.821  0.00  0.00    +0.000 A 
BRANCH  22  25
ATOM     25  C   UNL     1      46.259   3.095   7.430  0.00  0.00    +0.000 C 
ATOM     26  N   UNL     1      46.617   1.775   7.427  0.00  0.00    +0.000 N 
ATOM     27  O   UNL     1      46.420   3.792   6.436  0.00  0.00    +0.000 OA
ATOM     28  H   UNL     1      46.738   1.241   8.276  0.00  0.00    +0.000 HD
ATOM     29  H   UNL     1      47.092   1.445   6.595  0.00  0.00    +0.000 HD
ENDBRANCH  22  25
ENDBRANCH  18  19
ENDBRANCH  17  18
ENDBRANCH   1  17
TORSDOF 7
ENDMDL
MODEL 7
REMARK VINA RESULT:    -6.473      4.082      5.714
REMARK INTER + INTRA:          -9.890
REMARK INTER:                  -9.029
REMARK INTRA:                  -0.862
REMARK UNBOUND:                -0.769
REMARK  Name = 
REMARK  8 active torsions:
REMARK  status: ('A' for Active; 'I' for Inactive)
REMARK    1  A    between atoms: C_1  and  C_2
REMARK    2  A    between atoms: C_7  and  N_8
REMARK    3  A    between atoms: N_8  and  C_9
REMARK    4  A    between atoms: C_9  and  C_10
REMARK    5  A    between atoms: C_10  and  C_11
REMARK    6  A    between atoms: C_14  and  C_15
REMARK    7  A    between atoms: C_20  and  O_21
REMARK    8  A    between atoms: O_21  and  C_22
REMARK                            x       y       z     vdW  Elec       q    Type
REMARK                         _______ _______ _______ _____ _____    ______ ____
ROOT
ATOM      1  N   UNL     1      49.276   7.045  15.222  0.00  0.00    +0.000 N 
ATOM      2  H   UNL     1      50.286   7.155  15.140  0.00  0.00    +0.000 HD
ENDROOT
BRANCH   1   9
ATOM      3  C   UNL     1      48.414   5.670  20.049  0.00  0.00    +0.000 C 
ATOM      4  C   UNL     1      48.467   6.676  18.931  0.00  0.00    +0.000 A 
ATOM      5  C   UNL     1      47.981   7.986  19.134  0.00  0.00    +0.000 A 
ATOM      6 CL   UNL     1      47.392   8.545  20.664  0.00  0.00    +0.000 Cl
ATOM      7  C   UNL     1      47.936   8.906  18.091  0.00  0.00    +0.000 A 
ATOM      8  C   UNL     1      48.363   8.537  16.822  0.00  0.00    +0.000 A 
ATOM      9  C   UNL     1      48.847   7.244  16.547  0.00  0.00    +0.000 A 
ATOM     10  C   UNL     1      48.943   6.327  17.636  0.00  0.00    +0.000 A 
BRANCH  10  11
ATOM     11  O   UNL     1      49.357   5.044  17.325  0.00  0.00    +0.000 OA
BRANCH  11  12
ATOM     12  C   UNL     1      48.441   4.060  16.787  0.00  0.00    +0.000 C 
ATOM     13  C   UNL     1      46.916   4.245  16.898  0.00  0.00    +0.000 C 
ATOM     14  N   UNL     1      46.789   2.995  17.657  0.00  0.00    +0.000 NA
ATOM     15  C   UNL     1      48.241   2.802  17.661  0.00  0.00    +0.000 C 
ATOM     16  H   UNL     1      46.272   2.259  17.178  0.00  0.00    +0.000 HD
ENDBRANCH  11  12
ENDBRANCH  10  11
ENDBRANCH   1   9
BRANCH   1  17
ATOM     17  C   UNL     1      48.551   7.598  14.083  0.00  0.00    +0.000 C 
BRANCH  17  18
ATOM     18  C   UNL     1      48.521   6.603  12.915  0.00  0.00    +0.000 C 
BRANCH  18  19
ATOM     19  C   UNL     1      47.108   6.175  12.584  0.00  0.00    +0.000 A 
ATOM     20  C   UNL     1      46.508   6.566  11.381  0.00  0.00    +0.000 A 
ATOM     21  C   UNL     1      45.192   6.193  11.091  0.00  0.00    +0.000 A 
ATOM     22  C   UNL     1      44.461   5.417  11.997  0.00  0.00    +0.000 A 
ATOM     23  C   UNL     1      45.047   5.041  13.210  0.00  0.00    +0.000 A 
ATOM     24  C   UNL     1      46.362   5.420  13.500  0.00  0.00    +0.000 A 
BRANCH  22  25
ATOM     25  C   UNL     1      43.067   5.039  11.631  0.00  0.00    +0.000 C 
ATOM     26  N   UNL     1      42.109   6.011  11.724  0.00  0.00    +0.000 N 
ATOM     27  O   UNL     1      42.775   3.900  11.292  0.00  0.00    +0.000 OA
ATOM     28  H   UNL     1      42.254   6.873  12.230  0.00  0.00    +0.000 HD
ATOM     29  H   UNL     1      41.153   5.707  11.581  0.00  0.00    +0.000 HD
ENDBRANCH  22  25
ENDBRANCH  18  19
ENDBRANCH  17  18
ENDBRANCH   1  17
TORSDOF 7
ENDMDL
MODEL 8
REMARK VINA RESULT:    -6.360      3.372      5.140
REMARK INTER + INTRA:          -9.732
REMARK INTER:                  -8.954
REMARK INTRA:                  -0.778
REMARK UNBOUND:                -0.769
REMARK  Name = 
REMARK  8 active torsions:
REMARK  status: ('A' for Active; 'I' for Inactive)
REMARK    1  A    between atoms: C_1  and  C_2
REMARK    2  A    between atoms: C_7  and  N_8
REMARK    3  A    between atoms: N_8  and  C_9
REMARK    4  A    between atoms: C_9  and  C_10
REMARK    5  A    between atoms: C_10  and  C_11
REMARK    6  A    between atoms: C_14  and  C_15
REMARK    7  A    between atoms: C_20  and  O_21
REMARK    8  A    between atoms: O_21  and  C_22
REMARK                            x       y       z     vdW  Elec       q    Type
REMARK                         _______ _______ _______ _____ _____    ______ ____
ROOT
ATOM      1  N   UNL     1      48.309   7.271  14.831  0.00  0.00    +0.000 N 
ATOM      2  H   UNL     1      47.572   6.802  15.357  0.00  0.00    +0.000 HD
ENDROOT
BRANCH   1   9
ATOM      3  C   UNL     1      51.526   5.372  18.292  0.00  0.00    +0.000 C 
ATOM      4  C   UNL     1      51.207   6.141  17.039  0.00  0.00    +0.000 A 
ATOM      5  C   UNL     1      52.225   6.849  16.364  0.00  0.00    +0.000 A 
ATOM      6 CL   UNL     1      53.885   6.810  16.859  0.00  0.00    +0.000 Cl
ATOM      7  C   UNL     1      51.938   7.641  15.256  0.00  0.00    +0.000 A 
ATOM      8  C   UNL     1      50.631   7.752  14.804  0.00  0.00    +0.000 A 
ATOM      9  C   UNL     1      49.565   7.084  15.437  0.00  0.00    +0.000 A 
ATOM     10  C   UNL     1      49.878   6.231  16.536  0.00  0.00    +0.000 A 
BRANCH  10  11
ATOM     11  O   UNL     1      48.806   5.640  17.182  0.00  0.00    +0.000 OA
BRANCH  11  12
ATOM     12  C   UNL     1      48.420   4.270  16.912  0.00  0.00    +0.000 C 
ATOM     13  C   UNL     1      47.002   3.923  16.423  0.00  0.00    +0.000 C 
ATOM     14  N   UNL     1      46.774   3.071  17.597  0.00  0.00    +0.000 NA
ATOM     15  C   UNL     1      48.079   3.427  18.159  0.00  0.00    +0.000 C 
ATOM     16  H   UNL     1      46.666   2.079  17.387  0.00  0.00    +0.000 HD
ENDBRANCH  11  12
ENDBRANCH  10  11
ENDBRANCH   1   9
BRANCH   1  17
ATOM     17  C   UNL     1      48.124   7.174  13.387  0.00  0.00    +0.000 C 
BRANCH  17  18
ATOM     18  C   UNL     1      46.679   7.511  12.994  0.00  0.00    +0.000 C 
BRANCH  18  19
ATOM     19  C   UNL     1      45.950   6.297  12.462  0.00  0.00    +0.000 A 
ATOM     20  C   UNL     1      45.546   5.273  13.327  0.00  0.00    +0.000 A 
ATOM     21  C   UNL     1      44.898   4.139  12.828  0.00  0.00    +0.000 A 
ATOM     22  C   UNL     1      44.637   4.017  11.459  0.00  0.00    +0.000 A 
ATOM     23  C   UNL     1      45.057   5.026  10.587  0.00  0.00    +0.000 A 
ATOM     24  C   UNL     1      45.710   6.158  11.087  0.00  0.00    +0.000 A 
BRANCH  22  25
ATOM     25  C   UNL     1      43.934   2.792  10.985  0.00  0.00    +0.000 C 
ATOM     26  N   UNL     1      44.452   2.155   9.891  0.00  0.00    +0.000 N 
ATOM     27  O   UNL     1      42.914   2.384  11.526  0.00  0.00    +0.000 OA
ATOM     28  H   UNL     1      45.124   2.589   9.275  0.00  0.00    +0.000 HD
ATOM     29  H   UNL     1      43.897   1.394   9.517  0.00  0.00    +0.000 HD
ENDBRANCH  22  25
ENDBRANCH  18  19
ENDBRANCH  17  18
ENDBRANCH   1  17
TORSDOF 7
ENDMDL
MODEL 9
REMARK VINA RESULT:    -6.301      3.390      7.917
REMARK INTER + INTRA:          -9.648
REMARK INTER:                  -8.958
REMARK INTRA:                  -0.691
REMARK UNBOUND:                -0.769
REMARK  Name = 
REMARK  8 active torsions:
REMARK  status: ('A' for Active; 'I' for Inactive)
REMARK    1  A    between atoms: C_1  and  C_2
REMARK    2  A    between atoms: C_7  and  N_8
REMARK    3  A    between atoms: N_8  and  C_9
REMARK    4  A    between atoms: C_9  and  C_10
REMARK    5  A    between atoms: C_10  and  C_11
REMARK    6  A    between atoms: C_14  and  C_15
REMARK    7  A    between atoms: C_20  and  O_21
REMARK    8  A    between atoms: O_21  and  C_22
REMARK                            x       y       z     vdW  Elec       q    Type
REMARK                         _______ _______ _______ _____ _____    ______ ____
ROOT
ATOM      1  N   UNL     1      46.857   4.226  14.814  0.00  0.00    +0.000 N 
ATOM      2  H   UNL     1      45.975   3.732  14.685  0.00  0.00    +0.000 HD
ENDROOT
BRANCH   1   9
ATOM      3  C   UNL     1      44.997   7.701  11.590  0.00  0.00    +0.000 C 
ATOM      4  C   UNL     1      46.041   7.175  12.538  0.00  0.00    +0.000 A 
ATOM      5  C   UNL     1      47.274   7.846  12.675  0.00  0.00    +0.000 A 
ATOM      6 CL   UNL     1      47.633   9.333  11.861  0.00  0.00    +0.000 Cl
ATOM      7  C   UNL     1      48.290   7.330  13.475  0.00  0.00    +0.000 A 
ATOM      8  C   UNL     1      48.101   6.129  14.145  0.00  0.00    +0.000 A 
ATOM      9  C   UNL     1      46.901   5.400  14.043  0.00  0.00    +0.000 A 
ATOM     10  C   UNL     1      45.847   5.967  13.266  0.00  0.00    +0.000 A 
BRANCH  10  11
ATOM     11  O   UNL     1      44.704   5.200  13.127  0.00  0.00    +0.000 OA
BRANCH  11  12
ATOM     12  C   UNL     1      44.593   4.183  12.100  0.00  0.00    +0.000 C 
ATOM     13  C   UNL     1      43.626   4.351  10.913  0.00  0.00    +0.000 C 
ATOM     14  N   UNL     1      42.907   3.127  11.289  0.00  0.00    +0.000 NA
ATOM     15  C   UNL     1      43.738   2.956  12.482  0.00  0.00    +0.000 C 
ATOM     16  H   UNL     1      42.984   2.367  10.614  0.00  0.00    +0.000 HD
ENDBRANCH  11  12
ENDBRANCH  10  11
ENDBRANCH   1   9
BRANCH   1  17
ATOM     17  C   UNL     1      47.330   4.188  16.194  0.00  0.00    +0.000 C 
BRANCH  17  18
ATOM     18  C   UNL     1      47.847   2.789  16.560  0.00  0.00    +0.000 C 
BRANCH  18  19
ATOM     19  C   UNL     1      49.272   2.836  17.065  0.00  0.00    +0.000 A 
ATOM     20  C   UNL     1      49.810   4.025  17.571  0.00  0.00    +0.000 A 
ATOM     21  C   UNL     1      51.137   4.072  18.010  0.00  0.00    +0.000 A 
ATOM     22  C   UNL     1      51.941   2.929  17.955  0.00  0.00    +0.000 A 
ATOM     23  C   UNL     1      51.417   1.743  17.430  0.00  0.00    +0.000 A 
ATOM     24  C   UNL     1      50.090   1.700  16.988  0.00  0.00    +0.000 A 
BRANCH  22  25
ATOM     25  C   UNL     1      53.344   3.035  18.447  0.00  0.00    +0.000 C 
ATOM     26  N   UNL     1      54.147   3.970  17.854  0.00  0.00    +0.000 N 
ATOM     27  O   UNL     1      53.778   2.296  19.321  0.00  0.00    +0.000 OA
ATOM     28  H   UNL     1      53.913   4.415  16.978  0.00  0.00    +0.000 HD
ATOM     29  H   UNL     1      55.124   3.949  18.122  0.00  0.00    +0.000 HD
ENDBRANCH  22  25
ENDBRANCH  18  19
ENDBRANCH  17  18
ENDBRANCH   1  17
TORSDOF 7
ENDMDL
