MODEL 1
REMARK VINA RESULT:    -9.048      0.000      0.000
REMARK INTER + INTRA:         -11.942
REMARK INTER:                 -11.692
REMARK INTRA:                  -0.250
REMARK UNBOUND:                -0.250
REMARK  Name = 
REMARK  7 active torsions:
REMARK  status: ('A' for Active; 'I' for Inactive)
REMARK    1  A    between atoms: C_1  and  C_2
REMARK    2  A    between atoms: C_2  and  C_3
REMARK    3  A    between atoms: C_2  and  C_4
REMARK    4  A    between atoms: C_2  and  N_18
REMARK    5  A    between atoms: C_5  and  C_6
REMARK    6  A    between atoms: C_10  and  C_11
REMARK    7  A    between atoms: C_22  and  C_23
REMARK                            x       y       z     vdW  Elec       q    Type
REMARK                         _______ _______ _______ _____ _____    ______ ____
ROOT
ATOM      1  C   UNL     1      43.383   3.268  11.695  0.00  0.00    +0.000 C 
ATOM      2  C   UNL     1      43.538   4.773  11.403  0.00  0.00    +0.000 C 
ATOM      3  C   UNL     1      42.166   5.440  11.602  0.00  0.00    +0.000 C 
ENDROOT
BRANCH   2   4
ATOM      4  N   UNL     1      43.980   4.941  10.008  0.00  0.00    +0.000 N 
ATOM      5  C   UNL     1      44.818   4.082   9.320  0.00  0.00    +0.000 A 
ATOM      6  C   UNL     1      44.851   2.703   9.492  0.00  0.00    +0.000 A 
ATOM      7  C   UNL     1      45.685   1.897   8.724  0.00  0.00    +0.000 A 
ATOM      8  C   UNL     1      46.489   2.473   7.756  0.00  0.00    +0.000 A 
ATOM      9  C   UNL     1      46.402   3.851   7.623  0.00  0.00    +0.000 A 
ATOM     10  N   UNL     1      45.596   4.656   8.379  0.00  0.00    +0.000 NA
ATOM     11  H   UNL     1      44.262   5.889   9.767  0.00  0.00    +0.000 HD
BRANCH   8  12
ATOM     12  C   UNL     1      47.357   1.578   6.954  0.00  0.00    +0.000 C 
ATOM     13  N   UNL     1      48.526   2.063   6.448  0.00  0.00    +0.000 N 
ATOM     14  O   UNL     1      47.044   0.410   6.742  0.00  0.00    +0.000 OA
ATOM     15  H   UNL     1      48.868   3.004   6.551  0.00  0.00    +0.000 HD
ATOM     16  H   UNL     1      49.078   1.409   5.905  0.00  0.00    +0.000 HD
ENDBRANCH   8  12
ENDBRANCH   2   4
BRANCH   2  17
ATOM     17  C   UNL     1      44.659   5.256  12.301  0.00  0.00    +0.000 C 
ATOM     18  C   UNL     1      45.586   6.177  11.990  0.00  0.00    +0.000 C 
BRANCH  18  19
ATOM     19  C   UNL     1      46.846   6.367  12.728  0.00  0.00    +0.000 A 
ATOM     20  C   UNL     1      47.741   7.407  12.449  0.00  0.00    +0.000 A 
ATOM     21  C   UNL     1      48.838   7.633  13.274  0.00  0.00    +0.000 A 
ATOM     22  C   UNL     1      49.030   6.848  14.411  0.00  0.00    +0.000 A 
ATOM     23  C   UNL     1      48.116   5.840  14.763  0.00  0.00    +0.000 A 
ATOM     24  C   UNL     1      47.046   5.600  13.881  0.00  0.00    +0.000 A 
BRANCH  23  25
ATOM     25  C   UNL     1      48.178   5.140  16.066  0.00  0.00    +0.000 A 
ATOM     26  C   UNL     1      47.269   4.112  16.374  0.00  0.00    +0.000 A 
ATOM     27  C   UNL     1      47.398   3.347  17.535  0.00  0.00    +0.000 A 
ATOM     28  C   UNL     1      48.446   3.590  18.416  0.00  0.00    +0.000 A 
ATOM     29  C   UNL     1      49.345   4.618  18.151  0.00  0.00    +0.000 A 
ATOM     30  C   UNL     1      49.203   5.394  16.996  0.00  0.00    +0.000 A 
ENDBRANCH  23  25
ENDBRANCH  18  19
ENDBRANCH   2  17
TORSDOF 5
ENDMDL
MODEL 2
REMARK VINA RESULT:    -8.804      1.134      3.502
REMARK INTER + INTRA:         -11.627
REMARK INTER:                 -11.149
REMARK INTRA:                  -0.479
REMARK UNBOUND:                -0.250
REMARK  Name = 
REMARK  7 active torsions:
REMARK  status: ('A' for Active; 'I' for Inactive)
REMARK    1  A    between atoms: C_1  and  C_2
REMARK    2  A    between atoms: C_2  and  C_3
REMARK    3  A    between atoms: C_2  and  C_4
REMARK    4  A    between atoms: C_2  and  N_18
REMARK    5  A    between atoms: C_5  and  C_6
REMARK    6  A    between atoms: C_10  and  C_11
REMARK    7  A    between atoms: C_22  and  C_23
REMARK                            x       y       z     vdW  Elec       q    Type
REMARK                         _______ _______ _______ _____ _____    ______ ____
ROOT
ATOM      1  C   UNL     1      43.488   3.022  11.581  0.00  0.00    +0.000 C 
ATOM      2  C   UNL     1      43.728   4.512  11.270  0.00  0.00    +0.000 C 
ATOM      3  C   UNL     1      42.460   5.291  11.661  0.00  0.00    +0.000 C 
ENDROOT
BRANCH   2   4
ATOM      4  N   UNL     1      43.982   4.660   9.827  0.00  0.00    +0.000 N 
ATOM      5  C   UNL     1      44.853   3.886   9.079  0.00  0.00    +0.000 A 
ATOM      6  C   UNL     1      45.103   2.538   9.303  0.00  0.00    +0.000 A 
ATOM      7  C   UNL     1      45.954   1.812   8.475  0.00  0.00    +0.000 A 
ATOM      8  C   UNL     1      46.552   2.437   7.395  0.00  0.00    +0.000 A 
ATOM      9  C   UNL     1      46.254   3.779   7.217  0.00  0.00    +0.000 A 
ATOM     10  N   UNL     1      45.430   4.508   8.030  0.00  0.00    +0.000 NA
ATOM     11  H   UNL     1      44.096   5.621   9.515  0.00  0.00    +0.000 HD
BRANCH   8  12
ATOM     12  C   UNL     1      47.445   1.626   6.534  0.00  0.00    +0.000 C 
ATOM     13  N   UNL     1      48.556   2.205   5.995  0.00  0.00    +0.000 N 
ATOM     14  O   UNL     1      47.204   0.445   6.299  0.00  0.00    +0.000 OA
ATOM     15  H   UNL     1      48.837   3.164   6.112  0.00  0.00    +0.000 HD
ATOM     16  H   UNL     1      49.128   1.606   5.412  0.00  0.00    +0.000 HD
ENDBRANCH   8  12
ENDBRANCH   2   4
BRANCH   2  17
ATOM     17  C   UNL     1      45.002   4.888  12.000  0.00  0.00    +0.000 C 
ATOM     18  C   UNL     1      45.422   4.389  13.175  0.00  0.00    +0.000 C 
BRANCH  18  19
ATOM     19  C   UNL     1      46.456   5.012  14.017  0.00  0.00    +0.000 A 
ATOM     20  C   UNL     1      46.915   4.437  15.208  0.00  0.00    +0.000 A 
ATOM     21  C   UNL     1      48.000   4.986  15.884  0.00  0.00    +0.000 A 
ATOM     22  C   UNL     1      48.665   6.093  15.355  0.00  0.00    +0.000 A 
ATOM     23  C   UNL     1      48.278   6.656  14.127  0.00  0.00    +0.000 A 
ATOM     24  C   UNL     1      47.145   6.113  13.494  0.00  0.00    +0.000 A 
BRANCH  23  25
ATOM     25  C   UNL     1      49.091   7.687  13.443  0.00  0.00    +0.000 A 
ATOM     26  C   UNL     1      50.421   7.927  13.831  0.00  0.00    +0.000 A 
ATOM     27  C   UNL     1      51.248   8.792  13.111  0.00  0.00    +0.000 A 
ATOM     28  C   UNL     1      50.761   9.435  11.978  0.00  0.00    +0.000 A 
ATOM     29  C   UNL     1      49.442   9.237  11.584  0.00  0.00    +0.000 A 
ATOM     30  C   UNL     1      48.612   8.384  12.319  0.00  0.00    +0.000 A 
ENDBRANCH  23  25
ENDBRANCH  18  19
ENDBRANCH   2  17
TORSDOF 5
ENDMDL
MODEL 3
REMARK VINA RESULT:    -8.361      3.699      8.166
REMARK INTER + INTRA:         -11.055
REMARK INTER:                 -10.287
REMARK INTRA:                  -0.768
REMARK UNBOUND:                -0.250
REMARK  Name = 
REMARK  7 active torsions:
REMARK  status: ('A' for Active; 'I' for Inactive)
REMARK    1  A    between atoms: C_1  and  C_2
REMARK    2  A    between atoms: C_2  and  C_3
REMARK    3  A    between atoms: C_2  and  C_4
REMARK    4  A    between atoms: C_2  and  N_18
REMARK    5  A    between atoms: C_5  and  C_6
REMARK    6  A    between atoms: C_10  and  C_11
REMARK    7  A    between atoms: C_22  and  C_23
REMARK                            x       y       z     vdW  Elec       q    Type
REMARK                         _______ _______ _______ _____ _____    ______ ____
ROOT
ATOM      1  C   UNL     1      49.083   8.970  11.783  0.00  0.00    +0.000 C 
ATOM      2  C   UNL     1      48.254   8.217  12.840  0.00  0.00    +0.000 C 
ATOM      3  C   UNL     1      47.506   9.259  13.690  0.00  0.00    +0.000 C 
ENDROOT
BRANCH   2   4
ATOM      4  N   UNL     1      49.169   7.438  13.692  0.00  0.00    +0.000 N 
ATOM      5  C   UNL     1      48.787   6.551  14.684  0.00  0.00    +0.000 A 
ATOM      6  C   UNL     1      47.652   5.751  14.633  0.00  0.00    +0.000 A 
ATOM      7  C   UNL     1      47.361   4.842  15.646  0.00  0.00    +0.000 A 
ATOM      8  C   UNL     1      48.224   4.717  16.720  0.00  0.00    +0.000 A 
ATOM      9  C   UNL     1      49.345   5.534  16.707  0.00  0.00    +0.000 A 
ATOM     10  N   UNL     1      49.638   6.439  15.725  0.00  0.00    +0.000 NA
ATOM     11  H   UNL     1      49.960   7.966  14.055  0.00  0.00    +0.000 HD
BRANCH   8  12
ATOM     12  C   UNL     1      47.881   3.733  17.774  0.00  0.00    +0.000 C 
ATOM     13  N   UNL     1      46.881   2.835  17.546  0.00  0.00    +0.000 N 
ATOM     14  O   UNL     1      48.483   3.710  18.844  0.00  0.00    +0.000 OA
ATOM     15  H   UNL     1      46.319   2.776  16.712  0.00  0.00    +0.000 HD
ATOM     16  H   UNL     1      46.687   2.188  18.301  0.00  0.00    +0.000 HD
ENDBRANCH   8  12
ENDBRANCH   2   4
BRANCH   2  17
ATOM     17  C   UNL     1      47.396   7.233  12.070  0.00  0.00    +0.000 C 
ATOM     18  C   UNL     1      46.092   7.371  11.781  0.00  0.00    +0.000 C 
BRANCH  18  19
ATOM     19  C   UNL     1      45.217   6.267  11.352  0.00  0.00    +0.000 A 
ATOM     20  C   UNL     1      43.838   6.252  11.597  0.00  0.00    +0.000 A 
ATOM     21  C   UNL     1      43.034   5.264  11.037  0.00  0.00    +0.000 A 
ATOM     22  C   UNL     1      43.593   4.304  10.193  0.00  0.00    +0.000 A 
ATOM     23  C   UNL     1      44.960   4.328   9.868  0.00  0.00    +0.000 A 
ATOM     24  C   UNL     1      45.757   5.306  10.490  0.00  0.00    +0.000 A 
BRANCH  23  25
ATOM     25  C   UNL     1      45.534   3.459   8.815  0.00  0.00    +0.000 A 
ATOM     26  C   UNL     1      46.196   4.016   7.706  0.00  0.00    +0.000 A 
ATOM     27  C   UNL     1      46.864   3.216   6.777  0.00  0.00    +0.000 A 
ATOM     28  C   UNL     1      46.892   1.835   6.940  0.00  0.00    +0.000 A 
ATOM     29  C   UNL     1      46.225   1.254   8.013  0.00  0.00    +0.000 A 
ATOM     30  C   UNL     1      45.541   2.057   8.932  0.00  0.00    +0.000 A 
ENDBRANCH  23  25
ENDBRANCH  18  19
ENDBRANCH   2  17
TORSDOF 5
ENDMDL
MODEL 4
REMARK VINA RESULT:    -8.071      2.203      4.367
REMARK INTER + INTRA:         -10.680
REMARK INTER:                 -10.693
REMARK INTRA:                   0.013
REMARK UNBOUND:                -0.250
REMARK  Name = 
REMARK  7 active torsions:
REMARK  status: ('A' for Active; 'I' for Inactive)
REMARK    1  A    between atoms: C_1  and  C_2
REMARK    2  A    between atoms: C_2  and  C_3
REMARK    3  A    between atoms: C_2  and  C_4
REMARK    4  A    between atoms: C_2  and  N_18
REMARK    5  A    between atoms: C_5  and  C_6
REMARK    6  A    between atoms: C_10  and  C_11
REMARK    7  A    between atoms: C_22  and  C_23
REMARK                            x       y       z     vdW  Elec       q    Type
REMARK                         _______ _______ _______ _____ _____    ______ ____
ROOT
ATOM      1  C   UNL     1      44.188   3.705  11.818  0.00  0.00    +0.000 C 
ATOM      2  C   UNL     1      43.971   5.109  11.223  0.00  0.00    +0.000 C 
ATOM      3  C   UNL     1      42.505   5.508  11.467  0.00  0.00    +0.000 C 
ENDROOT
BRANCH   2   4
ATOM      4  N   UNL     1      44.242   5.058   9.776  0.00  0.00    +0.000 N 
ATOM      5  C   UNL     1      44.993   4.090   9.132  0.00  0.00    +0.000 A 
ATOM      6  C   UNL     1      45.046   2.752   9.506  0.00  0.00    +0.000 A 
ATOM      7  C   UNL     1      45.782   1.825   8.776  0.00  0.00    +0.000 A 
ATOM      8  C   UNL     1      46.464   2.234   7.643  0.00  0.00    +0.000 A 
ATOM      9  C   UNL     1      46.362   3.577   7.314  0.00  0.00    +0.000 A 
ATOM     10  N   UNL     1      45.652   4.502   8.029  0.00  0.00    +0.000 NA
ATOM     11  H   UNL     1      44.493   5.953   9.362  0.00  0.00    +0.000 HD
BRANCH   8  12
ATOM     12  C   UNL     1      47.230   1.213   6.890  0.00  0.00    +0.000 C 
ATOM     13  N   UNL     1      46.968  -0.108   7.103  0.00  0.00    +0.000 N 
ATOM     14  O   UNL     1      48.092   1.535   6.077  0.00  0.00    +0.000 OA
ATOM     15  H   UNL     1      46.295  -0.478   7.753  0.00  0.00    +0.000 HD
ATOM     16  H   UNL     1      47.524  -0.761   6.564  0.00  0.00    +0.000 HD
ENDBRANCH   8  12
ENDBRANCH   2   4
BRANCH   2  17
ATOM     17  C   UNL     1      45.025   5.995  11.856  0.00  0.00    +0.000 C 
ATOM     18  C   UNL     1      46.294   6.141  11.442  0.00  0.00    +0.000 C 
BRANCH  18  19
ATOM     19  C   UNL     1      47.372   6.717  12.262  0.00  0.00    +0.000 A 
ATOM     20  C   UNL     1      47.491   6.480  13.637  0.00  0.00    +0.000 A 
ATOM     21  C   UNL     1      48.612   6.920  14.334  0.00  0.00    +0.000 A 
ATOM     22  C   UNL     1      49.647   7.565  13.657  0.00  0.00    +0.000 A 
ATOM     23  C   UNL     1      49.596   7.760  12.266  0.00  0.00    +0.000 A 
ATOM     24  C   UNL     1      48.427   7.353  11.597  0.00  0.00    +0.000 A 
BRANCH  23  25
ATOM     25  C   UNL     1      50.764   8.246  11.496  0.00  0.00    +0.000 A 
ATOM     26  C   UNL     1      51.345   9.494  11.783  0.00  0.00    +0.000 A 
ATOM     27  C   UNL     1      52.527   9.908  11.166  0.00  0.00    +0.000 A 
ATOM     28  C   UNL     1      53.162   9.077  10.250  0.00  0.00    +0.000 A 
ATOM     29  C   UNL     1      52.597   7.847   9.927  0.00  0.00    +0.000 A 
ATOM     30  C   UNL     1      51.403   7.444  10.533  0.00  0.00    +0.000 A 
ENDBRANCH  23  25
ENDBRANCH  18  19
ENDBRANCH   2  17
TORSDOF 5
ENDMDL
MODEL 5
REMARK VINA RESULT:    -7.324      2.824      5.157
REMARK INTER + INTRA:          -9.714
REMARK INTER:                  -9.246
REMARK INTRA:                  -0.468
REMARK UNBOUND:                -0.250
REMARK  Name = 
REMARK  7 active torsions:
REMARK  status: ('A' for Active; 'I' for Inactive)
REMARK    1  A    between atoms: C_1  and  C_2
REMARK    2  A    between atoms: C_2  and  C_3
REMARK    3  A    between atoms: C_2  and  C_4
REMARK    4  A    between atoms: C_2  and  N_18
REMARK    5  A    between atoms: C_5  and  C_6
REMARK    6  A    between atoms: C_10  and  C_11
REMARK    7  A    between atoms: C_22  and  C_23
REMARK                            x       y       z     vdW  Elec       q    Type
REMARK                         _______ _______ _______ _____ _____    ______ ____
ROOT
ATOM      1  C   UNL     1      48.354   8.930  14.049  0.00  0.00    +0.000 C 
ATOM      2  C   UNL     1      48.204   7.521  13.443  0.00  0.00    +0.000 C 
ATOM      3  C   UNL     1      49.427   7.255  12.548  0.00  0.00    +0.000 C 
ENDROOT
BRANCH   2   4
ATOM      4  N   UNL     1      46.973   7.483  12.634  0.00  0.00    +0.000 N 
ATOM      5  C   UNL     1      46.316   6.336  12.223  0.00  0.00    +0.000 A 
ATOM      6  C   UNL     1      46.240   5.161  12.961  0.00  0.00    +0.000 A 
ATOM      7  C   UNL     1      45.514   4.065  12.506  0.00  0.00    +0.000 A 
ATOM      8  C   UNL     1      44.839   4.147  11.301  0.00  0.00    +0.000 A 
ATOM      9  C   UNL     1      44.942   5.349  10.617  0.00  0.00    +0.000 A 
ATOM     10  N   UNL     1      45.661   6.430  11.048  0.00  0.00    +0.000 NA
ATOM     11  H   UNL     1      46.965   8.128  11.848  0.00  0.00    +0.000 HD
BRANCH   8  12
ATOM     12  C   UNL     1      44.071   2.960  10.855  0.00  0.00    +0.000 C 
ATOM     13  N   UNL     1      44.577   2.175   9.862  0.00  0.00    +0.000 N 
ATOM     14  O   UNL     1      42.992   2.671  11.365  0.00  0.00    +0.000 OA
ATOM     15  H   UNL     1      45.442   2.329   9.370  0.00  0.00    +0.000 HD
ATOM     16  H   UNL     1      44.009   1.379   9.595  0.00  0.00    +0.000 HD
ENDBRANCH   8  12
ENDBRANCH   2   4
BRANCH   2  17
ATOM     17  C   UNL     1      48.011   6.584  14.617  0.00  0.00    +0.000 C 
ATOM     18  C   UNL     1      48.792   6.501  15.707  0.00  0.00    +0.000 C 
BRANCH  18  19
ATOM     19  C   UNL     1      48.789   5.366  16.644  0.00  0.00    +0.000 A 
ATOM     20  C   UNL     1      47.614   4.741  17.078  0.00  0.00    +0.000 A 
ATOM     21  C   UNL     1      47.673   3.578  17.839  0.00  0.00    +0.000 A 
ATOM     22  C   UNL     1      48.908   3.003  18.141  0.00  0.00    +0.000 A 
ATOM     23  C   UNL     1      50.107   3.562  17.665  0.00  0.00    +0.000 A 
ATOM     24  C   UNL     1      50.018   4.766  16.943  0.00  0.00    +0.000 A 
BRANCH  23  25
ATOM     25  C   UNL     1      51.405   2.861  17.787  0.00  0.00    +0.000 A 
ATOM     26  C   UNL     1      51.523   1.503  17.441  0.00  0.00    +0.000 A 
ATOM     27  C   UNL     1      52.763   0.861  17.416  0.00  0.00    +0.000 A 
ATOM     28  C   UNL     1      53.919   1.568  17.731  0.00  0.00    +0.000 A 
ATOM     29  C   UNL     1      53.830   2.905  18.101  0.00  0.00    +0.000 A 
ATOM     30  C   UNL     1      52.584   3.540  18.144  0.00  0.00    +0.000 A 
ENDBRANCH  23  25
ENDBRANCH  18  19
ENDBRANCH   2  17
TORSDOF 5
ENDMDL
MODEL 6
REMARK VINA RESULT:    -7.243      4.268      8.590
REMARK INTER + INTRA:          -9.610
REMARK INTER:                  -9.216
REMARK INTRA:                  -0.394
REMARK UNBOUND:                -0.250
REMARK  Name = 
REMARK  7 active torsions:
REMARK  status: ('A' for Active; 'I' for Inactive)
REMARK    1  A    between atoms: C_1  and  C_2
REMARK    2  A    between atoms: C_2  and  C_3
REMARK    3  A    between atoms: C_2  and  C_4
REMARK    4  A    between atoms: C_2  and  N_18
REMARK    5  A    between atoms: C_5  and  C_6
REMARK    6  A    between atoms: C_10  and  C_11
REMARK    7  A    between atoms: C_22  and  C_23
REMARK                            x       y       z     vdW  Elec       q    Type
REMARK                         _______ _______ _______ _____ _____    ______ ____
ROOT
ATOM      1  C   UNL     1      49.293   7.617  12.368  0.00  0.00    +0.000 C 
ATOM      2  C   UNL     1      48.005   8.013  13.115  0.00  0.00    +0.000 C 
ATOM      3  C   UNL     1      47.925   9.550  13.144  0.00  0.00    +0.000 C 
ENDROOT
BRANCH   2   4
ATOM      4  N   UNL     1      48.074   7.488  14.489  0.00  0.00    +0.000 N 
ATOM      5  C   UNL     1      49.227   7.087  15.141  0.00  0.00    +0.000 A 
ATOM      6  C   UNL     1      50.477   7.670  14.967  0.00  0.00    +0.000 A 
ATOM      7  C   UNL     1      51.582   7.246  15.699  0.00  0.00    +0.000 A 
ATOM      8  C   UNL     1      51.436   6.234  16.631  0.00  0.00    +0.000 A 
ATOM      9  C   UNL     1      50.163   5.701  16.767  0.00  0.00    +0.000 A 
ATOM     10  N   UNL     1      49.071   6.100  16.047  0.00  0.00    +0.000 NA
ATOM     11  H   UNL     1      47.352   6.809  14.718  0.00  0.00    +0.000 HD
BRANCH   8  12
ATOM     12  C   UNL     1      52.636   5.817  17.394  0.00  0.00    +0.000 C 
ATOM     13  N   UNL     1      53.861   5.887  16.799  0.00  0.00    +0.000 N 
ATOM     14  O   UNL     1      52.547   5.413  18.550  0.00  0.00    +0.000 OA
ATOM     15  H   UNL     1      54.043   6.190  15.856  0.00  0.00    +0.000 HD
ATOM     16  H   UNL     1      54.645   5.587  17.365  0.00  0.00    +0.000 HD
ENDBRANCH   8  12
ENDBRANCH   2   4
BRANCH   2  17
ATOM     17  C   UNL     1      46.877   7.293  12.405  0.00  0.00    +0.000 C 
ATOM     18  C   UNL     1      45.820   6.701  12.986  0.00  0.00    +0.000 C 
BRANCH  18  19
ATOM     19  C   UNL     1      44.945   5.725  12.317  0.00  0.00    +0.000 A 
ATOM     20  C   UNL     1      43.563   5.668  12.534  0.00  0.00    +0.000 A 
ATOM     21  C   UNL     1      42.761   4.832  11.763  0.00  0.00    +0.000 A 
ATOM     22  C   UNL     1      43.327   4.074  10.738  0.00  0.00    +0.000 A 
ATOM     23  C   UNL     1      44.700   4.155  10.444  0.00  0.00    +0.000 A 
ATOM     24  C   UNL     1      45.493   4.969  11.274  0.00  0.00    +0.000 A 
BRANCH  23  25
ATOM     25  C   UNL     1      45.284   3.531   9.235  0.00  0.00    +0.000 A 
ATOM     26  C   UNL     1      45.820   4.323   8.204  0.00  0.00    +0.000 A 
ATOM     27  C   UNL     1      46.500   3.756   7.125  0.00  0.00    +0.000 A 
ATOM     28  C   UNL     1      46.665   2.377   7.055  0.00  0.00    +0.000 A 
ATOM     29  C   UNL     1      46.125   1.566   8.046  0.00  0.00    +0.000 A 
ATOM     30  C   UNL     1      45.429   2.136   9.117  0.00  0.00    +0.000 A 
ENDBRANCH  23  25
ENDBRANCH  18  19
ENDBRANCH   2  17
TORSDOF 5
ENDMDL
MODEL 7
REMARK VINA RESULT:    -7.219      3.000      4.798
REMARK INTER + INTRA:          -9.580
REMARK INTER:                  -8.752
REMARK INTRA:                  -0.828
REMARK UNBOUND:                -0.250
REMARK  Name = 
REMARK  7 active torsions:
REMARK  status: ('A' for Active; 'I' for Inactive)
REMARK    1  A    between atoms: C_1  and  C_2
REMARK    2  A    between atoms: C_2  and  C_3
REMARK    3  A    between atoms: C_2  and  C_4
REMARK    4  A    between atoms: C_2  and  N_18
REMARK    5  A    between atoms: C_5  and  C_6
REMARK    6  A    between atoms: C_10  and  C_11
REMARK    7  A    between atoms: C_22  and  C_23
REMARK                            x       y       z     vdW  Elec       q    Type
REMARK                         _______ _______ _______ _____ _____    ______ ____
ROOT
ATOM      1  C   UNL     1      47.649  10.416  12.544  0.00  0.00    +0.000 C 
ATOM      2  C   UNL     1      47.584   8.879  12.636  0.00  0.00    +0.000 C 
ATOM      3  C   UNL     1      48.715   8.301  11.768  0.00  0.00    +0.000 C 
ENDROOT
BRANCH   2   4
ATOM      4  N   UNL     1      46.278   8.429  12.123  0.00  0.00    +0.000 N 
ATOM      5  C   UNL     1      45.842   7.117  12.071  0.00  0.00    +0.000 A 
ATOM      6  C   UNL     1      46.161   6.141  13.009  0.00  0.00    +0.000 A 
ATOM      7  C   UNL     1      45.640   4.854  12.920  0.00  0.00    +0.000 A 
ATOM      8  C   UNL     1      44.774   4.538  11.888  0.00  0.00    +0.000 A 
ATOM      9  C   UNL     1      44.485   5.557  10.992  0.00  0.00    +0.000 A 
ATOM     10  N   UNL     1      44.998   6.822  11.061  0.00  0.00    +0.000 NA
ATOM     11  H   UNL     1      45.992   8.872  11.252  0.00  0.00    +0.000 HD
BRANCH   8  12
ATOM     12  C   UNL     1      44.236   3.158  11.833  0.00  0.00    +0.000 C 
ATOM     13  N   UNL     1      44.463   2.398  10.725  0.00  0.00    +0.000 N 
ATOM     14  O   UNL     1      43.592   2.688  12.768  0.00  0.00    +0.000 OA
ATOM     15  H   UNL     1      44.965   2.690   9.902  0.00  0.00    +0.000 HD
ATOM     16  H   UNL     1      44.070   1.464  10.740  0.00  0.00    +0.000 HD
ENDBRANCH   8  12
ENDBRANCH   2   4
BRANCH   2  17
ATOM     17  C   UNL     1      47.632   8.550  14.114  0.00  0.00    +0.000 C 
ATOM     18  C   UNL     1      48.619   8.870  14.969  0.00  0.00    +0.000 C 
BRANCH  18  19
ATOM     19  C   UNL     1      48.806   8.246  16.289  0.00  0.00    +0.000 A 
ATOM     20  C   UNL     1      48.359   8.835  17.478  0.00  0.00    +0.000 A 
ATOM     21  C   UNL     1      48.422   8.134  18.679  0.00  0.00    +0.000 A 
ATOM     22  C   UNL     1      48.895   6.822  18.697  0.00  0.00    +0.000 A 
ATOM     23  C   UNL     1      49.289   6.173  17.514  0.00  0.00    +0.000 A 
ATOM     24  C   UNL     1      49.263   6.924  16.324  0.00  0.00    +0.000 A 
BRANCH  23  25
ATOM     25  C   UNL     1      49.590   4.724  17.473  0.00  0.00    +0.000 A 
ATOM     26  C   UNL     1      48.619   3.800  17.046  0.00  0.00    +0.000 A 
ATOM     27  C   UNL     1      48.925   2.449  16.868  0.00  0.00    +0.000 A 
ATOM     28  C   UNL     1      50.216   1.991  17.107  0.00  0.00    +0.000 A 
ATOM     29  C   UNL     1      51.191   2.877  17.554  0.00  0.00    +0.000 A 
ATOM     30  C   UNL     1      50.876   4.225  17.749  0.00  0.00    +0.000 A 
ENDBRANCH  23  25
ENDBRANCH  18  19
ENDBRANCH   2  17
TORSDOF 5
ENDMDL
MODEL 8
REMARK VINA RESULT:    -7.172      4.460      8.001
REMARK INTER + INTRA:          -9.518
REMARK INTER:                  -8.746
REMARK INTRA:                  -0.771
REMARK UNBOUND:                -0.250
REMARK  Name = 
REMARK  7 active torsions:
REMARK  status: ('A' for Active; 'I' for Inactive)
REMARK    1  A    between atoms: C_1  and  C_2
REMARK    2  A    between atoms: C_2  and  C_3
REMARK    3  A    between atoms: C_2  and  C_4
REMARK    4  A    between atoms: C_2  and  N_18
REMARK    5  A    between atoms: C_5  and  C_6
REMARK    6  A    between atoms: C_10  and  C_11
REMARK    7  A    between atoms: C_22  and  C_23
REMARK                            x       y       z     vdW  Elec       q    Type
REMARK                         _______ _______ _______ _____ _____    ______ ____
ROOT
ATOM      1  C   UNL     1      50.026   9.013  18.672  0.00  0.00    +0.000 C 
ATOM      2  C   UNL     1      48.663   8.712  18.019  0.00  0.00    +0.000 C 
ATOM      3  C   UNL     1      47.677   9.812  18.448  0.00  0.00    +0.000 C 
ENDROOT
BRANCH   2   4
ATOM      4  N   UNL     1      48.189   7.401  18.497  0.00  0.00    +0.000 N 
ATOM      5  C   UNL     1      48.689   6.172  18.102  0.00  0.00    +0.000 A 
ATOM      6  C   UNL     1      50.019   5.925  17.784  0.00  0.00    +0.000 A 
ATOM      7  C   UNL     1      50.458   4.649  17.447  0.00  0.00    +0.000 A 
ATOM      8  C   UNL     1      49.560   3.597  17.443  0.00  0.00    +0.000 A 
ATOM      9  C   UNL     1      48.250   3.904  17.781  0.00  0.00    +0.000 A 
ATOM     10  N   UNL     1      47.803   5.155  18.103  0.00  0.00    +0.000 NA
ATOM     11  H   UNL     1      47.177   7.309  18.542  0.00  0.00    +0.000 HD
BRANCH   8  12
ATOM     12  C   UNL     1      50.070   2.251  17.085  0.00  0.00    +0.000 C 
ATOM     13  N   UNL     1      51.001   1.658  17.884  0.00  0.00    +0.000 N 
ATOM     14  O   UNL     1      49.667   1.663  16.085  0.00  0.00    +0.000 OA
ATOM     15  H   UNL     1      51.406   2.058  18.715  0.00  0.00    +0.000 HD
ATOM     16  H   UNL     1      51.316   0.742  17.591  0.00  0.00    +0.000 HD
ENDBRANCH   8  12
ENDBRANCH   2   4
BRANCH   2  17
ATOM     17  C   UNL     1      48.933   8.588  16.534  0.00  0.00    +0.000 C 
ATOM     18  C   UNL     1      48.232   9.171  15.547  0.00  0.00    +0.000 C 
BRANCH  18  19
ATOM     19  C   UNL     1      48.292   8.761  14.134  0.00  0.00    +0.000 A 
ATOM     20  C   UNL     1      49.341   9.127  13.281  0.00  0.00    +0.000 A 
ATOM     21  C   UNL     1      49.429   8.586  12.001  0.00  0.00    +0.000 A 
ATOM     22  C   UNL     1      48.494   7.643  11.576  0.00  0.00    +0.000 A 
ATOM     23  C   UNL     1      47.467   7.199  12.428  0.00  0.00    +0.000 A 
ATOM     24  C   UNL     1      47.372   7.802  13.696  0.00  0.00    +0.000 A 
BRANCH  23  25
ATOM     25  C   UNL     1      46.597   6.053  12.081  0.00  0.00    +0.000 A 
ATOM     26  C   UNL     1      46.351   5.030  13.014  0.00  0.00    +0.000 A 
ATOM     27  C   UNL     1      45.426   4.015  12.759  0.00  0.00    +0.000 A 
ATOM     28  C   UNL     1      44.718   4.005  11.562  0.00  0.00    +0.000 A 
ATOM     29  C   UNL     1      44.958   4.989  10.610  0.00  0.00    +0.000 A 
ATOM     30  C   UNL     1      45.899   5.993  10.861  0.00  0.00    +0.000 A 
ENDBRANCH  23  25
ENDBRANCH  18  19
ENDBRANCH   2  17
TORSDOF 5
ENDMDL
MODEL 9
REMARK VINA RESULT:    -7.114      4.275      7.869
REMARK INTER + INTRA:          -9.443
REMARK INTER:                  -8.239
REMARK INTRA:                  -1.204
REMARK UNBOUND:                -0.250
REMARK  Name = 
REMARK  7 active torsions:
REMARK  status: ('A' for Active; 'I' for Inactive)
REMARK    1  A    between atoms: C_1  and  C_2
REMARK    2  A    between atoms: C_2  and  C_3
REMARK    3  A    between atoms: C_2  and  C_4
REMARK    4  A    between atoms: C_2  and  N_18
REMARK    5  A    between atoms: C_5  and  C_6
REMARK    6  A    between atoms: C_10  and  C_11
REMARK    7  A    between atoms: C_22  and  C_23
REMARK                            x       y       z     vdW  Elec       q    Type
REMARK                         _______ _______ _______ _____ _____    ______ ____
ROOT
ATOM      1  C   UNL     1      50.346   7.987  13.560  0.00  0.00    +0.000 C 
ATOM      2  C   UNL     1      48.809   8.022  13.470  0.00  0.00    +0.000 C 
ATOM      3  C   UNL     1      48.259   8.414  14.853  0.00  0.00    +0.000 C 
ENDROOT
BRANCH   2   4
ATOM      4  N   UNL     1      48.325   6.681  13.100  0.00  0.00    +0.000 N 
ATOM      5  C   UNL     1      47.019   6.357  12.774  0.00  0.00    +0.000 A 
ATOM      6  C   UNL     1      46.139   7.200  12.107  0.00  0.00    +0.000 A 
ATOM      7  C   UNL     1      44.855   6.785  11.766  0.00  0.00    +0.000 A 
ATOM      8  C   UNL     1      44.448   5.501  12.082  0.00  0.00    +0.000 A 
ATOM      9  C   UNL     1      45.375   4.703  12.737  0.00  0.00    +0.000 A 
ATOM     10  N   UNL     1      46.635   5.103  13.087  0.00  0.00    +0.000 NA
ATOM     11  H   UNL     1      48.681   5.928  13.684  0.00  0.00    +0.000 HD
BRANCH   8  12
ATOM     12  C   UNL     1      43.075   5.095  11.695  0.00  0.00    +0.000 C 
ATOM     13  N   UNL     1      42.079   6.025  11.705  0.00  0.00    +0.000 N 
ATOM     14  O   UNL     1      42.822   3.940  11.365  0.00  0.00    +0.000 OA
ATOM     15  H   UNL     1      42.175   6.991  11.971  0.00  0.00    +0.000 HD
ATOM     16  H   UNL     1      41.161   5.692  11.436  0.00  0.00    +0.000 HD
ENDBRANCH   8  12
ENDBRANCH   2   4
BRANCH   2  17
ATOM     17  C   UNL     1      48.482   8.959  12.324  0.00  0.00    +0.000 C 
ATOM     18  C   UNL     1      48.310  10.289  12.408  0.00  0.00    +0.000 C 
BRANCH  18  19
ATOM     19  C   UNL     1      47.659  11.107  11.372  0.00  0.00    +0.000 A 
ATOM     20  C   UNL     1      48.374  11.778  10.373  0.00  0.00    +0.000 A 
ATOM     21  C   UNL     1      47.705  12.408   9.328  0.00  0.00    +0.000 A 
ATOM     22  C   UNL     1      46.313  12.339   9.249  0.00  0.00    +0.000 A 
ATOM     23  C   UNL     1      45.565  11.617  10.194  0.00  0.00    +0.000 A 
ATOM     24  C   UNL     1      46.265  11.035  11.267  0.00  0.00    +0.000 A 
BRANCH  23  25
ATOM     25  C   UNL     1      44.120  11.350  10.016  0.00  0.00    +0.000 A 
ATOM     26  C   UNL     1      43.494  10.293  10.701  0.00  0.00    +0.000 A 
ATOM     27  C   UNL     1      42.110  10.111  10.657  0.00  0.00    +0.000 A 
ATOM     28  C   UNL     1      41.316  10.990   9.928  0.00  0.00    +0.000 A 
ATOM     29  C   UNL     1      41.909  12.030   9.220  0.00  0.00    +0.000 A 
ATOM     30  C   UNL     1      43.297  12.198   9.252  0.00  0.00    +0.000 A 
ENDBRANCH  23  25
ENDBRANCH  18  19
ENDBRANCH   2  17
TORSDOF 5
ENDMDL
