MODEL 1
REMARK VINA RESULT:    -7.420      0.000      0.000
REMARK INTER + INTRA:         -10.829
REMARK INTER:                 -10.023
REMARK INTRA:                  -0.806
REMARK UNBOUND:                -0.806
REMARK  Name = 
REMARK  6 active torsions:
REMARK  status: ('A' for Active; 'I' for Inactive)
REMARK    1  A    between atoms: C_2  and  C_4
REMARK    2  A    between atoms: C_8  and  N_9
REMARK    3  A    between atoms: N_9  and  C_10
REMARK    4  A    between atoms: C_10  and  C_11
REMARK    5  A    between atoms: C_11  and  C_12
REMARK    6  A    between atoms: C_17  and  C_18
REMARK                            x       y       z     vdW  Elec       q    Type
REMARK                         _______ _______ _______ _____ _____    ______ ____
ROOT
ATOM      1  N   UNL     1      44.357   4.729   8.994  0.00  0.00    +0.000 N 
ATOM      2  H   UNL     1      44.949   5.542   8.830  0.00  0.00    +0.000 HD
ENDROOT
BRANCH   1   7
ATOM      3  C   UNL     1      46.607   2.440   7.108  0.00  0.00    +0.000 A 
ATOM      4  C   UNL     1      46.348   1.213   7.725  0.00  0.00    +0.000 A 
ATOM      5  C   UNL     1      45.403   1.140   8.744  0.00  0.00    +0.000 A 
ATOM      6  C   UNL     1      44.741   2.298   9.165  0.00  0.00    +0.000 A 
ATOM      7  C   UNL     1      45.028   3.551   8.611  0.00  0.00    +0.000 A 
ATOM      8  C   UNL     1      45.941   3.599   7.545  0.00  0.00    +0.000 A 
BRANCH   3  10
ATOM      9  N   UNL     1      48.918   2.729   6.400  0.00  0.00    +0.000 N 
ATOM     10  C   UNL     1      47.612   2.563   6.024  0.00  0.00    +0.000 C 
ATOM     11  O   UNL     1      47.300   2.495   4.843  0.00  0.00    +0.000 OA
ATOM     12  H   UNL     1      49.604   2.727   5.653  0.00  0.00    +0.000 HD
ATOM     13  H   UNL     1      49.241   2.536   7.336  0.00  0.00    +0.000 HD
ENDBRANCH   3  10
ENDBRANCH   1   7
BRANCH   1  14
ATOM     14  C   UNL     1      43.757   4.743  10.332  0.00  0.00    +0.000 C 
BRANCH  14  15
ATOM     15  C   UNL     1      44.417   5.809  11.213  0.00  0.00    +0.000 C 
BRANCH  15  16
ATOM     16  C   UNL     1      45.376   5.212  12.218  0.00  0.00    +0.000 A 
ATOM     17  C   UNL     1      45.396   3.822  12.365  0.00  0.00    +0.000 A 
ATOM     18  N   UNL     1      46.168   3.151  13.245  0.00  0.00    +0.000 NA
ATOM     19  C   UNL     1      46.970   3.885  14.035  0.00  0.00    +0.000 A 
ATOM     20  C   UNL     1      47.058   5.263  13.953  0.00  0.00    +0.000 A 
ATOM     21  C   UNL     1      46.263   5.955  13.019  0.00  0.00    +0.000 A 
BRANCH  21  22
ATOM     22  C   UNL     1      46.436   7.455  12.963  0.00  0.00    +0.000 C 
ATOM     23  F   UNL     1      45.305   8.177  13.179  0.00  0.00    +0.000 F 
ATOM     24  F   UNL     1      47.342   7.903  13.875  0.00  0.00    +0.000 F 
ATOM     25  F   UNL     1      46.900   7.869  11.749  0.00  0.00    +0.000 F 
ENDBRANCH  21  22
ENDBRANCH  15  16
ENDBRANCH  14  15
ENDBRANCH   1  14
TORSDOF 6
ENDMDL
MODEL 2
REMARK VINA RESULT:    -7.374      2.046      2.955
REMARK INTER + INTRA:         -10.767
REMARK INTER:                  -9.945
REMARK INTRA:                  -0.822
REMARK UNBOUND:                -0.806
REMARK  Name = 
REMARK  6 active torsions:
REMARK  status: ('A' for Active; 'I' for Inactive)
REMARK    1  A    between atoms: C_2  and  C_4
REMARK    2  A    between atoms: C_8  and  N_9
REMARK    3  A    between atoms: N_9  and  C_10
REMARK    4  A    between atoms: C_10  and  C_11
REMARK    5  A    between atoms: C_11  and  C_12
REMARK    6  A    between atoms: C_17  and  C_18
REMARK                            x       y       z     vdW  Elec       q    Type
REMARK                         _______ _______ _______ _____ _____    ______ ____
ROOT
ATOM      1  N   UNL     1      43.900   2.737  10.777  0.00  0.00    +0.000 N 
ATOM      2  H   UNL     1      43.046   3.290  10.722  0.00  0.00    +0.000 HD
ENDROOT
BRANCH   1   7
ATOM      3  C   UNL     1      46.266   2.074   7.980  0.00  0.00    +0.000 A 
ATOM      4  C   UNL     1      46.399   3.344   7.412  0.00  0.00    +0.000 A 
ATOM      5  C   UNL     1      45.729   4.425   7.977  0.00  0.00    +0.000 A 
ATOM      6  C   UNL     1      44.905   4.231   9.090  0.00  0.00    +0.000 A 
ATOM      7  C   UNL     1      44.701   2.959   9.640  0.00  0.00    +0.000 A 
ATOM      8  C   UNL     1      45.428   1.889   9.094  0.00  0.00    +0.000 A 
BRANCH   3  10
ATOM      9  N   UNL     1      47.856   1.126   6.400  0.00  0.00    +0.000 N 
ATOM     10  C   UNL     1      46.955   0.893   7.405  0.00  0.00    +0.000 C 
ATOM     11  O   UNL     1      46.754  -0.239   7.821  0.00  0.00    +0.000 OA
ATOM     12  H   UNL     1      48.382   0.322   6.074  0.00  0.00    +0.000 HD
ATOM     13  H   UNL     1      48.232   2.043   6.211  0.00  0.00    +0.000 HD
ENDBRANCH   3  10
ENDBRANCH   1   7
BRANCH   1  14
ATOM     14  C   UNL     1      44.557   2.862  12.082  0.00  0.00    +0.000 C 
BRANCH  14  15
ATOM     15  C   UNL     1      43.942   4.008  12.892  0.00  0.00    +0.000 C 
BRANCH  15  16
ATOM     16  C   UNL     1      44.595   5.339  12.595  0.00  0.00    +0.000 A 
ATOM     17  C   UNL     1      43.888   6.260  11.816  0.00  0.00    +0.000 A 
ATOM     18  N   UNL     1      44.355   7.468  11.437  0.00  0.00    +0.000 NA
ATOM     19  C   UNL     1      45.594   7.797  11.844  0.00  0.00    +0.000 A 
ATOM     20  C   UNL     1      46.369   6.980  12.647  0.00  0.00    +0.000 A 
ATOM     21  C   UNL     1      45.868   5.728  13.053  0.00  0.00    +0.000 A 
BRANCH  21  22
ATOM     22  C   UNL     1      46.756   4.903  13.956  0.00  0.00    +0.000 C 
ATOM     23  F   UNL     1      46.166   4.455  15.095  0.00  0.00    +0.000 F 
ATOM     24  F   UNL     1      47.241   3.796  13.328  0.00  0.00    +0.000 F 
ATOM     25  F   UNL     1      47.851   5.603  14.368  0.00  0.00    +0.000 F 
ENDBRANCH  21  22
ENDBRANCH  15  16
ENDBRANCH  14  15
ENDBRANCH   1  14
TORSDOF 6
ENDMDL
MODEL 3
REMARK VINA RESULT:    -7.309      1.768      2.355
REMARK INTER + INTRA:         -10.680
REMARK INTER:                  -9.961
REMARK INTRA:                  -0.718
REMARK UNBOUND:                -0.806
REMARK  Name = 
REMARK  6 active torsions:
REMARK  status: ('A' for Active; 'I' for Inactive)
REMARK    1  A    between atoms: C_2  and  C_4
REMARK    2  A    between atoms: C_8  and  N_9
REMARK    3  A    between atoms: N_9  and  C_10
REMARK    4  A    between atoms: C_10  and  C_11
REMARK    5  A    between atoms: C_11  and  C_12
REMARK    6  A    between atoms: C_17  and  C_18
REMARK                            x       y       z     vdW  Elec       q    Type
REMARK                         _______ _______ _______ _____ _____    ______ ____
ROOT
ATOM      1  N   UNL     1      43.922   2.657  10.859  0.00  0.00    +0.000 N 
ATOM      2  H   UNL     1      43.043   3.171  10.810  0.00  0.00    +0.000 HD
ENDROOT
BRANCH   1   7
ATOM      3  C   UNL     1      46.253   2.079   8.014  0.00  0.00    +0.000 A 
ATOM      4  C   UNL     1      46.355   3.360   7.464  0.00  0.00    +0.000 A 
ATOM      5  C   UNL     1      45.676   4.420   8.056  0.00  0.00    +0.000 A 
ATOM      6  C   UNL     1      44.873   4.195   9.179  0.00  0.00    +0.000 A 
ATOM      7  C   UNL     1      44.700   2.911   9.712  0.00  0.00    +0.000 A 
ATOM      8  C   UNL     1      45.436   1.862   9.138  0.00  0.00    +0.000 A 
BRANCH   3  10
ATOM      9  N   UNL     1      47.856   1.186   6.416  0.00  0.00    +0.000 N 
ATOM     10  C   UNL     1      46.953   0.919   7.409  0.00  0.00    +0.000 C 
ATOM     11  O   UNL     1      46.757  -0.225   7.792  0.00  0.00    +0.000 OA
ATOM     12  H   UNL     1      48.389   0.395   6.069  0.00  0.00    +0.000 HD
ATOM     13  H   UNL     1      48.227   2.110   6.253  0.00  0.00    +0.000 HD
ENDBRANCH   3  10
ENDBRANCH   1   7
BRANCH   1  14
ATOM     14  C   UNL     1      44.585   2.818  12.157  0.00  0.00    +0.000 C 
BRANCH  14  15
ATOM     15  C   UNL     1      44.249   4.180  12.774  0.00  0.00    +0.000 C 
BRANCH  15  16
ATOM     16  C   UNL     1      45.486   4.975  13.124  0.00  0.00    +0.000 A 
ATOM     17  C   UNL     1      46.434   4.382  13.963  0.00  0.00    +0.000 A 
ATOM     18  N   UNL     1      47.565   4.980  14.392  0.00  0.00    +0.000 NA
ATOM     19  C   UNL     1      47.783   6.240  13.977  0.00  0.00    +0.000 A 
ATOM     20  C   UNL     1      46.932   6.912  13.118  0.00  0.00    +0.000 A 
ATOM     21  C   UNL     1      45.762   6.275  12.660  0.00  0.00    +0.000 A 
BRANCH  21  22
ATOM     22  C   UNL     1      44.897   7.057  11.699  0.00  0.00    +0.000 C 
ATOM     23  F   UNL     1      43.594   6.675  11.651  0.00  0.00    +0.000 F 
ATOM     24  F   UNL     1      44.884   8.388  11.986  0.00  0.00    +0.000 F 
ATOM     25  F   UNL     1      45.348   6.961  10.416  0.00  0.00    +0.000 F 
ENDBRANCH  21  22
ENDBRANCH  15  16
ENDBRANCH  14  15
ENDBRANCH   1  14
TORSDOF 6
ENDMDL
MODEL 4
REMARK VINA RESULT:    -6.756      3.982      7.385
REMARK INTER + INTRA:          -9.932
REMARK INTER:                  -9.117
REMARK INTRA:                  -0.815
REMARK UNBOUND:                -0.806
REMARK  Name = 
REMARK  6 active torsions:
REMARK  status: ('A' for Active; 'I' for Inactive)
REMARK    1  A    between atoms: C_2  and  C_4
REMARK    2  A    between atoms: C_8  and  N_9
REMARK    3  A    between atoms: N_9  and  C_10
REMARK    4  A    between atoms: C_10  and  C_11
REMARK    5  A    between atoms: C_11  and  C_12
REMARK    6  A    between atoms: C_17  and  C_18
REMARK                            x       y       z     vdW  Elec       q    Type
REMARK                         _______ _______ _______ _____ _____    ______ ____
ROOT
ATOM      1  N   UNL     1      47.077   5.273  12.980  0.00  0.00    +0.000 N 
ATOM      2  H   UNL     1      47.723   4.730  12.408  0.00  0.00    +0.000 HD
ENDROOT
BRANCH   1   7
ATOM      3  C   UNL     1      47.706   4.654  16.597  0.00  0.00    +0.000 A 
ATOM      4  C   UNL     1      48.515   5.742  16.936  0.00  0.00    +0.000 A 
ATOM      5  C   UNL     1      48.825   6.697  15.972  0.00  0.00    +0.000 A 
ATOM      6  C   UNL     1      48.351   6.549  14.665  0.00  0.00    +0.000 A 
ATOM      7  C   UNL     1      47.593   5.435  14.280  0.00  0.00    +0.000 A 
ATOM      8  C   UNL     1      47.242   4.510  15.277  0.00  0.00    +0.000 A 
BRANCH   3  10
ATOM      9  N   UNL     1      48.094   3.578  18.745  0.00  0.00    +0.000 N 
ATOM     10  C   UNL     1      47.359   3.609  17.590  0.00  0.00    +0.000 C 
ATOM     11  O   UNL     1      46.443   2.821  17.406  0.00  0.00    +0.000 OA
ATOM     12  H   UNL     1      47.794   2.915  19.451  0.00  0.00    +0.000 HD
ATOM     13  H   UNL     1      48.672   4.351  19.041  0.00  0.00    +0.000 HD
ENDBRANCH   3  10
ENDBRANCH   1   7
BRANCH   1  14
ATOM     14  C   UNL     1      46.618   6.486  12.295  0.00  0.00    +0.000 C 
BRANCH  14  15
ATOM     15  C   UNL     1      45.198   6.299  11.752  0.00  0.00    +0.000 C 
BRANCH  15  16
ATOM     16  C   UNL     1      45.141   5.303  10.616  0.00  0.00    +0.000 A 
ATOM     17  C   UNL     1      45.911   5.558   9.478  0.00  0.00    +0.000 A 
ATOM     18  N   UNL     1      45.934   4.783   8.373  0.00  0.00    +0.000 NA
ATOM     19  C   UNL     1      45.153   3.689   8.380  0.00  0.00    +0.000 A 
ATOM     20  C   UNL     1      44.378   3.319   9.465  0.00  0.00    +0.000 A 
ATOM     21  C   UNL     1      44.373   4.123  10.621  0.00  0.00    +0.000 A 
BRANCH  21  22
ATOM     22  C   UNL     1      43.528   3.641  11.777  0.00  0.00    +0.000 C 
ATOM     23  F   UNL     1      42.945   2.426  11.601  0.00  0.00    +0.000 F 
ATOM     24  F   UNL     1      44.245   3.544  12.932  0.00  0.00    +0.000 F 
ATOM     25  F   UNL     1      42.503   4.497  12.050  0.00  0.00    +0.000 F 
ENDBRANCH  21  22
ENDBRANCH  15  16
ENDBRANCH  14  15
ENDBRANCH   1  14
TORSDOF 6
ENDMDL
MODEL 5
REMARK VINA RESULT:    -6.545      3.977      6.160
REMARK INTER + INTRA:          -9.648
REMARK INTER:                  -9.043
REMARK INTRA:                  -0.604
REMARK UNBOUND:                -0.806
REMARK  Name = 
REMARK  6 active torsions:
REMARK  status: ('A' for Active; 'I' for Inactive)
REMARK    1  A    between atoms: C_2  and  C_4
REMARK    2  A    between atoms: C_8  and  N_9
REMARK    3  A    between atoms: N_9  and  C_10
REMARK    4  A    between atoms: C_10  and  C_11
REMARK    5  A    between atoms: C_11  and  C_12
REMARK    6  A    between atoms: C_17  and  C_18
REMARK                            x       y       z     vdW  Elec       q    Type
REMARK                         _______ _______ _______ _____ _____    ______ ____
ROOT
ATOM      1  N   UNL     1      46.772   3.836  14.485  0.00  0.00    +0.000 N 
ATOM      2  H   UNL     1      46.086   3.116  14.706  0.00  0.00    +0.000 HD
ENDROOT
BRANCH   1   7
ATOM      3  C   UNL     1      44.993   4.711  11.333  0.00  0.00    +0.000 A 
ATOM      4  C   UNL     1      45.545   5.959  11.031  0.00  0.00    +0.000 A 
ATOM      5  C   UNL     1      46.530   6.495  11.856  0.00  0.00    +0.000 A 
ATOM      6  C   UNL     1      46.941   5.797  12.996  0.00  0.00    +0.000 A 
ATOM      7  C   UNL     1      46.359   4.576  13.359  0.00  0.00    +0.000 A 
ATOM      8  C   UNL     1      45.408   4.022  12.487  0.00  0.00    +0.000 A 
BRANCH   3  10
ATOM      9  N   UNL     1      43.902   4.482   9.170  0.00  0.00    +0.000 N 
ATOM     10  C   UNL     1      43.936   4.107  10.487  0.00  0.00    +0.000 C 
ATOM     11  O   UNL     1      43.140   3.291  10.930  0.00  0.00    +0.000 OA
ATOM     12  H   UNL     1      43.230   4.000   8.583  0.00  0.00    +0.000 HD
ATOM     13  H   UNL     1      44.678   4.942   8.717  0.00  0.00    +0.000 HD
ENDBRANCH   3  10
ENDBRANCH   1   7
BRANCH   1  14
ATOM     14  C   UNL     1      47.170   4.603  15.670  0.00  0.00    +0.000 C 
BRANCH  14  15
ATOM     15  C   UNL     1      47.347   3.681  16.880  0.00  0.00    +0.000 C 
BRANCH  15  16
ATOM     16  C   UNL     1      48.784   3.251  17.072  0.00  0.00    +0.000 A 
ATOM     17  C   UNL     1      49.195   2.047  16.494  0.00  0.00    +0.000 A 
ATOM     18  N   UNL     1      50.430   1.517  16.611  0.00  0.00    +0.000 NA
ATOM     19  C   UNL     1      51.322   2.208  17.342  0.00  0.00    +0.000 A 
ATOM     20  C   UNL     1      51.037   3.428  17.929  0.00  0.00    +0.000 A 
ATOM     21  C   UNL     1      49.751   3.983  17.788  0.00  0.00    +0.000 A 
BRANCH  21  22
ATOM     22  C   UNL     1      49.521   5.332  18.428  0.00  0.00    +0.000 C 
ATOM     23  F   UNL     1      49.206   6.335  17.568  0.00  0.00    +0.000 F 
ATOM     24  F   UNL     1      48.516   5.301  19.347  0.00  0.00    +0.000 F 
ATOM     25  F   UNL     1      50.623   5.769  19.103  0.00  0.00    +0.000 F 
ENDBRANCH  21  22
ENDBRANCH  15  16
ENDBRANCH  14  15
ENDBRANCH   1  14
TORSDOF 6
ENDMDL
MODEL 6
REMARK VINA RESULT:    -6.434      2.512      3.374
REMARK INTER + INTRA:          -9.497
REMARK INTER:                  -8.590
REMARK INTRA:                  -0.907
REMARK UNBOUND:                -0.806
REMARK  Name = 
REMARK  6 active torsions:
REMARK  status: ('A' for Active; 'I' for Inactive)
REMARK    1  A    between atoms: C_2  and  C_4
REMARK    2  A    between atoms: C_8  and  N_9
REMARK    3  A    between atoms: N_9  and  C_10
REMARK    4  A    between atoms: C_10  and  C_11
REMARK    5  A    between atoms: C_11  and  C_12
REMARK    6  A    between atoms: C_17  and  C_18
REMARK                            x       y       z     vdW  Elec       q    Type
REMARK                         _______ _______ _______ _____ _____    ______ ____
ROOT
ATOM      1  N   UNL     1      43.783   6.517  10.942  0.00  0.00    +0.000 N 
ATOM      2  H   UNL     1      43.474   6.982  10.090  0.00  0.00    +0.000 HD
ENDROOT
BRANCH   1   7
ATOM      3  C   UNL     1      44.884   3.379   9.267  0.00  0.00    +0.000 A 
ATOM      4  C   UNL     1      44.345   2.402  10.109  0.00  0.00    +0.000 A 
ATOM      5  C   UNL     1      43.590   2.785  11.214  0.00  0.00    +0.000 A 
ATOM      6  C   UNL     1      43.399   4.142  11.492  0.00  0.00    +0.000 A 
ATOM      7  C   UNL     1      43.981   5.142  10.704  0.00  0.00    +0.000 A 
ATOM      8  C   UNL     1      44.692   4.741   9.561  0.00  0.00    +0.000 A 
BRANCH   3  10
ATOM      9  N   UNL     1      46.239   1.756   8.061  0.00  0.00    +0.000 N 
ATOM     10  C   UNL     1      45.701   3.015   8.084  0.00  0.00    +0.000 C 
ATOM     11  O   UNL     1      45.871   3.790   7.154  0.00  0.00    +0.000 OA
ATOM     12  H   UNL     1      46.724   1.491   7.212  0.00  0.00    +0.000 HD
ATOM     13  H   UNL     1      45.918   1.018   8.670  0.00  0.00    +0.000 HD
ENDBRANCH   3  10
ENDBRANCH   1   7
BRANCH   1  14
ATOM     14  C   UNL     1      44.877   7.237  11.601  0.00  0.00    +0.000 C 
BRANCH  14  15
ATOM     15  C   UNL     1      46.214   6.527  11.368  0.00  0.00    +0.000 C 
BRANCH  15  16
ATOM     16  C   UNL     1      47.182   6.731  12.511  0.00  0.00    +0.000 A 
ATOM     17  C   UNL     1      48.027   7.845  12.467  0.00  0.00    +0.000 A 
ATOM     18  N   UNL     1      48.965   8.137  13.391  0.00  0.00    +0.000 NA
ATOM     19  C   UNL     1      49.088   7.286  14.425  0.00  0.00    +0.000 A 
ATOM     20  C   UNL     1      48.283   6.173  14.589  0.00  0.00    +0.000 A 
ATOM     21  C   UNL     1      47.293   5.884  13.629  0.00  0.00    +0.000 A 
BRANCH  21  22
ATOM     22  C   UNL     1      46.430   4.672  13.891  0.00  0.00    +0.000 C 
ATOM     23  F   UNL     1      46.459   3.721  12.921  0.00  0.00    +0.000 F 
ATOM     24  F   UNL     1      46.772   4.036  15.046  0.00  0.00    +0.000 F 
ATOM     25  F   UNL     1      45.114   5.006  14.029  0.00  0.00    +0.000 F 
ENDBRANCH  21  22
ENDBRANCH  15  16
ENDBRANCH  14  15
ENDBRANCH   1  14
TORSDOF 6
ENDMDL
MODEL 7
REMARK VINA RESULT:    -6.336      2.765      4.467
REMARK INTER + INTRA:          -9.365
REMARK INTER:                  -8.018
REMARK INTRA:                  -1.347
REMARK UNBOUND:                -0.806
REMARK  Name = 
REMARK  6 active torsions:
REMARK  status: ('A' for Active; 'I' for Inactive)
REMARK    1  A    between atoms: C_2  and  C_4
REMARK    2  A    between atoms: C_8  and  N_9
REMARK    3  A    between atoms: N_9  and  C_10
REMARK    4  A    between atoms: C_10  and  C_11
REMARK    5  A    between atoms: C_11  and  C_12
REMARK    6  A    between atoms: C_17  and  C_18
REMARK                            x       y       z     vdW  Elec       q    Type
REMARK                         _______ _______ _______ _____ _____    ______ ____
ROOT
ATOM      1  N   UNL     1      42.855   7.225  11.149  0.00  0.00    +0.000 N 
ATOM      2  H   UNL     1      42.211   7.240  10.359  0.00  0.00    +0.000 HD
ENDROOT
BRANCH   1   7
ATOM      3  C   UNL     1      44.124   3.766  10.617  0.00  0.00    +0.000 A 
ATOM      4  C   UNL     1      43.989   3.213  11.893  0.00  0.00    +0.000 A 
ATOM      5  C   UNL     1      43.447   3.978  12.922  0.00  0.00    +0.000 A 
ATOM      6  C   UNL     1      43.069   5.303  12.681  0.00  0.00    +0.000 A 
ATOM      7  C   UNL     1      43.253   5.903  11.429  0.00  0.00    +0.000 A 
ATOM      8  C   UNL     1      43.747   5.101  10.388  0.00  0.00    +0.000 A 
BRANCH   3  10
ATOM      9  N   UNL     1      44.449   1.643   9.471  0.00  0.00    +0.000 N 
ATOM     10  C   UNL     1      44.704   2.988   9.495  0.00  0.00    +0.000 C 
ATOM     11  O   UNL     1      45.361   3.520   8.612  0.00  0.00    +0.000 OA
ATOM     12  H   UNL     1      44.779   1.138   8.656  0.00  0.00    +0.000 HD
ATOM     13  H   UNL     1      43.717   1.220  10.023  0.00  0.00    +0.000 HD
ENDBRANCH   3  10
ENDBRANCH   1   7
BRANCH   1  14
ATOM     14  C   UNL     1      43.922   8.221  11.012  0.00  0.00    +0.000 C 
BRANCH  14  15
ATOM     15  C   UNL     1      44.657   8.417  12.342  0.00  0.00    +0.000 C 
BRANCH  15  16
ATOM     16  C   UNL     1      46.114   8.772  12.149  0.00  0.00    +0.000 A 
ATOM     17  C   UNL     1      46.443  10.113  11.935  0.00  0.00    +0.000 A 
ATOM     18  N   UNL     1      47.690  10.575  11.710  0.00  0.00    +0.000 NA
ATOM     19  C   UNL     1      48.681   9.666  11.691  0.00  0.00    +0.000 A 
ATOM     20  C   UNL     1      48.478   8.319  11.926  0.00  0.00    +0.000 A 
ATOM     21  C   UNL     1      47.175   7.847  12.178  0.00  0.00    +0.000 A 
BRANCH  21  22
ATOM     22  C   UNL     1      47.032   6.369  12.459  0.00  0.00    +0.000 C 
ATOM     23  F   UNL     1      46.210   6.053  13.494  0.00  0.00    +0.000 F 
ATOM     24  F   UNL     1      46.555   5.685  11.383  0.00  0.00    +0.000 F 
ATOM     25  F   UNL     1      48.230   5.791  12.762  0.00  0.00    +0.000 F 
ENDBRANCH  21  22
ENDBRANCH  15  16
ENDBRANCH  14  15
ENDBRANCH   1  14
TORSDOF 6
ENDMDL
MODEL 8
REMARK VINA RESULT:    -6.149      4.159      7.283
REMARK INTER + INTRA:          -9.112
REMARK INTER:                  -8.449
REMARK INTRA:                  -0.663
REMARK UNBOUND:                -0.806
REMARK  Name = 
REMARK  6 active torsions:
REMARK  status: ('A' for Active; 'I' for Inactive)
REMARK    1  A    between atoms: C_2  and  C_4
REMARK    2  A    between atoms: C_8  and  N_9
REMARK    3  A    between atoms: N_9  and  C_10
REMARK    4  A    between atoms: C_10  and  C_11
REMARK    5  A    between atoms: C_11  and  C_12
REMARK    6  A    between atoms: C_17  and  C_18
REMARK                            x       y       z     vdW  Elec       q    Type
REMARK                         _______ _______ _______ _____ _____    ______ ____
ROOT
ATOM      1  N   UNL     1      47.351   6.876  11.738  0.00  0.00    +0.000 N 
ATOM      2  H   UNL     1      46.990   7.764  11.393  0.00  0.00    +0.000 HD
ENDROOT
BRANCH   1   7
ATOM      3  C   UNL     1      49.146   6.802  14.999  0.00  0.00    +0.000 A 
ATOM      4  C   UNL     1      50.277   7.574  14.719  0.00  0.00    +0.000 A 
ATOM      5  C   UNL     1      50.428   8.144  13.459  0.00  0.00    +0.000 A 
ATOM      6  C   UNL     1      49.464   7.919  12.471  0.00  0.00    +0.000 A 
ATOM      7  C   UNL     1      48.353   7.097  12.702  0.00  0.00    +0.000 A 
ATOM      8  C   UNL     1      48.186   6.576  13.996  0.00  0.00    +0.000 A 
BRANCH   3  10
ATOM      9  N   UNL     1      48.100   6.798  17.197  0.00  0.00    +0.000 N 
ATOM     10  C   UNL     1      48.950   6.170  16.326  0.00  0.00    +0.000 C 
ATOM     11  O   UNL     1      49.499   5.120  16.629  0.00  0.00    +0.000 OA
ATOM     12  H   UNL     1      47.909   6.313  18.066  0.00  0.00    +0.000 HD
ATOM     13  H   UNL     1      47.445   7.506  16.899  0.00  0.00    +0.000 HD
ENDBRANCH   3  10
ENDBRANCH   1   7
BRANCH   1  14
ATOM     14  C   UNL     1      46.277   5.946  12.102  0.00  0.00    +0.000 C 
BRANCH  14  15
ATOM     15  C   UNL     1      45.111   6.048  11.113  0.00  0.00    +0.000 C 
BRANCH  15  16
ATOM     16  C   UNL     1      45.107   4.919  10.108  0.00  0.00    +0.000 A 
ATOM     17  C   UNL     1      45.794   5.106   8.905  0.00  0.00    +0.000 A 
ATOM     18  N   UNL     1      45.847   4.207   7.900  0.00  0.00    +0.000 NA
ATOM     19  C   UNL     1      45.185   3.051   8.082  0.00  0.00    +0.000 A 
ATOM     20  C   UNL     1      44.503   2.744   9.245  0.00  0.00    +0.000 A 
ATOM     21  C   UNL     1      44.467   3.680  10.296  0.00  0.00    +0.000 A 
BRANCH  21  22
ATOM     22  C   UNL     1      43.731   3.263  11.549  0.00  0.00    +0.000 C 
ATOM     23  F   UNL     1      44.505   3.132  12.658  0.00  0.00    +0.000 F 
ATOM     24  F   UNL     1      42.747   4.144  11.884  0.00  0.00    +0.000 F 
ATOM     25  F   UNL     1      43.111   2.058  11.397  0.00  0.00    +0.000 F 
ENDBRANCH  21  22
ENDBRANCH  15  16
ENDBRANCH  14  15
ENDBRANCH   1  14
TORSDOF 6
ENDMDL
MODEL 9
REMARK VINA RESULT:    -6.123      4.272      7.486
REMARK INTER + INTRA:          -9.077
REMARK INTER:                  -8.462
REMARK INTRA:                  -0.615
REMARK UNBOUND:                -0.806
REMARK  Name = 
REMARK  6 active torsions:
REMARK  status: ('A' for Active; 'I' for Inactive)
REMARK    1  A    between atoms: C_2  and  C_4
REMARK    2  A    between atoms: C_8  and  N_9
REMARK    3  A    between atoms: N_9  and  C_10
REMARK    4  A    between atoms: C_10  and  C_11
REMARK    5  A    between atoms: C_11  and  C_12
REMARK    6  A    between atoms: C_17  and  C_18
REMARK                            x       y       z     vdW  Elec       q    Type
REMARK                         _______ _______ _______ _____ _____    ______ ____
ROOT
ATOM      1  N   UNL     1      46.548   4.229  15.684  0.00  0.00    +0.000 N 
ATOM      2  H   UNL     1      45.705   3.730  15.965  0.00  0.00    +0.000 HD
ENDROOT
BRANCH   1   7
ATOM      3  C   UNL     1      49.534   3.157  17.632  0.00  0.00    +0.000 A 
ATOM      4  C   UNL     1      49.433   3.958  18.773  0.00  0.00    +0.000 A 
ATOM      5  C   UNL     1      48.357   4.829  18.910  0.00  0.00    +0.000 A 
ATOM      6  C   UNL     1      47.400   4.921  17.895  0.00  0.00    +0.000 A 
ATOM      7  C   UNL     1      47.511   4.180  16.711  0.00  0.00    +0.000 A 
ATOM      8  C   UNL     1      48.571   3.264  16.613  0.00  0.00    +0.000 A 
BRANCH   3  10
ATOM      9  N   UNL     1      51.778   2.421  18.220  0.00  0.00    +0.000 N 
ATOM     10  C   UNL     1      50.669   2.222  17.442  0.00  0.00    +0.000 C 
ATOM     11  O   UNL     1      50.616   1.295  16.646  0.00  0.00    +0.000 OA
ATOM     12  H   UNL     1      52.512   1.726  18.141  0.00  0.00    +0.000 HD
ATOM     13  H   UNL     1      51.764   2.998  19.047  0.00  0.00    +0.000 HD
ENDBRANCH   3  10
ENDBRANCH   1   7
BRANCH   1  14
ATOM     14  C   UNL     1      46.995   3.847  14.341  0.00  0.00    +0.000 C 
BRANCH  14  15
ATOM     15  C   UNL     1      46.789   4.999  13.351  0.00  0.00    +0.000 C 
BRANCH  15  16
ATOM     16  C   UNL     1      45.517   4.848  12.549  0.00  0.00    +0.000 A 
ATOM     17  C   UNL     1      44.963   3.570  12.425  0.00  0.00    +0.000 A 
ATOM     18  N   UNL     1      43.857   3.274  11.711  0.00  0.00    +0.000 NA
ATOM     19  C   UNL     1      43.252   4.293  11.075  0.00  0.00    +0.000 A 
ATOM     20  C   UNL     1      43.690   5.603  11.157  0.00  0.00    +0.000 A 
ATOM     21  C   UNL     1      44.836   5.906  11.918  0.00  0.00    +0.000 A 
BRANCH  21  22
ATOM     22  C   UNL     1      45.236   7.361  11.988  0.00  0.00    +0.000 C 
ATOM     23  F   UNL     1      45.232   7.903  13.234  0.00  0.00    +0.000 F 
ATOM     24  F   UNL     1      46.487   7.575  11.494  0.00  0.00    +0.000 F 
ATOM     25  F   UNL     1      44.408   8.153  11.248  0.00  0.00    +0.000 F 
ENDBRANCH  21  22
ENDBRANCH  15  16
ENDBRANCH  14  15
ENDBRANCH   1  14
TORSDOF 6
ENDMDL
