MODEL 1
REMARK VINA RESULT:    -7.636      0.000      0.000
REMARK INTER + INTRA:         -10.383
REMARK INTER:                  -9.868
REMARK INTRA:                  -0.515
REMARK UNBOUND:                -0.515
REMARK  Name = 
REMARK  5 active torsions:
REMARK  status: ('A' for Active; 'I' for Inactive)
REMARK    1  A    between atoms: C_2  and  C_4
REMARK    2  A    between atoms: C_9  and  N_10
REMARK    3  A    between atoms: N_10  and  C_11
REMARK    4  A    between atoms: C_11  and  C_12
REMARK    5  A    between atoms: C_16  and  C_17
REMARK                            x       y       z     vdW  Elec       q    Type
REMARK                         _______ _______ _______ _____ _____    ______ ____
ROOT
ATOM      1  N   UNL     1      45.043   5.416   9.538  0.00  0.00    +0.000 N 
ATOM      2  H   UNL     1      45.759   6.091   9.278  0.00  0.00    +0.000 HD
ENDROOT
BRANCH   1   8
ATOM      3  C   UNL     1      46.479   2.763   7.396  0.00  0.00    +0.000 A 
ATOM      4  C   UNL     1      45.953   1.592   7.926  0.00  0.00    +0.000 A 
ATOM      5  C   UNL     1      45.110   1.663   9.025  0.00  0.00    +0.000 A 
ATOM      6  C   UNL     1      44.794   2.899   9.614  0.00  0.00    +0.000 A 
ATOM      7 CL   UNL     1      43.671   2.769  10.926  0.00  0.00    +0.000 Cl
ATOM      8  C   UNL     1      45.348   4.106   9.127  0.00  0.00    +0.000 A 
ATOM      9  C   UNL     1      46.193   4.001   7.997  0.00  0.00    +0.000 A 
BRANCH   3  11
ATOM     10  N   UNL     1      48.668   2.505   6.392  0.00  0.00    +0.000 N 
ATOM     11  C   UNL     1      47.338   2.730   6.180  0.00  0.00    +0.000 C 
ATOM     12  O   UNL     1      46.874   2.856   5.061  0.00  0.00    +0.000 OA
ATOM     13  H   UNL     1      49.240   2.371   5.565  0.00  0.00    +0.000 HD
ATOM     14  H   UNL     1      49.028   2.144   7.264  0.00  0.00    +0.000 HD
ENDBRANCH   3  11
ENDBRANCH   1   8
BRANCH   1  15
ATOM     15  C   UNL     1      44.520   5.686  10.867  0.00  0.00    +0.000 C 
BRANCH  15  16
ATOM     16  C   UNL     1      45.640   5.772  11.878  0.00  0.00    +0.000 A 
ATOM     17  C   UNL     1      45.784   4.773  12.848  0.00  0.00    +0.000 A 
ATOM     18  C   UNL     1      46.844   4.815  13.741  0.00  0.00    +0.000 A 
ATOM     19  C   UNL     1      47.789   5.835  13.644  0.00  0.00    +0.000 A 
ATOM     20  C   UNL     1      47.722   6.800  12.631  0.00  0.00    +0.000 A 
ATOM     21  C   UNL     1      46.591   6.797  11.799  0.00  0.00    +0.000 A 
BRANCH  20  22
ATOM     22  C   UNL     1      48.847   7.791  12.349  0.00  0.00    +0.000 C 
ATOM     23  C   UNL     1      49.622   8.151  13.636  0.00  0.00    +0.000 C 
ATOM     24  C   UNL     1      48.826   9.083  14.550  0.00  0.00    +0.000 C 
ATOM     25  N   UNL     1      48.386  10.303  13.877  0.00  0.00    +0.000 NA
ATOM     26  C   UNL     1      47.685  10.057  12.620  0.00  0.00    +0.000 C 
ATOM     27  C   UNL     1      48.428   9.109  11.673  0.00  0.00    +0.000 C 
ATOM     28  H   UNL     1      49.188  10.901  13.699  0.00  0.00    +0.000 HD
ENDBRANCH  20  22
ENDBRANCH  15  16
ENDBRANCH   1  15
TORSDOF 5
ENDMDL
MODEL 2
REMARK VINA RESULT:    -7.230      4.944      8.310
REMARK INTER + INTRA:          -9.859
REMARK INTER:                  -9.622
REMARK INTRA:                  -0.237
REMARK UNBOUND:                -0.515
REMARK  Name = 
REMARK  5 active torsions:
REMARK  status: ('A' for Active; 'I' for Inactive)
REMARK    1  A    between atoms: C_2  and  C_4
REMARK    2  A    between atoms: C_9  and  N_10
REMARK    3  A    between atoms: N_10  and  C_11
REMARK    4  A    between atoms: C_11  and  C_12
REMARK    5  A    between atoms: C_16  and  C_17
REMARK                            x       y       z     vdW  Elec       q    Type
REMARK                         _______ _______ _______ _____ _____    ______ ____
ROOT
ATOM      1  N   UNL     1      47.087   5.017  16.157  0.00  0.00    +0.000 N 
ATOM      2  H   UNL     1      46.187   5.107  16.624  0.00  0.00    +0.000 HD
ENDROOT
BRANCH   1   8
ATOM      3  C   UNL     1      50.071   3.439  17.670  0.00  0.00    +0.000 A 
ATOM      4  C   UNL     1      50.281   4.176  18.828  0.00  0.00    +0.000 A 
ATOM      5  C   UNL     1      49.432   5.233  19.125  0.00  0.00    +0.000 A 
ATOM      6  C   UNL     1      48.373   5.570  18.264  0.00  0.00    +0.000 A 
ATOM      7 CL   UNL     1      47.393   6.869  18.857  0.00  0.00    +0.000 Cl
ATOM      8  C   UNL     1      48.158   4.868  17.055  0.00  0.00    +0.000 A 
ATOM      9  C   UNL     1      49.034   3.789  16.789  0.00  0.00    +0.000 A 
BRANCH   3  11
ATOM     10  N   UNL     1      52.038   2.101  18.128  0.00  0.00    +0.000 N 
ATOM     11  C   UNL     1      50.926   2.262  17.352  0.00  0.00    +0.000 C 
ATOM     12  O   UNL     1      50.629   1.469  16.475  0.00  0.00    +0.000 OA
ATOM     13  H   UNL     1      52.563   1.245  17.990  0.00  0.00    +0.000 HD
ATOM     14  H   UNL     1      52.163   2.582  19.007  0.00  0.00    +0.000 HD
ENDBRANCH   3  11
ENDBRANCH   1   8
BRANCH   1  15
ATOM     15  C   UNL     1      46.982   4.194  14.963  0.00  0.00    +0.000 C 
BRANCH  15  16
ATOM     16  C   UNL     1      46.683   5.044  13.750  0.00  0.00    +0.000 A 
ATOM     17  C   UNL     1      47.661   5.909  13.244  0.00  0.00    +0.000 A 
ATOM     18  C   UNL     1      47.412   6.648  12.098  0.00  0.00    +0.000 A 
ATOM     19  C   UNL     1      46.199   6.497  11.427  0.00  0.00    +0.000 A 
ATOM     20  C   UNL     1      45.235   5.577  11.859  0.00  0.00    +0.000 A 
ATOM     21  C   UNL     1      45.464   4.911  13.073  0.00  0.00    +0.000 A 
BRANCH  20  22
ATOM     22  C   UNL     1      44.002   5.216  11.036  0.00  0.00    +0.000 C 
ATOM     23  C   UNL     1      43.002   4.369  11.854  0.00  0.00    +0.000 C 
ATOM     24  C   UNL     1      43.482   2.931  12.047  0.00  0.00    +0.000 C 
ATOM     25  N   UNL     1      43.786   2.258  10.787  0.00  0.00    +0.000 NA
ATOM     26  C   UNL     1      44.691   3.014   9.924  0.00  0.00    +0.000 C 
ATOM     27  C   UNL     1      44.269   4.473   9.715  0.00  0.00    +0.000 C 
ATOM     28  H   UNL     1      42.924   2.072  10.282  0.00  0.00    +0.000 HD
ENDBRANCH  20  22
ENDBRANCH  15  16
ENDBRANCH   1  15
TORSDOF 5
ENDMDL
MODEL 3
REMARK VINA RESULT:    -6.871      4.258      7.690
REMARK INTER + INTRA:          -9.395
REMARK INTER:                  -8.586
REMARK INTRA:                  -0.809
REMARK UNBOUND:                -0.515
REMARK  Name = 
REMARK  5 active torsions:
REMARK  status: ('A' for Active; 'I' for Inactive)
REMARK    1  A    between atoms: C_2  and  C_4
REMARK    2  A    between atoms: C_9  and  N_10
REMARK    3  A    between atoms: N_10  and  C_11
REMARK    4  A    between atoms: C_11  and  C_12
REMARK    5  A    between atoms: C_16  and  C_17
REMARK                            x       y       z     vdW  Elec       q    Type
REMARK                         _______ _______ _______ _____ _____    ______ ____
ROOT
ATOM      1  N   UNL     1      49.095   7.759  14.250  0.00  0.00    +0.000 N 
ATOM      2  H   UNL     1      48.803   8.734  14.262  0.00  0.00    +0.000 HD
ENDROOT
BRANCH   1   8
ATOM      3  C   UNL     1      48.065   5.017  16.510  0.00  0.00    +0.000 A 
ATOM      4  C   UNL     1      48.117   5.593  17.771  0.00  0.00    +0.000 A 
ATOM      5  C   UNL     1      48.512   6.917  17.898  0.00  0.00    +0.000 A 
ATOM      6  C   UNL     1      48.869   7.674  16.769  0.00  0.00    +0.000 A 
ATOM      7 CL   UNL     1      49.259   9.320  17.140  0.00  0.00    +0.000 Cl
ATOM      8  C   UNL     1      48.870   7.104  15.474  0.00  0.00    +0.000 A 
ATOM      9  C   UNL     1      48.450   5.756  15.378  0.00  0.00    +0.000 A 
BRANCH   3  11
ATOM     10  N   UNL     1      46.959   3.057  17.406  0.00  0.00    +0.000 N 
ATOM     11  C   UNL     1      47.589   3.617  16.331  0.00  0.00    +0.000 C 
ATOM     12  O   UNL     1      47.719   3.022  15.276  0.00  0.00    +0.000 OA
ATOM     13  H   UNL     1      46.536   2.147  17.256  0.00  0.00    +0.000 HD
ATOM     14  H   UNL     1      46.614   3.603  18.182  0.00  0.00    +0.000 HD
ENDBRANCH   3  11
ENDBRANCH   1   8
BRANCH   1  15
ATOM     15  C   UNL     1      48.767   7.125  12.984  0.00  0.00    +0.000 C 
BRANCH  15  16
ATOM     16  C   UNL     1      47.344   7.433  12.582  0.00  0.00    +0.000 A 
ATOM     17  C   UNL     1      46.900   8.761  12.546  0.00  0.00    +0.000 A 
ATOM     18  C   UNL     1      45.613   9.055  12.123  0.00  0.00    +0.000 A 
ATOM     19  C   UNL     1      44.774   8.027  11.695  0.00  0.00    +0.000 A 
ATOM     20  C   UNL     1      45.217   6.699  11.637  0.00  0.00    +0.000 A 
ATOM     21  C   UNL     1      46.487   6.409  12.160  0.00  0.00    +0.000 A 
BRANCH  20  22
ATOM     22  C   UNL     1      44.419   5.584  10.967  0.00  0.00    +0.000 C 
ATOM     23  C   UNL     1      42.974   5.515  11.510  0.00  0.00    +0.000 C 
ATOM     24  C   UNL     1      42.911   4.922  12.917  0.00  0.00    +0.000 C 
ATOM     25  N   UNL     1      43.539   3.606  13.010  0.00  0.00    +0.000 NA
ATOM     26  C   UNL     1      44.896   3.567  12.472  0.00  0.00    +0.000 C 
ATOM     27  C   UNL     1      45.022   4.172  11.069  0.00  0.00    +0.000 C 
ATOM     28  H   UNL     1      42.968   2.921  12.522  0.00  0.00    +0.000 HD
ENDBRANCH  20  22
ENDBRANCH  15  16
ENDBRANCH   1  15
TORSDOF 5
ENDMDL
MODEL 4
REMARK VINA RESULT:    -6.832      4.190      5.857
REMARK INTER + INTRA:          -9.345
REMARK INTER:                  -8.488
REMARK INTRA:                  -0.857
REMARK UNBOUND:                -0.515
REMARK  Name = 
REMARK  5 active torsions:
REMARK  status: ('A' for Active; 'I' for Inactive)
REMARK    1  A    between atoms: C_2  and  C_4
REMARK    2  A    between atoms: C_9  and  N_10
REMARK    3  A    between atoms: N_10  and  C_11
REMARK    4  A    between atoms: C_11  and  C_12
REMARK    5  A    between atoms: C_16  and  C_17
REMARK                            x       y       z     vdW  Elec       q    Type
REMARK                         _______ _______ _______ _____ _____    ______ ____
ROOT
ATOM      1  N   UNL     1      46.973   3.529  14.472  0.00  0.00    +0.000 N 
ATOM      2  H   UNL     1      46.739   2.555  14.294  0.00  0.00    +0.000 HD
ENDROOT
BRANCH   1   8
ATOM      3  C   UNL     1      44.959   4.580  11.553  0.00  0.00    +0.000 A 
ATOM      4  C   UNL     1      45.430   5.854  11.269  0.00  0.00    +0.000 A 
ATOM      5  C   UNL     1      46.432   6.400  12.059  0.00  0.00    +0.000 A 
ATOM      6  C   UNL     1      46.962   5.684  13.147  0.00  0.00    +0.000 A 
ATOM      7 CL   UNL     1      48.249   6.515  13.954  0.00  0.00    +0.000 Cl
ATOM      8  C   UNL     1      46.472   4.402  13.490  0.00  0.00    +0.000 A 
ATOM      9  C   UNL     1      45.461   3.869  12.656  0.00  0.00    +0.000 A 
BRANCH   3  11
ATOM     10  N   UNL     1      43.877   4.373   9.394  0.00  0.00    +0.000 N 
ATOM     11  C   UNL     1      43.928   3.940  10.689  0.00  0.00    +0.000 C 
ATOM     12  O   UNL     1      43.201   3.054  11.103  0.00  0.00    +0.000 OA
ATOM     13  H   UNL     1      43.256   3.867   8.774  0.00  0.00    +0.000 HD
ATOM     14  H   UNL     1      44.624   4.903   8.967  0.00  0.00    +0.000 HD
ENDBRANCH   3  11
ENDBRANCH   1   8
BRANCH   1  15
ATOM     15  C   UNL     1      46.870   3.847  15.887  0.00  0.00    +0.000 C 
BRANCH  15  16
ATOM     16  C   UNL     1      48.199   3.651  16.579  0.00  0.00    +0.000 A 
ATOM     17  C   UNL     1      48.841   2.408  16.518  0.00  0.00    +0.000 A 
ATOM     18  C   UNL     1      50.087   2.238  17.102  0.00  0.00    +0.000 A 
ATOM     19  C   UNL     1      50.718   3.320  17.715  0.00  0.00    +0.000 A 
ATOM     20  C   UNL     1      50.140   4.596  17.717  0.00  0.00    +0.000 A 
ATOM     21  C   UNL     1      48.838   4.726  17.208  0.00  0.00    +0.000 A 
BRANCH  20  22
ATOM     22  C   UNL     1      50.887   5.847  18.171  0.00  0.00    +0.000 C 
ATOM     23  C   UNL     1      50.592   7.050  17.248  0.00  0.00    +0.000 C 
ATOM     24  C   UNL     1      51.299   6.933  15.898  0.00  0.00    +0.000 C 
ATOM     25  N   UNL     1      52.743   6.747  16.024  0.00  0.00    +0.000 NA
ATOM     26  C   UNL     1      53.115   5.657  16.921  0.00  0.00    +0.000 C 
ATOM     27  C   UNL     1      52.416   5.712  18.285  0.00  0.00    +0.000 C 
ATOM     28  H   UNL     1      53.169   7.609  16.354  0.00  0.00    +0.000 HD
ENDBRANCH  20  22
ENDBRANCH  15  16
ENDBRANCH   1  15
TORSDOF 5
ENDMDL
MODEL 5
REMARK VINA RESULT:    -6.787      4.471      6.095
REMARK INTER + INTRA:          -9.287
REMARK INTER:                  -8.728
REMARK INTRA:                  -0.558
REMARK UNBOUND:                -0.515
REMARK  Name = 
REMARK  5 active torsions:
REMARK  status: ('A' for Active; 'I' for Inactive)
REMARK    1  A    between atoms: C_2  and  C_4
REMARK    2  A    between atoms: C_9  and  N_10
REMARK    3  A    between atoms: N_10  and  C_11
REMARK    4  A    between atoms: C_11  and  C_12
REMARK    5  A    between atoms: C_16  and  C_17
REMARK                            x       y       z     vdW  Elec       q    Type
REMARK                         _______ _______ _______ _____ _____    ______ ____
ROOT
ATOM      1  N   UNL     1      46.258   4.611  14.724  0.00  0.00    +0.000 N 
ATOM      2  H   UNL     1      46.196   5.303  15.468  0.00  0.00    +0.000 HD
ENDROOT
BRANCH   1   8
ATOM      3  C   UNL     1      44.941   4.906  11.279  0.00  0.00    +0.000 A 
ATOM      4  C   UNL     1      45.705   5.921  10.721  0.00  0.00    +0.000 A 
ATOM      5  C   UNL     1      46.677   6.542  11.492  0.00  0.00    +0.000 A 
ATOM      6  C   UNL     1      46.887   6.165  12.830  0.00  0.00    +0.000 A 
ATOM      7 CL   UNL     1      48.192   7.014  13.587  0.00  0.00    +0.000 Cl
ATOM      8  C   UNL     1      46.095   5.166  13.443  0.00  0.00    +0.000 A 
ATOM      9  C   UNL     1      45.122   4.543  12.625  0.00  0.00    +0.000 A 
BRANCH   3  11
ATOM     10  N   UNL     1      43.939   4.442   9.123  0.00  0.00    +0.000 N 
ATOM     11  C   UNL     1      43.932   4.176  10.463  0.00  0.00    +0.000 C 
ATOM     12  O   UNL     1      43.171   3.362  10.957  0.00  0.00    +0.000 OA
ATOM     13  H   UNL     1      43.331   3.869   8.548  0.00  0.00    +0.000 HD
ATOM     14  H   UNL     1      44.711   4.902   8.663  0.00  0.00    +0.000 HD
ENDBRANCH   3  11
ENDBRANCH   1   8
BRANCH   1  15
ATOM     15  C   UNL     1      47.300   3.634  14.997  0.00  0.00    +0.000 C 
BRANCH  15  16
ATOM     16  C   UNL     1      47.749   3.717  16.437  0.00  0.00    +0.000 A 
ATOM     17  C   UNL     1      48.771   2.880  16.899  0.00  0.00    +0.000 A 
ATOM     18  C   UNL     1      49.227   2.992  18.204  0.00  0.00    +0.000 A 
ATOM     19  C   UNL     1      48.691   3.967  19.043  0.00  0.00    +0.000 A 
ATOM     20  C   UNL     1      47.728   4.876  18.585  0.00  0.00    +0.000 A 
ATOM     21  C   UNL     1      47.211   4.686  17.294  0.00  0.00    +0.000 A 
BRANCH  20  22
ATOM     22  C   UNL     1      47.283   6.093  19.391  0.00  0.00    +0.000 C 
ATOM     23  C   UNL     1      47.665   7.412  18.683  0.00  0.00    +0.000 C 
ATOM     24  C   UNL     1      49.161   7.708  18.777  0.00  0.00    +0.000 C 
ATOM     25  N   UNL     1      49.656   7.722  20.152  0.00  0.00    +0.000 NA
ATOM     26  C   UNL     1      49.296   6.529  20.913  0.00  0.00    +0.000 C 
ATOM     27  C   UNL     1      47.807   6.171  20.835  0.00  0.00    +0.000 C 
ATOM     28  H   UNL     1      49.300   8.543  20.633  0.00  0.00    +0.000 HD
ENDBRANCH  20  22
ENDBRANCH  15  16
ENDBRANCH   1  15
TORSDOF 5
ENDMDL
MODEL 6
REMARK VINA RESULT:    -6.688      2.240      3.509
REMARK INTER + INTRA:          -9.159
REMARK INTER:                  -8.464
REMARK INTRA:                  -0.695
REMARK UNBOUND:                -0.515
REMARK  Name = 
REMARK  5 active torsions:
REMARK  status: ('A' for Active; 'I' for Inactive)
REMARK    1  A    between atoms: C_2  and  C_4
REMARK    2  A    between atoms: C_9  and  N_10
REMARK    3  A    between atoms: N_10  and  C_11
REMARK    4  A    between atoms: C_11  and  C_12
REMARK    5  A    between atoms: C_16  and  C_17
REMARK                            x       y       z     vdW  Elec       q    Type
REMARK                         _______ _______ _______ _____ _____    ______ ____
ROOT
ATOM      1  N   UNL     1      44.886   6.889  11.223  0.00  0.00    +0.000 N 
ATOM      2  H   UNL     1      45.247   7.431  10.440  0.00  0.00    +0.000 HD
ENDROOT
BRANCH   1   8
ATOM      3  C   UNL     1      45.170   3.773   9.250  0.00  0.00    +0.000 A 
ATOM      4  C   UNL     1      44.302   2.899   9.889  0.00  0.00    +0.000 A 
ATOM      5  C   UNL     1      43.604   3.330  11.008  0.00  0.00    +0.000 A 
ATOM      6  C   UNL     1      43.777   4.633  11.507  0.00  0.00    +0.000 A 
ATOM      7 CL   UNL     1      42.762   4.990  12.863  0.00  0.00    +0.000 Cl
ATOM      8  C   UNL     1      44.688   5.534  10.907  0.00  0.00    +0.000 A 
ATOM      9  C   UNL     1      45.373   5.067   9.760  0.00  0.00    +0.000 A 
BRANCH   3  11
ATOM     10  N   UNL     1      46.232   2.043   7.927  0.00  0.00    +0.000 N 
ATOM     11  C   UNL     1      45.888   3.363   8.011  0.00  0.00    +0.000 C 
ATOM     12  O   UNL     1      46.119   4.150   7.110  0.00  0.00    +0.000 OA
ATOM     13  H   UNL     1      46.621   1.736   7.042  0.00  0.00    +0.000 HD
ATOM     14  H   UNL     1      45.830   1.336   8.525  0.00  0.00    +0.000 HD
ENDBRANCH   3  11
ENDBRANCH   1   8
BRANCH   1  15
ATOM     15  C   UNL     1      45.508   7.289  12.474  0.00  0.00    +0.000 C 
BRANCH  15  16
ATOM     16  C   UNL     1      46.804   8.022  12.218  0.00  0.00    +0.000 A 
ATOM     17  C   UNL     1      47.936   7.314  11.795  0.00  0.00    +0.000 A 
ATOM     18  C   UNL     1      49.111   7.988  11.503  0.00  0.00    +0.000 A 
ATOM     19  C   UNL     1      49.152   9.379  11.594  0.00  0.00    +0.000 A 
ATOM     20  C   UNL     1      48.014  10.122  11.931  0.00  0.00    +0.000 A 
ATOM     21  C   UNL     1      46.863   9.418  12.316  0.00  0.00    +0.000 A 
BRANCH  20  22
ATOM     22  C   UNL     1      47.951  11.643  11.821  0.00  0.00    +0.000 C 
ATOM     23  C   UNL     1      46.509  12.135  11.568  0.00  0.00    +0.000 C 
ATOM     24  C   UNL     1      46.045  11.861  10.138  0.00  0.00    +0.000 C 
ATOM     25  N   UNL     1      46.943  12.419   9.130  0.00  0.00    +0.000 NA
ATOM     26  C   UNL     1      48.341  12.045   9.321  0.00  0.00    +0.000 C 
ATOM     27  C   UNL     1      48.854  12.277  10.748  0.00  0.00    +0.000 C 
ATOM     28  H   UNL     1      46.867  13.433   9.131  0.00  0.00    +0.000 HD
ENDBRANCH  20  22
ENDBRANCH  15  16
ENDBRANCH   1  15
TORSDOF 5
ENDMDL
MODEL 7
REMARK VINA RESULT:    -6.509      3.654      7.317
REMARK INTER + INTRA:          -8.927
REMARK INTER:                  -8.020
REMARK INTRA:                  -0.906
REMARK UNBOUND:                -0.515
REMARK  Name = 
REMARK  5 active torsions:
REMARK  status: ('A' for Active; 'I' for Inactive)
REMARK    1  A    between atoms: C_2  and  C_4
REMARK    2  A    between atoms: C_9  and  N_10
REMARK    3  A    between atoms: N_10  and  C_11
REMARK    4  A    between atoms: C_11  and  C_12
REMARK    5  A    between atoms: C_16  and  C_17
REMARK                            x       y       z     vdW  Elec       q    Type
REMARK                         _______ _______ _______ _____ _____    ______ ____
ROOT
ATOM      1  N   UNL     1      46.502   8.528  13.118  0.00  0.00    +0.000 N 
ATOM      2  H   UNL     1      46.740   8.835  14.059  0.00  0.00    +0.000 HD
ENDROOT
BRANCH   1   8
ATOM      3  C   UNL     1      44.146  10.286  10.872  0.00  0.00    +0.000 A 
ATOM      4  C   UNL     1      44.859  11.401  10.454  0.00  0.00    +0.000 A 
ATOM      5  C   UNL     1      46.149  11.598  10.926  0.00  0.00    +0.000 A 
ATOM      6  C   UNL     1      46.734  10.692  11.828  0.00  0.00    +0.000 A 
ATOM      7 CL   UNL     1      48.371  11.085  12.233  0.00  0.00    +0.000 Cl
ATOM      8  C   UNL     1      46.018   9.570  12.308  0.00  0.00    +0.000 A 
ATOM      9  C   UNL     1      44.711   9.391  11.797  0.00  0.00    +0.000 A 
BRANCH   3  11
ATOM     10  N   UNL     1      42.038   9.102  11.036  0.00  0.00    +0.000 N 
ATOM     11  C   UNL     1      42.783  10.011  10.339  0.00  0.00    +0.000 C 
ATOM     12  O   UNL     1      42.345  10.591   9.361  0.00  0.00    +0.000 OA
ATOM     13  H   UNL     1      41.073   8.993  10.745  0.00  0.00    +0.000 HD
ATOM     14  H   UNL     1      42.273   8.811  11.975  0.00  0.00    +0.000 HD
ENDBRANCH   3  11
ENDBRANCH   1   8
BRANCH   1  15
ATOM     15  C   UNL     1      47.471   7.569  12.614  0.00  0.00    +0.000 C 
BRANCH  15  16
ATOM     16  C   UNL     1      46.932   6.161  12.712  0.00  0.00    +0.000 A 
ATOM     17  C   UNL     1      47.483   5.264  13.636  0.00  0.00    +0.000 A 
ATOM     18  C   UNL     1      46.955   3.989  13.770  0.00  0.00    +0.000 A 
ATOM     19  C   UNL     1      45.847   3.615  13.012  0.00  0.00    +0.000 A 
ATOM     20  C   UNL     1      45.220   4.517  12.142  0.00  0.00    +0.000 A 
ATOM     21  C   UNL     1      45.826   5.768  11.948  0.00  0.00    +0.000 A 
BRANCH  20  22
ATOM     22  C   UNL     1      43.881   4.229  11.468  0.00  0.00    +0.000 C 
ATOM     23  C   UNL     1      43.704   2.722  11.179  0.00  0.00    +0.000 C 
ATOM     24  C   UNL     1      44.567   2.251  10.009  0.00  0.00    +0.000 C 
ATOM     25  N   UNL     1      44.342   3.020   8.788  0.00  0.00    +0.000 NA
ATOM     26  C   UNL     1      44.442   4.464   8.980  0.00  0.00    +0.000 C 
ATOM     27  C   UNL     1      43.612   4.990  10.157  0.00  0.00    +0.000 C 
ATOM     28  H   UNL     1      43.425   2.797   8.410  0.00  0.00    +0.000 HD
ENDBRANCH  20  22
ENDBRANCH  15  16
ENDBRANCH   1  15
TORSDOF 5
ENDMDL
MODEL 8
REMARK VINA RESULT:    -6.435      4.620      6.246
REMARK INTER + INTRA:          -8.832
REMARK INTER:                  -8.066
REMARK INTRA:                  -0.766
REMARK UNBOUND:                -0.515
REMARK  Name = 
REMARK  5 active torsions:
REMARK  status: ('A' for Active; 'I' for Inactive)
REMARK    1  A    between atoms: C_2  and  C_4
REMARK    2  A    between atoms: C_9  and  N_10
REMARK    3  A    between atoms: N_10  and  C_11
REMARK    4  A    between atoms: C_11  and  C_12
REMARK    5  A    between atoms: C_16  and  C_17
REMARK                            x       y       z     vdW  Elec       q    Type
REMARK                         _______ _______ _______ _____ _____    ______ ____
ROOT
ATOM      1  N   UNL     1      47.023   3.707  14.599  0.00  0.00    +0.000 N 
ATOM      2  H   UNL     1      46.714   2.751  14.434  0.00  0.00    +0.000 HD
ENDROOT
BRANCH   1   8
ATOM      3  C   UNL     1      45.032   4.883  11.711  0.00  0.00    +0.000 A 
ATOM      4  C   UNL     1      45.594   6.115  11.405  0.00  0.00    +0.000 A 
ATOM      5  C   UNL     1      46.651   6.589  12.169  0.00  0.00    +0.000 A 
ATOM      6  C   UNL     1      47.149   5.844  13.252  0.00  0.00    +0.000 A 
ATOM      7 CL   UNL     1      48.512   6.581  14.024  0.00  0.00    +0.000 Cl
ATOM      8  C   UNL     1      46.570   4.607  13.619  0.00  0.00    +0.000 A 
ATOM      9  C   UNL     1      45.503   4.146  12.812  0.00  0.00    +0.000 A 
BRANCH   3  11
ATOM     10  N   UNL     1      43.001   3.574  11.538  0.00  0.00    +0.000 N 
ATOM     11  C   UNL     1      43.937   4.317  10.876  0.00  0.00    +0.000 C 
ATOM     12  O   UNL     1      43.861   4.536   9.680  0.00  0.00    +0.000 OA
ATOM     13  H   UNL     1      42.196   3.279  10.997  0.00  0.00    +0.000 HD
ATOM     14  H   UNL     1      42.899   3.596  12.543  0.00  0.00    +0.000 HD
ENDBRANCH   3  11
ENDBRANCH   1   8
BRANCH   1  15
ATOM     15  C   UNL     1      46.971   4.041  16.013  0.00  0.00    +0.000 C 
BRANCH  15  16
ATOM     16  C   UNL     1      48.297   3.758  16.680  0.00  0.00    +0.000 A 
ATOM     17  C   UNL     1      48.797   2.451  16.713  0.00  0.00    +0.000 A 
ATOM     18  C   UNL     1      50.040   2.194  17.272  0.00  0.00    +0.000 A 
ATOM     19  C   UNL     1      50.808   3.247  17.766  0.00  0.00    +0.000 A 
ATOM     20  C   UNL     1      50.373   4.575  17.670  0.00  0.00    +0.000 A 
ATOM     21  C   UNL     1      49.074   4.806  17.190  0.00  0.00    +0.000 A 
BRANCH  20  22
ATOM     22  C   UNL     1      51.269   5.769  17.986  0.00  0.00    +0.000 C 
ATOM     23  C   UNL     1      52.201   5.478  19.184  0.00  0.00    +0.000 C 
ATOM     24  C   UNL     1      51.454   5.492  20.517  0.00  0.00    +0.000 C 
ATOM     25  N   UNL     1      50.723   6.735  20.749  0.00  0.00    +0.000 NA
ATOM     26  C   UNL     1      49.850   7.115  19.641  0.00  0.00    +0.000 C 
ATOM     27  C   UNL     1      50.543   7.096  18.273  0.00  0.00    +0.000 C 
ATOM     28  H   UNL     1      51.381   7.489  20.927  0.00  0.00    +0.000 HD
ENDBRANCH  20  22
ENDBRANCH  15  16
ENDBRANCH   1  15
TORSDOF 5
ENDMDL
MODEL 9
REMARK VINA RESULT:    -6.258      3.946      6.102
REMARK INTER + INTRA:          -8.603
REMARK INTER:                  -7.783
REMARK INTRA:                  -0.820
REMARK UNBOUND:                -0.515
REMARK  Name = 
REMARK  5 active torsions:
REMARK  status: ('A' for Active; 'I' for Inactive)
REMARK    1  A    between atoms: C_2  and  C_4
REMARK    2  A    between atoms: C_9  and  N_10
REMARK    3  A    between atoms: N_10  and  C_11
REMARK    4  A    between atoms: C_11  and  C_12
REMARK    5  A    between atoms: C_16  and  C_17
REMARK                            x       y       z     vdW  Elec       q    Type
REMARK                         _______ _______ _______ _____ _____    ______ ____
ROOT
ATOM      1  N   UNL     1      47.771   7.116  12.811  0.00  0.00    +0.000 N 
ATOM      2  H   UNL     1      48.378   6.299  12.796  0.00  0.00    +0.000 HD
ENDROOT
BRANCH   1   8
ATOM      3  C   UNL     1      44.845   4.991  12.033  0.00  0.00    +0.000 A 
ATOM      4  C   UNL     1      43.890   5.895  11.590  0.00  0.00    +0.000 A 
ATOM      5  C   UNL     1      44.200   7.247  11.552  0.00  0.00    +0.000 A 
ATOM      6  C   UNL     1      45.462   7.709  11.966  0.00  0.00    +0.000 A 
ATOM      7 CL   UNL     1      45.666   9.417  11.770  0.00  0.00    +0.000 Cl
ATOM      8  C   UNL     1      46.441   6.819  12.466  0.00  0.00    +0.000 A 
ATOM      9  C   UNL     1      46.097   5.447  12.479  0.00  0.00    +0.000 A 
BRANCH   3  11
ATOM     10  N   UNL     1      45.057   2.826  10.966  0.00  0.00    +0.000 N 
ATOM     11  C   UNL     1      44.566   3.528  12.031  0.00  0.00    +0.000 C 
ATOM     12  O   UNL     1      43.971   2.984  12.944  0.00  0.00    +0.000 OA
ATOM     13  H   UNL     1      44.968   1.817  11.012  0.00  0.00    +0.000 HD
ATOM     14  H   UNL     1      45.761   3.199  10.346  0.00  0.00    +0.000 HD
ENDBRANCH   3  11
ENDBRANCH   1   8
BRANCH   1  15
ATOM     15  C   UNL     1      48.083   7.984  13.935  0.00  0.00    +0.000 C 
BRANCH  15  16
ATOM     16  C   UNL     1      48.999   7.286  14.913  0.00  0.00    +0.000 A 
ATOM     17  C   UNL     1      50.267   7.816  15.182  0.00  0.00    +0.000 A 
ATOM     18  C   UNL     1      51.089   7.213  16.122  0.00  0.00    +0.000 A 
ATOM     19  C   UNL     1      50.634   6.099  16.827  0.00  0.00    +0.000 A 
ATOM     20  C   UNL     1      49.339   5.598  16.642  0.00  0.00    +0.000 A 
ATOM     21  C   UNL     1      48.559   6.160  15.621  0.00  0.00    +0.000 A 
BRANCH  20  22
ATOM     22  C   UNL     1      48.723   4.534  17.546  0.00  0.00    +0.000 C 
ATOM     23  C   UNL     1      49.790   3.548  18.072  0.00  0.00    +0.000 C 
ATOM     24  C   UNL     1      50.263   2.575  16.992  0.00  0.00    +0.000 C 
ATOM     25  N   UNL     1      49.167   1.834  16.372  0.00  0.00    +0.000 NA
ATOM     26  C   UNL     1      48.085   2.688  15.888  0.00  0.00    +0.000 C 
ATOM     27  C   UNL     1      47.587   3.702  16.924  0.00  0.00    +0.000 C 
ATOM     28  H   UNL     1      48.789   1.164  17.036  0.00  0.00    +0.000 HD
ENDBRANCH  20  22
ENDBRANCH  15  16
ENDBRANCH   1  15
TORSDOF 5
ENDMDL
