MODEL 1
REMARK VINA RESULT:    -6.731      0.000      0.000
REMARK INTER + INTRA:         -10.183
REMARK INTER:                  -9.092
REMARK INTRA:                  -1.091
REMARK UNBOUND:                -1.091
REMARK  Name = 
REMARK  7 active torsions:
REMARK  status: ('A' for Active; 'I' for Inactive)
REMARK    1  A    between atoms: C_1  and  O_2
REMARK    2  A    between atoms: O_2  and  C_3
REMARK    3  A    between atoms: C_5  and  C_6
REMARK    4  A    between atoms: C_10  and  N_11
REMARK    5  A    between atoms: N_11  and  C_12
REMARK    6  A    between atoms: C_12  and  C_13
REMARK    7  A    between atoms: C_17  and  C_18
REMARK                            x       y       z     vdW  Elec       q    Type
REMARK                         _______ _______ _______ _____ _____    ______ ____
ROOT
ATOM      1  C   UNL     1      46.359   7.293  12.324  0.00  0.00    +0.000 C 
ATOM      2  C   UNL     1      46.451   8.732  11.843  0.00  0.00    +0.000 C 
ATOM      3  C   UNL     1      45.788   8.432  13.148  0.00  0.00    +0.000 C 
ENDROOT
BRANCH   1   4
ATOM      4  C   UNL     1      45.358   6.333  11.687  0.00  0.00    +0.000 A 
ATOM      5  C   UNL     1      43.973   6.467  11.833  0.00  0.00    +0.000 A 
ATOM      6  C   UNL     1      43.097   5.644  11.125  0.00  0.00    +0.000 A 
ATOM      7  C   UNL     1      43.591   4.692  10.226  0.00  0.00    +0.000 A 
ATOM      8  C   UNL     1      44.970   4.510  10.045  0.00  0.00    +0.000 A 
ATOM      9  C   UNL     1      45.818   5.310  10.833  0.00  0.00    +0.000 A 
BRANCH   8  10
ATOM     10  C   UNL     1      45.525   3.589   9.022  0.00  0.00    +0.000 A 
ATOM     11  C   UNL     1      46.164   4.032   7.855  0.00  0.00    +0.000 A 
ATOM     12  C   UNL     1      46.727   3.119   6.958  0.00  0.00    +0.000 A 
ATOM     13  C   UNL     1      46.625   1.769   7.237  0.00  0.00    +0.000 A 
ATOM     14  N   UNL     1      46.013   1.282   8.332  0.00  0.00    +0.000 NA
ATOM     15  C   UNL     1      45.490   2.198   9.187  0.00  0.00    +0.000 A 
ENDBRANCH   8  10
ENDBRANCH   1   4
BRANCH   1  16
ATOM     16  N   UNL     1      47.658   6.662  12.658  0.00  0.00    +0.000 N 
ATOM     17  H   UNL     1      48.000   6.003  11.962  0.00  0.00    +0.000 HD
BRANCH  16  23
ATOM     18  C   UNL     1      48.682   6.840  14.860  0.00  0.00    +0.000 A 
ATOM     19  C   UNL     1      48.822   6.359  16.164  0.00  0.00    +0.000 A 
ATOM     20  C   UNL     1      48.199   5.164  16.523  0.00  0.00    +0.000 A 
ATOM     21  C   UNL     1      47.465   4.495  15.563  0.00  0.00    +0.000 A 
ATOM     22  N   UNL     1      47.299   4.939  14.295  0.00  0.00    +0.000 NA
ATOM     23  C   UNL     1      47.896   6.103  13.940  0.00  0.00    +0.000 A 
BRANCH  18  25
ATOM     24  C   UNL     1      48.868   9.212  15.025  0.00  0.00    +0.000 C 
ATOM     25  O   UNL     1      49.260   7.998  14.391  0.00  0.00    +0.000 OA
ENDBRANCH  18  25
BRANCH  20  26
ATOM     26  C   UNL     1      48.303   4.654  17.852  0.00  0.00    +0.000 C 
ATOM     27  N   UNL     1      48.367   4.243  18.939  0.00  0.00    +0.000 NA
ENDBRANCH  20  26
ENDBRANCH  16  23
ENDBRANCH   1  16
TORSDOF 6
ENDMDL
MODEL 2
REMARK VINA RESULT:    -6.253      2.471      7.323
REMARK INTER + INTRA:          -9.537
REMARK INTER:                  -9.519
REMARK INTRA:                  -0.018
REMARK UNBOUND:                -1.091
REMARK  Name = 
REMARK  7 active torsions:
REMARK  status: ('A' for Active; 'I' for Inactive)
REMARK    1  A    between atoms: C_1  and  O_2
REMARK    2  A    between atoms: O_2  and  C_3
REMARK    3  A    between atoms: C_5  and  C_6
REMARK    4  A    between atoms: C_10  and  N_11
REMARK    5  A    between atoms: N_11  and  C_12
REMARK    6  A    between atoms: C_12  and  C_13
REMARK    7  A    between atoms: C_17  and  C_18
REMARK                            x       y       z     vdW  Elec       q    Type
REMARK                         _______ _______ _______ _____ _____    ______ ____
ROOT
ATOM      1  C   UNL     1      43.716   5.680  11.331  0.00  0.00    +0.000 C 
ATOM      2  C   UNL     1      42.768   5.140  12.390  0.00  0.00    +0.000 C 
ATOM      3  C   UNL     1      42.680   6.576  11.986  0.00  0.00    +0.000 C 
ENDROOT
BRANCH   1   4
ATOM      4  C   UNL     1      45.178   5.949  11.676  0.00  0.00    +0.000 A 
ATOM      5  C   UNL     1      45.981   6.839  10.954  0.00  0.00    +0.000 A 
ATOM      6  C   UNL     1      47.271   7.149  11.387  0.00  0.00    +0.000 A 
ATOM      7  C   UNL     1      47.769   6.602  12.575  0.00  0.00    +0.000 A 
ATOM      8  C   UNL     1      47.010   5.699  13.334  0.00  0.00    +0.000 A 
ATOM      9  C   UNL     1      45.744   5.358  12.823  0.00  0.00    +0.000 A 
BRANCH   8  10
ATOM     10  C   UNL     1      47.464   5.189  14.652  0.00  0.00    +0.000 A 
ATOM     11  C   UNL     1      47.016   3.981  15.204  0.00  0.00    +0.000 A 
ATOM     12  C   UNL     1      47.528   3.516  16.419  0.00  0.00    +0.000 A 
ATOM     13  C   UNL     1      48.475   4.282  17.074  0.00  0.00    +0.000 A 
ATOM     14  N   UNL     1      48.935   5.455  16.602  0.00  0.00    +0.000 NA
ATOM     15  C   UNL     1      48.425   5.868  15.413  0.00  0.00    +0.000 A 
ENDBRANCH   8  10
ENDBRANCH   1   4
BRANCH   1  16
ATOM     16  N   UNL     1      43.518   5.121   9.972  0.00  0.00    +0.000 N 
ATOM     17  H   UNL     1      42.596   4.725   9.808  0.00  0.00    +0.000 HD
BRANCH  16  23
ATOM     18  C   UNL     1      44.403   2.869   9.698  0.00  0.00    +0.000 A 
ATOM     19  C   UNL     1      45.261   1.986   9.039  0.00  0.00    +0.000 A 
ATOM     20  C   UNL     1      46.171   2.484   8.107  0.00  0.00    +0.000 A 
ATOM     21  C   UNL     1      46.191   3.845   7.875  0.00  0.00    +0.000 A 
ATOM     22  N   UNL     1      45.367   4.726   8.487  0.00  0.00    +0.000 NA
ATOM     23  C   UNL     1      44.475   4.250   9.389  0.00  0.00    +0.000 A 
BRANCH  18  25
ATOM     24  C   UNL     1      43.977   2.164  11.936  0.00  0.00    +0.000 C 
ATOM     25  O   UNL     1      43.476   2.494  10.644  0.00  0.00    +0.000 OA
ENDBRANCH  18  25
BRANCH  20  26
ATOM     26  C   UNL     1      47.047   1.607   7.398  0.00  0.00    +0.000 C 
ATOM     27  N   UNL     1      47.768   0.885   6.839  0.00  0.00    +0.000 NA
ENDBRANCH  20  26
ENDBRANCH  16  23
ENDBRANCH   1  16
TORSDOF 6
ENDMDL
MODEL 3
REMARK VINA RESULT:    -6.194      1.512      2.158
REMARK INTER + INTRA:          -9.457
REMARK INTER:                  -8.502
REMARK INTRA:                  -0.956
REMARK UNBOUND:                -1.091
REMARK  Name = 
REMARK  7 active torsions:
REMARK  status: ('A' for Active; 'I' for Inactive)
REMARK    1  A    between atoms: C_1  and  O_2
REMARK    2  A    between atoms: O_2  and  C_3
REMARK    3  A    between atoms: C_5  and  C_6
REMARK    4  A    between atoms: C_10  and  N_11
REMARK    5  A    between atoms: N_11  and  C_12
REMARK    6  A    between atoms: C_12  and  C_13
REMARK    7  A    between atoms: C_17  and  C_18
REMARK                            x       y       z     vdW  Elec       q    Type
REMARK                         _______ _______ _______ _____ _____    ______ ____
ROOT
ATOM      1  C   UNL     1      45.821   7.750  12.064  0.00  0.00    +0.000 C 
ATOM      2  C   UNL     1      45.521   9.105  11.443  0.00  0.00    +0.000 C 
ATOM      3  C   UNL     1      45.078   8.821  12.841  0.00  0.00    +0.000 C 
ENDROOT
BRANCH   1   4
ATOM      4  C   UNL     1      45.020   6.520  11.645  0.00  0.00    +0.000 A 
ATOM      5  C   UNL     1      43.691   6.310  12.027  0.00  0.00    +0.000 A 
ATOM      6  C   UNL     1      42.961   5.238  11.513  0.00  0.00    +0.000 A 
ATOM      7  C   UNL     1      43.538   4.374  10.575  0.00  0.00    +0.000 A 
ATOM      8  C   UNL     1      44.870   4.533  10.163  0.00  0.00    +0.000 A 
ATOM      9  C   UNL     1      45.591   5.583  10.761  0.00  0.00    +0.000 A 
BRANCH   8  10
ATOM     10  C   UNL     1      45.476   3.705   9.092  0.00  0.00    +0.000 A 
ATOM     11  C   UNL     1      46.146   4.247   7.986  0.00  0.00    +0.000 A 
ATOM     12  C   UNL     1      46.757   3.417   7.041  0.00  0.00    +0.000 A 
ATOM     13  C   UNL     1      46.672   2.048   7.211  0.00  0.00    +0.000 A 
ATOM     14  N   UNL     1      46.033   1.467   8.243  0.00  0.00    +0.000 NA
ATOM     15  C   UNL     1      45.464   2.304   9.148  0.00  0.00    +0.000 A 
ENDBRANCH   8  10
ENDBRANCH   1   4
BRANCH   1  16
ATOM     16  N   UNL     1      47.259   7.474  12.294  0.00  0.00    +0.000 N 
ATOM     17  H   UNL     1      47.598   6.614  11.869  0.00  0.00    +0.000 HD
BRANCH  16  23
ATOM     18  C   UNL     1      48.109   6.372  14.292  0.00  0.00    +0.000 A 
ATOM     19  C   UNL     1      48.779   6.449  15.515  0.00  0.00    +0.000 A 
ATOM     20  C   UNL     1      49.141   7.698  16.020  0.00  0.00    +0.000 A 
ATOM     21  C   UNL     1      48.815   8.821  15.284  0.00  0.00    +0.000 A 
ATOM     22  N   UNL     1      48.178   8.780  14.090  0.00  0.00    +0.000 NA
ATOM     23  C   UNL     1      47.828   7.571  13.590  0.00  0.00    +0.000 A 
BRANCH  18  25
ATOM     24  C   UNL     1      46.623   4.508  14.344  0.00  0.00    +0.000 C 
ATOM     25  O   UNL     1      47.693   5.199  13.705  0.00  0.00    +0.000 OA
ENDBRANCH  18  25
BRANCH  20  26
ATOM     26  C   UNL     1      49.846   7.813  17.256  0.00  0.00    +0.000 C 
ATOM     27  N   UNL     1      50.417   7.885  18.267  0.00  0.00    +0.000 NA
ENDBRANCH  20  26
ENDBRANCH  16  23
ENDBRANCH   1  16
TORSDOF 6
ENDMDL
MODEL 4
REMARK VINA RESULT:    -6.081      2.140      3.197
REMARK INTER + INTRA:          -9.306
REMARK INTER:                  -8.279
REMARK INTRA:                  -1.026
REMARK UNBOUND:                -1.091
REMARK  Name = 
REMARK  7 active torsions:
REMARK  status: ('A' for Active; 'I' for Inactive)
REMARK    1  A    between atoms: C_1  and  O_2
REMARK    2  A    between atoms: O_2  and  C_3
REMARK    3  A    between atoms: C_5  and  C_6
REMARK    4  A    between atoms: C_10  and  N_11
REMARK    5  A    between atoms: N_11  and  C_12
REMARK    6  A    between atoms: C_12  and  C_13
REMARK    7  A    between atoms: C_17  and  C_18
REMARK                            x       y       z     vdW  Elec       q    Type
REMARK                         _______ _______ _______ _____ _____    ______ ____
ROOT
ATOM      1  C   UNL     1      49.071   7.822  12.602  0.00  0.00    +0.000 C 
ATOM      2  C   UNL     1      49.992   8.014  11.408  0.00  0.00    +0.000 C 
ATOM      3  C   UNL     1      49.696   9.173  12.303  0.00  0.00    +0.000 C 
ENDROOT
BRANCH   1   4
ATOM      4  C   UNL     1      47.564   7.698  12.396  0.00  0.00    +0.000 A 
ATOM      5  C   UNL     1      46.669   8.739  12.668  0.00  0.00    +0.000 A 
ATOM      6  C   UNL     1      45.317   8.622  12.341  0.00  0.00    +0.000 A 
ATOM      7  C   UNL     1      44.841   7.473  11.699  0.00  0.00    +0.000 A 
ATOM      8  C   UNL     1      45.693   6.397  11.409  0.00  0.00    +0.000 A 
ATOM      9  C   UNL     1      47.032   6.526  11.822  0.00  0.00    +0.000 A 
BRANCH   8  10
ATOM     10  C   UNL     1      45.246   5.214  10.632  0.00  0.00    +0.000 A 
ATOM     11  C   UNL     1      45.537   5.031   9.273  0.00  0.00    +0.000 A 
ATOM     12  C   UNL     1      45.147   3.864   8.609  0.00  0.00    +0.000 A 
ATOM     13  C   UNL     1      44.452   2.901   9.316  0.00  0.00    +0.000 A 
ATOM     14  N   UNL     1      44.131   3.025  10.617  0.00  0.00    +0.000 NA
ATOM     15  C   UNL     1      44.538   4.164  11.233  0.00  0.00    +0.000 A 
ENDBRANCH   8  10
ENDBRANCH   1   4
BRANCH   1  16
ATOM     16  N   UNL     1      49.602   6.934  13.663  0.00  0.00    +0.000 N 
ATOM     17  H   UNL     1      49.459   5.941  13.495  0.00  0.00    +0.000 HD
BRANCH  16  23
ATOM     18  C   UNL     1      48.598   6.217  15.763  0.00  0.00    +0.000 A 
ATOM     19  C   UNL     1      48.431   6.394  17.138  0.00  0.00    +0.000 A 
ATOM     20  C   UNL     1      48.979   7.518  17.756  0.00  0.00    +0.000 A 
ATOM     21  C   UNL     1      49.668   8.424  16.972  0.00  0.00    +0.000 A 
ATOM     22  N   UNL     1      49.858   8.277  15.640  0.00  0.00    +0.000 NA
ATOM     23  C   UNL     1      49.334   7.185  15.034  0.00  0.00    +0.000 A 
BRANCH  18  25
ATOM     24  C   UNL     1      47.330   4.198  15.775  0.00  0.00    +0.000 C 
ATOM     25  O   UNL     1      48.092   5.157  15.047  0.00  0.00    +0.000 OA
ENDBRANCH  18  25
BRANCH  20  26
ATOM     26  C   UNL     1      48.848   7.719  19.163  0.00  0.00    +0.000 C 
ATOM     27  N   UNL     1      48.720   7.890  20.307  0.00  0.00    +0.000 NA
ENDBRANCH  20  26
ENDBRANCH  16  23
ENDBRANCH   1  16
TORSDOF 6
ENDMDL
MODEL 5
REMARK VINA RESULT:    -5.973      1.919      3.542
REMARK INTER + INTRA:          -9.159
REMARK INTER:                  -7.966
REMARK INTRA:                  -1.193
REMARK UNBOUND:                -1.091
REMARK  Name = 
REMARK  7 active torsions:
REMARK  status: ('A' for Active; 'I' for Inactive)
REMARK    1  A    between atoms: C_1  and  O_2
REMARK    2  A    between atoms: O_2  and  C_3
REMARK    3  A    between atoms: C_5  and  C_6
REMARK    4  A    between atoms: C_10  and  N_11
REMARK    5  A    between atoms: N_11  and  C_12
REMARK    6  A    between atoms: C_12  and  C_13
REMARK    7  A    between atoms: C_17  and  C_18
REMARK                            x       y       z     vdW  Elec       q    Type
REMARK                         _______ _______ _______ _____ _____    ______ ____
ROOT
ATOM      1  C   UNL     1      46.260   5.120  13.648  0.00  0.00    +0.000 C 
ATOM      2  C   UNL     1      46.206   4.314  14.936  0.00  0.00    +0.000 C 
ATOM      3  C   UNL     1      47.281   4.035  13.937  0.00  0.00    +0.000 C 
ENDROOT
BRANCH   1   4
ATOM      4  C   UNL     1      45.259   4.844  12.529  0.00  0.00    +0.000 A 
ATOM      5  C   UNL     1      43.965   5.374  12.515  0.00  0.00    +0.000 A 
ATOM      6  C   UNL     1      43.133   5.200  11.408  0.00  0.00    +0.000 A 
ATOM      7  C   UNL     1      43.597   4.522  10.274  0.00  0.00    +0.000 A 
ATOM      8  C   UNL     1      44.883   3.964  10.237  0.00  0.00    +0.000 A 
ATOM      9  C   UNL     1      45.661   4.099  11.402  0.00  0.00    +0.000 A 
BRANCH   8  10
ATOM     10  C   UNL     1      45.444   3.337   9.014  0.00  0.00    +0.000 A 
ATOM     11  C   UNL     1      45.885   4.073   7.905  0.00  0.00    +0.000 A 
ATOM     12  C   UNL     1      46.467   3.432   6.808  0.00  0.00    +0.000 A 
ATOM     13  C   UNL     1      46.584   2.055   6.830  0.00  0.00    +0.000 A 
ATOM     14  N   UNL     1      46.168   1.293   7.858  0.00  0.00    +0.000 NA
ATOM     15  C   UNL     1      45.621   1.950   8.913  0.00  0.00    +0.000 A 
ENDBRANCH   8  10
ENDBRANCH   1   4
BRANCH   1  16
ATOM     16  N   UNL     1      46.575   6.557  13.823  0.00  0.00    +0.000 N 
ATOM     17  H   UNL     1      45.801   7.188  13.629  0.00  0.00    +0.000 HD
BRANCH  16  23
ATOM     18  C   UNL     1      48.826   7.436  14.132  0.00  0.00    +0.000 A 
ATOM     19  C   UNL     1      50.029   7.881  13.581  0.00  0.00    +0.000 A 
ATOM     20  C   UNL     1      50.138   8.021  12.197  0.00  0.00    +0.000 A 
ATOM     21  C   UNL     1      49.037   7.715  11.420  0.00  0.00    +0.000 A 
ATOM     22  N   UNL     1      47.862   7.269  11.921  0.00  0.00    +0.000 NA
ATOM     23  C   UNL     1      47.749   7.125  13.264  0.00  0.00    +0.000 A 
BRANCH  18  25
ATOM     24  C   UNL     1      49.427   6.333  16.159  0.00  0.00    +0.000 C 
ATOM     25  O   UNL     1      48.599   7.273  15.480  0.00  0.00    +0.000 OA
ENDBRANCH  18  25
BRANCH  20  26
ATOM     26  C   UNL     1      51.360   8.452  11.599  0.00  0.00    +0.000 C 
ATOM     27  N   UNL     1      52.356   8.786  11.098  0.00  0.00    +0.000 NA
ENDBRANCH  20  26
ENDBRANCH  16  23
ENDBRANCH   1  16
TORSDOF 6
ENDMDL
MODEL 6
REMARK VINA RESULT:    -5.683      1.617      2.235
REMARK INTER + INTRA:          -8.768
REMARK INTER:                  -7.773
REMARK INTRA:                  -0.995
REMARK UNBOUND:                -1.091
REMARK  Name = 
REMARK  7 active torsions:
REMARK  status: ('A' for Active; 'I' for Inactive)
REMARK    1  A    between atoms: C_1  and  O_2
REMARK    2  A    between atoms: O_2  and  C_3
REMARK    3  A    between atoms: C_5  and  C_6
REMARK    4  A    between atoms: C_10  and  N_11
REMARK    5  A    between atoms: N_11  and  C_12
REMARK    6  A    between atoms: C_12  and  C_13
REMARK    7  A    between atoms: C_17  and  C_18
REMARK                            x       y       z     vdW  Elec       q    Type
REMARK                         _______ _______ _______ _____ _____    ______ ____
ROOT
ATOM      1  C   UNL     1      48.501   8.080  12.400  0.00  0.00    +0.000 C 
ATOM      2  C   UNL     1      49.257   8.978  11.434  0.00  0.00    +0.000 C 
ATOM      3  C   UNL     1      48.820   9.521  12.756  0.00  0.00    +0.000 C 
ENDROOT
BRANCH   1   4
ATOM      4  C   UNL     1      47.035   7.741  12.145  0.00  0.00    +0.000 A 
ATOM      5  C   UNL     1      45.989   8.634  12.403  0.00  0.00    +0.000 A 
ATOM      6  C   UNL     1      44.680   8.327  12.031  0.00  0.00    +0.000 A 
ATOM      7  C   UNL     1      44.397   7.133  11.358  0.00  0.00    +0.000 A 
ATOM      8  C   UNL     1      45.405   6.198  11.080  0.00  0.00    +0.000 A 
ATOM      9  C   UNL     1      46.698   6.514  11.537  0.00  0.00    +0.000 A 
BRANCH   8  10
ATOM     10  C   UNL     1      45.160   4.978  10.273  0.00  0.00    +0.000 A 
ATOM     11  C   UNL     1      45.633   4.813   8.964  0.00  0.00    +0.000 A 
ATOM     12  C   UNL     1      45.429   3.614   8.275  0.00  0.00    +0.000 A 
ATOM     13  C   UNL     1      44.734   2.598   8.905  0.00  0.00    +0.000 A 
ATOM     14  N   UNL     1      44.244   2.701  10.154  0.00  0.00    +0.000 NA
ATOM     15  C   UNL     1      44.473   3.874  10.798  0.00  0.00    +0.000 A 
ENDBRANCH   8  10
ENDBRANCH   1   4
BRANCH   1  16
ATOM     16  N   UNL     1      49.288   6.949  12.946  0.00  0.00    +0.000 N 
ATOM     17  H   UNL     1      49.200   6.080  12.423  0.00  0.00    +0.000 HD
BRANCH  16  23
ATOM     18  C   UNL     1      50.231   7.203  15.177  0.00  0.00    +0.000 A 
ATOM     19  C   UNL     1      50.135   6.994  16.554  0.00  0.00    +0.000 A 
ATOM     20  C   UNL     1      49.092   6.217  17.057  0.00  0.00    +0.000 A 
ATOM     21  C   UNL     1      48.188   5.676  16.163  0.00  0.00    +0.000 A 
ATOM     22  N   UNL     1      48.245   5.870  14.824  0.00  0.00    +0.000 NA
ATOM     23  C   UNL     1      49.252   6.628  14.328  0.00  0.00    +0.000 A 
BRANCH  18  25
ATOM     24  C   UNL     1      51.852   8.943  15.358  0.00  0.00    +0.000 C 
ATOM     25  O   UNL     1      51.222   7.939  14.568  0.00  0.00    +0.000 OA
ENDBRANCH  18  25
BRANCH  20  26
ATOM     26  C   UNL     1      48.950   6.000  18.461  0.00  0.00    +0.000 C 
ATOM     27  N   UNL     1      48.846   5.843  19.609  0.00  0.00    +0.000 NA
ENDBRANCH  20  26
ENDBRANCH  16  23
ENDBRANCH   1  16
TORSDOF 6
ENDMDL
MODEL 7
REMARK VINA RESULT:    -5.638      3.293      6.519
REMARK INTER + INTRA:          -8.707
REMARK INTER:                  -8.404
REMARK INTRA:                  -0.304
REMARK UNBOUND:                -1.091
REMARK  Name = 
REMARK  7 active torsions:
REMARK  status: ('A' for Active; 'I' for Inactive)
REMARK    1  A    between atoms: C_1  and  O_2
REMARK    2  A    between atoms: O_2  and  C_3
REMARK    3  A    between atoms: C_5  and  C_6
REMARK    4  A    between atoms: C_10  and  N_11
REMARK    5  A    between atoms: N_11  and  C_12
REMARK    6  A    between atoms: C_12  and  C_13
REMARK    7  A    between atoms: C_17  and  C_18
REMARK                            x       y       z     vdW  Elec       q    Type
REMARK                         _______ _______ _______ _____ _____    ______ ____
ROOT
ATOM      1  C   UNL     1      47.713   8.255  12.684  0.00  0.00    +0.000 C 
ATOM      2  C   UNL     1      48.579   7.358  11.814  0.00  0.00    +0.000 C 
ATOM      3  C   UNL     1      49.206   8.131  12.928  0.00  0.00    +0.000 C 
ENDROOT
BRANCH   1   4
ATOM      4  C   UNL     1      47.212   9.593  12.145  0.00  0.00    +0.000 A 
ATOM      5  C   UNL     1      48.068  10.595  11.675  0.00  0.00    +0.000 A 
ATOM      6  C   UNL     1      47.557  11.745  11.072  0.00  0.00    +0.000 A 
ATOM      7  C   UNL     1      46.177  11.898  10.894  0.00  0.00    +0.000 A 
ATOM      8  C   UNL     1      45.273  10.928  11.352  0.00  0.00    +0.000 A 
ATOM      9  C   UNL     1      45.826   9.819  12.019  0.00  0.00    +0.000 A 
BRANCH   8  10
ATOM     10  C   UNL     1      43.816  11.006  11.082  0.00  0.00    +0.000 A 
ATOM     11  C   UNL     1      43.115  12.216  10.988  0.00  0.00    +0.000 A 
ATOM     12  C   UNL     1      41.755  12.231  10.665  0.00  0.00    +0.000 A 
ATOM     13  C   UNL     1      41.111  11.026  10.455  0.00  0.00    +0.000 A 
ATOM     14  N   UNL     1      41.726   9.832  10.544  0.00  0.00    +0.000 NA
ATOM     15  C   UNL     1      43.049   9.857  10.846  0.00  0.00    +0.000 A 
ENDBRANCH   8  10
ENDBRANCH   1   4
BRANCH   1  16
ATOM     16  N   UNL     1      46.722   7.543  13.524  0.00  0.00    +0.000 N 
ATOM     17  H   UNL     1      47.045   7.320  14.463  0.00  0.00    +0.000 HD
BRANCH  16  23
ATOM     18  C   UNL     1      46.399   5.130  13.476  0.00  0.00    +0.000 A 
ATOM     19  C   UNL     1      45.634   4.026  13.093  0.00  0.00    +0.000 A 
ATOM     20  C   UNL     1      44.521   4.216  12.274  0.00  0.00    +0.000 A 
ATOM     21  C   UNL     1      44.220   5.501  11.867  0.00  0.00    +0.000 A 
ATOM     22  N   UNL     1      44.933   6.593  12.230  0.00  0.00    +0.000 NA
ATOM     23  C   UNL     1      46.012   6.418  13.030  0.00  0.00    +0.000 A 
BRANCH  18  25
ATOM     24  C   UNL     1      47.362   4.479  15.558  0.00  0.00    +0.000 C 
ATOM     25  O   UNL     1      47.523   5.062  14.269  0.00  0.00    +0.000 OA
ENDBRANCH  18  25
BRANCH  20  26
ATOM     26  C   UNL     1      43.704   3.113  11.882  0.00  0.00    +0.000 C 
ATOM     27  N   UNL     1      43.034   2.210  11.583  0.00  0.00    +0.000 NA
ENDBRANCH  20  26
ENDBRANCH  16  23
ENDBRANCH   1  16
TORSDOF 6
ENDMDL
MODEL 8
REMARK VINA RESULT:    -5.597      2.298      7.446
REMARK INTER + INTRA:          -8.651
REMARK INTER:                  -7.706
REMARK INTRA:                  -0.944
REMARK UNBOUND:                -1.091
REMARK  Name = 
REMARK  7 active torsions:
REMARK  status: ('A' for Active; 'I' for Inactive)
REMARK    1  A    between atoms: C_1  and  O_2
REMARK    2  A    between atoms: O_2  and  C_3
REMARK    3  A    between atoms: C_5  and  C_6
REMARK    4  A    between atoms: C_10  and  N_11
REMARK    5  A    between atoms: N_11  and  C_12
REMARK    6  A    between atoms: C_12  and  C_13
REMARK    7  A    between atoms: C_17  and  C_18
REMARK                            x       y       z     vdW  Elec       q    Type
REMARK                         _______ _______ _______ _____ _____    ______ ____
ROOT
ATOM      1  C   UNL     1      47.860   7.882  13.306  0.00  0.00    +0.000 C 
ATOM      2  C   UNL     1      48.280   8.892  12.251  0.00  0.00    +0.000 C 
ATOM      3  C   UNL     1      48.844   7.509  12.211  0.00  0.00    +0.000 C 
ENDROOT
BRANCH   1   4
ATOM      4  C   UNL     1      48.413   7.980  14.725  0.00  0.00    +0.000 A 
ATOM      5  C   UNL     1      48.081   9.017  15.603  0.00  0.00    +0.000 A 
ATOM      6  C   UNL     1      48.508   8.993  16.932  0.00  0.00    +0.000 A 
ATOM      7  C   UNL     1      49.246   7.908  17.418  0.00  0.00    +0.000 A 
ATOM      8  C   UNL     1      49.613   6.844  16.580  0.00  0.00    +0.000 A 
ATOM      9  C   UNL     1      49.225   6.944  15.231  0.00  0.00    +0.000 A 
BRANCH   8  10
ATOM     10  C   UNL     1      50.298   5.629  17.088  0.00  0.00    +0.000 A 
ATOM     11  C   UNL     1      49.618   4.462  17.462  0.00  0.00    +0.000 A 
ATOM     12  C   UNL     1      50.320   3.325  17.870  0.00  0.00    +0.000 A 
ATOM     13  C   UNL     1      51.701   3.379  17.913  0.00  0.00    +0.000 A 
ATOM     14  N   UNL     1      52.409   4.473  17.580  0.00  0.00    +0.000 NA
ATOM     15  C   UNL     1      51.695   5.554  17.175  0.00  0.00    +0.000 A 
ENDBRANCH   8  10
ENDBRANCH   1   4
BRANCH   1  16
ATOM     16  N   UNL     1      46.436   7.474  13.248  0.00  0.00    +0.000 N 
ATOM     17  H   UNL     1      45.977   7.410  14.154  0.00  0.00    +0.000 HD
BRANCH  16  23
ATOM     18  C   UNL     1      45.953   5.092  13.097  0.00  0.00    +0.000 A 
ATOM     19  C   UNL     1      45.431   4.014  12.378  0.00  0.00    +0.000 A 
ATOM     20  C   UNL     1      45.004   4.210  11.065  0.00  0.00    +0.000 A 
ATOM     21  C   UNL     1      45.119   5.474  10.521  0.00  0.00    +0.000 A 
ATOM     22  N   UNL     1      45.609   6.542  11.193  0.00  0.00    +0.000 NA
ATOM     23  C   UNL     1      46.021   6.362  12.471  0.00  0.00    +0.000 A 
BRANCH  18  25
ATOM     24  C   UNL     1      47.188   3.866  14.726  0.00  0.00    +0.000 C 
ATOM     25  O   UNL     1      46.416   5.015  14.391  0.00  0.00    +0.000 OA
ENDBRANCH  18  25
BRANCH  20  26
ATOM     26  C   UNL     1      44.445   3.135  10.309  0.00  0.00    +0.000 C 
ATOM     27  N   UNL     1      43.997   2.246   9.707  0.00  0.00    +0.000 NA
ENDBRANCH  20  26
ENDBRANCH  16  23
ENDBRANCH   1  16
TORSDOF 6
ENDMDL
MODEL 9
REMARK VINA RESULT:    -5.587      2.798      7.086
REMARK INTER + INTRA:          -8.638
REMARK INTER:                  -7.762
REMARK INTRA:                  -0.876
REMARK UNBOUND:                -1.091
REMARK  Name = 
REMARK  7 active torsions:
REMARK  status: ('A' for Active; 'I' for Inactive)
REMARK    1  A    between atoms: C_1  and  O_2
REMARK    2  A    between atoms: O_2  and  C_3
REMARK    3  A    between atoms: C_5  and  C_6
REMARK    4  A    between atoms: C_10  and  N_11
REMARK    5  A    between atoms: N_11  and  C_12
REMARK    6  A    between atoms: C_12  and  C_13
REMARK    7  A    between atoms: C_17  and  C_18
REMARK                            x       y       z     vdW  Elec       q    Type
REMARK                         _______ _______ _______ _____ _____    ______ ____
ROOT
ATOM      1  C   UNL     1      47.824   8.451  13.168  0.00  0.00    +0.000 C 
ATOM      2  C   UNL     1      48.607   9.353  12.226  0.00  0.00    +0.000 C 
ATOM      3  C   UNL     1      48.718   7.869  12.088  0.00  0.00    +0.000 C 
ENDROOT
BRANCH   1   4
ATOM      4  C   UNL     1      48.282   8.270  14.613  0.00  0.00    +0.000 A 
ATOM      5  C   UNL     1      48.236   9.297  15.562  0.00  0.00    +0.000 A 
ATOM      6  C   UNL     1      48.541   9.048  16.900  0.00  0.00    +0.000 A 
ATOM      7  C   UNL     1      48.864   7.753  17.322  0.00  0.00    +0.000 A 
ATOM      8  C   UNL     1      48.932   6.687  16.413  0.00  0.00    +0.000 A 
ATOM      9  C   UNL     1      48.688   6.998  15.062  0.00  0.00    +0.000 A 
BRANCH   8  10
ATOM     10  C   UNL     1      49.162   5.285  16.843  0.00  0.00    +0.000 A 
ATOM     11  C   UNL     1      48.200   4.274  16.714  0.00  0.00    +0.000 A 
ATOM     12  C   UNL     1      48.495   2.956  17.074  0.00  0.00    +0.000 A 
ATOM     13  C   UNL     1      49.751   2.673  17.578  0.00  0.00    +0.000 A 
ATOM     14  N   UNL     1      50.711   3.602  17.739  0.00  0.00    +0.000 NA
ATOM     15  C   UNL     1      50.394   4.868  17.365  0.00  0.00    +0.000 A 
ENDBRANCH   8  10
ENDBRANCH   1   4
BRANCH   1  16
ATOM     16  N   UNL     1      46.352   8.514  13.013  0.00  0.00    +0.000 N 
ATOM     17  H   UNL     1      45.870   9.021  13.752  0.00  0.00    +0.000 HD
BRANCH  16  23
ATOM     18  C   UNL     1      44.671   7.407  11.641  0.00  0.00    +0.000 A 
ATOM     19  C   UNL     1      44.008   6.238  11.263  0.00  0.00    +0.000 A 
ATOM     20  C   UNL     1      44.259   5.053  11.956  0.00  0.00    +0.000 A 
ATOM     21  C   UNL     1      45.159   5.086  13.003  0.00  0.00    +0.000 A 
ATOM     22  N   UNL     1      45.827   6.199  13.388  0.00  0.00    +0.000 NA
ATOM     23  C   UNL     1      45.594   7.352  12.716  0.00  0.00    +0.000 A 
BRANCH  18  25
ATOM     24  C   UNL     1      43.150   9.056  10.834  0.00  0.00    +0.000 C 
ATOM     25  O   UNL     1      44.494   8.633  11.041  0.00  0.00    +0.000 OA
ENDBRANCH  18  25
BRANCH  20  26
ATOM     26  C   UNL     1      43.616   3.835  11.581  0.00  0.00    +0.000 C 
ATOM     27  N   UNL     1      43.106   2.840  11.259  0.00  0.00    +0.000 NA
ENDBRANCH  20  26
ENDBRANCH  16  23
ENDBRANCH   1  16
TORSDOF 6
ENDMDL
