MODEL 1
REMARK VINA RESULT:    -8.436      0.000      0.000
REMARK INTER + INTRA:         -13.366
REMARK INTER:                 -12.135
REMARK INTRA:                  -1.231
REMARK UNBOUND:                -1.231
REMARK  Name = 
REMARK  10 active torsions:
REMARK  status: ('A' for Active; 'I' for Inactive)
REMARK    1  A    between atoms: C_1  and  C_2
REMARK    2  A    between atoms: C_5  and  C_6
REMARK    3  A    between atoms: C_6  and  O_7
REMARK    4  A    between atoms: O_7  and  C_8
REMARK    5  A    between atoms: C_8  and  C_9
REMARK    6  A    between atoms: C_12  and  C_13
REMARK    7  A    between atoms: C_13  and  N_14
REMARK    8  A    between atoms: C_15  and  C_17
REMARK    9  A    between atoms: C_24  and  O_25
REMARK   10  A    between atoms: C_30  and  C_31
REMARK                            x       y       z     vdW  Elec       q    Type
REMARK                         _______ _______ _______ _____ _____    ______ ____
ROOT
ATOM      1  C   UNL     1      44.634   5.405  12.147  0.00  0.00    +0.000 A 
ATOM      2  C   UNL     1      45.008   4.669  13.281  0.00  0.00    +0.000 A 
ATOM      3  C   UNL     1      46.206   4.944  13.947  0.00  0.00    +0.000 A 
ATOM      4  C   UNL     1      47.051   5.968  13.501  0.00  0.00    +0.000 A 
ATOM      5  C   UNL     1      46.699   6.676  12.344  0.00  0.00    +0.000 A 
ATOM      6  C   UNL     1      45.500   6.400  11.678  0.00  0.00    +0.000 A 
ENDROOT
BRANCH   1   7
ATOM      7  C   UNL     1      43.329   5.118  11.449  0.00  0.00    +0.000 C 
BRANCH   7   8
ATOM      8  O   UNL     1      43.605   4.638  10.136  0.00  0.00    +0.000 OA
BRANCH   8   9
ATOM      9  C   UNL     1      44.045   3.281  10.147  0.00  0.00    +0.000 C 
BRANCH   9  14
ATOM     10  C   UNL     1      47.941   2.329   5.901  0.00  0.00    +0.000 C 
ATOM     11  C   UNL     1      46.955   2.553   7.014  0.00  0.00    +0.000 A 
ATOM     12  C   UNL     1      46.523   3.855   7.297  0.00  0.00    +0.000 A 
ATOM     13  C   UNL     1      45.588   4.097   8.305  0.00  0.00    +0.000 A 
ATOM     14  C   UNL     1      45.049   3.040   9.047  0.00  0.00    +0.000 A 
ATOM     15  C   UNL     1      45.505   1.740   8.785  0.00  0.00    +0.000 A 
ATOM     16  C   UNL     1      46.448   1.481   7.775  0.00  0.00    +0.000 A 
ATOM     17  C   UNL     1      46.891   0.065   7.526  0.00  0.00    +0.000 C 
ENDBRANCH   9  14
ENDBRANCH   8   9
ENDBRANCH   7   8
ENDBRANCH   1   7
BRANCH   4  18
ATOM     18  C   UNL     1      48.333   6.286  14.231  0.00  0.00    +0.000 C 
BRANCH  18  19
ATOM     19  N   UNL     1      48.070   6.603  15.610  0.00  0.00    +0.000 N 
ATOM     20  C   UNL     1      48.801   6.051  16.632  0.00  0.00    +0.000 C 
ATOM     21  O   UNL     1      49.621   5.157  16.447  0.00  0.00    +0.000 OA
ATOM     22  H   UNL     1      47.543   7.449  15.787  0.00  0.00    +0.000 HD
BRANCH  20  23
ATOM     23  C   UNL     1      48.523   6.579  17.973  0.00  0.00    +0.000 A 
ATOM     24  C   UNL     1      48.213   7.922  18.141  0.00  0.00    +0.000 A 
ATOM     25  S   UNL     1      47.947   8.355  19.769  0.00  0.00    +0.000 S 
ATOM     26  C   UNL     1      48.193   6.755  20.289  0.00  0.00    +0.000 A 
ATOM     27  N   UNL     1      48.086   6.440  21.592  0.00  0.00    +0.000 NA
ATOM     28  C   UNL     1      48.295   5.143  21.831  0.00  0.00    +0.000 A 
ATOM     29  N   UNL     1      48.591   4.188  20.939  0.00  0.00    +0.000 NA
ATOM     30  C   UNL     1      48.683   4.570  19.664  0.00  0.00    +0.000 A 
ATOM     31  C   UNL     1      48.495   5.887  19.249  0.00  0.00    +0.000 A 
BRANCH  30  32
ATOM     32  O   UNL     1      48.998   3.553  18.811  0.00  0.00    +0.000 OA
ATOM     33  H   UNL     1      49.166   4.053  17.991  0.00  0.00    +0.000 HD
ENDBRANCH  30  32
ENDBRANCH  20  23
ENDBRANCH  18  19
ENDBRANCH   4  18
TORSDOF 8
ENDMDL
MODEL 2
REMARK VINA RESULT:    -8.265      1.564      2.300
REMARK INTER + INTRA:         -13.119
REMARK INTER:                 -11.816
REMARK INTRA:                  -1.304
REMARK UNBOUND:                -1.231
REMARK  Name = 
REMARK  10 active torsions:
REMARK  status: ('A' for Active; 'I' for Inactive)
REMARK    1  A    between atoms: C_1  and  C_2
REMARK    2  A    between atoms: C_5  and  C_6
REMARK    3  A    between atoms: C_6  and  O_7
REMARK    4  A    between atoms: O_7  and  C_8
REMARK    5  A    between atoms: C_8  and  C_9
REMARK    6  A    between atoms: C_12  and  C_13
REMARK    7  A    between atoms: C_13  and  N_14
REMARK    8  A    between atoms: C_15  and  C_17
REMARK    9  A    between atoms: C_24  and  O_25
REMARK   10  A    between atoms: C_30  and  C_31
REMARK                            x       y       z     vdW  Elec       q    Type
REMARK                         _______ _______ _______ _____ _____    ______ ____
ROOT
ATOM      1  C   UNL     1      44.556   5.588  11.848  0.00  0.00    +0.000 A 
ATOM      2  C   UNL     1      44.930   5.028  13.078  0.00  0.00    +0.000 A 
ATOM      3  C   UNL     1      46.132   5.391  13.692  0.00  0.00    +0.000 A 
ATOM      4  C   UNL     1      46.983   6.331  13.094  0.00  0.00    +0.000 A 
ATOM      5  C   UNL     1      46.630   6.860  11.846  0.00  0.00    +0.000 A 
ATOM      6  C   UNL     1      45.427   6.497  11.232  0.00  0.00    +0.000 A 
ENDROOT
BRANCH   1   7
ATOM      7  C   UNL     1      43.246   5.210  11.204  0.00  0.00    +0.000 C 
BRANCH   7   8
ATOM      8  O   UNL     1      43.511   4.615   9.936  0.00  0.00    +0.000 OA
BRANCH   8   9
ATOM      9  C   UNL     1      44.037   3.295  10.068  0.00  0.00    +0.000 C 
BRANCH   9  14
ATOM     10  C   UNL     1      47.937   2.186   5.863  0.00  0.00    +0.000 C 
ATOM     11  C   UNL     1      46.949   2.450   6.966  0.00  0.00    +0.000 A 
ATOM     12  C   UNL     1      46.524   3.764   7.207  0.00  0.00    +0.000 A 
ATOM     13  C   UNL     1      45.589   4.043   8.204  0.00  0.00    +0.000 A 
ATOM     14  C   UNL     1      45.042   3.014   8.978  0.00  0.00    +0.000 A 
ATOM     15  C   UNL     1      45.491   1.702   8.759  0.00  0.00    +0.000 A 
ATOM     16  C   UNL     1      46.435   1.406   7.759  0.00  0.00    +0.000 A 
ATOM     17  C   UNL     1      46.871  -0.019   7.557  0.00  0.00    +0.000 C 
ENDBRANCH   9  14
ENDBRANCH   8   9
ENDBRANCH   7   8
ENDBRANCH   1   7
BRANCH   4  18
ATOM     18  C   UNL     1      48.269   6.746  13.765  0.00  0.00    +0.000 C 
BRANCH  18  19
ATOM     19  N   UNL     1      48.128   6.725  15.197  0.00  0.00    +0.000 N 
ATOM     20  C   UNL     1      49.217   6.677  16.031  0.00  0.00    +0.000 C 
ATOM     21  O   UNL     1      50.359   6.509  15.615  0.00  0.00    +0.000 OA
ATOM     22  H   UNL     1      47.240   7.039  15.569  0.00  0.00    +0.000 HD
BRANCH  20  23
ATOM     23  C   UNL     1      48.929   6.813  17.464  0.00  0.00    +0.000 A 
ATOM     24  C   UNL     1      49.282   5.797  18.343  0.00  0.00    +0.000 A 
ATOM     25  S   UNL     1      48.845   6.121  19.960  0.00  0.00    +0.000 S 
ATOM     26  C   UNL     1      48.216   7.643  19.540  0.00  0.00    +0.000 A 
ATOM     27  N   UNL     1      47.698   8.448  20.484  0.00  0.00    +0.000 NA
ATOM     28  C   UNL     1      47.258   9.609  19.992  0.00  0.00    +0.000 A 
ATOM     29  N   UNL     1      47.283  10.014  18.714  0.00  0.00    +0.000 NA
ATOM     30  C   UNL     1      47.810   9.166  17.830  0.00  0.00    +0.000 A 
ATOM     31  C   UNL     1      48.310   7.913  18.181  0.00  0.00    +0.000 A 
BRANCH  30  32
ATOM     32  O   UNL     1      47.792   9.632  16.548  0.00  0.00    +0.000 OA
ATOM     33  H   UNL     1      47.659   8.801  16.056  0.00  0.00    +0.000 HD
ENDBRANCH  30  32
ENDBRANCH  20  23
ENDBRANCH  18  19
ENDBRANCH   4  18
TORSDOF 8
ENDMDL
MODEL 3
REMARK VINA RESULT:    -8.135      2.071      2.572
REMARK INTER + INTRA:         -12.932
REMARK INTER:                 -11.458
REMARK INTRA:                  -1.474
REMARK UNBOUND:                -1.231
REMARK  Name = 
REMARK  10 active torsions:
REMARK  status: ('A' for Active; 'I' for Inactive)
REMARK    1  A    between atoms: C_1  and  C_2
REMARK    2  A    between atoms: C_5  and  C_6
REMARK    3  A    between atoms: C_6  and  O_7
REMARK    4  A    between atoms: O_7  and  C_8
REMARK    5  A    between atoms: C_8  and  C_9
REMARK    6  A    between atoms: C_12  and  C_13
REMARK    7  A    between atoms: C_13  and  N_14
REMARK    8  A    between atoms: C_15  and  C_17
REMARK    9  A    between atoms: C_24  and  O_25
REMARK   10  A    between atoms: C_30  and  C_31
REMARK                            x       y       z     vdW  Elec       q    Type
REMARK                         _______ _______ _______ _____ _____    ______ ____
ROOT
ATOM      1  C   UNL     1      44.675   5.288  12.601  0.00  0.00    +0.000 A 
ATOM      2  C   UNL     1      44.789   6.542  11.984  0.00  0.00    +0.000 A 
ATOM      3  C   UNL     1      46.027   7.188  11.903  0.00  0.00    +0.000 A 
ATOM      4  C   UNL     1      47.180   6.588  12.427  0.00  0.00    +0.000 A 
ATOM      5  C   UNL     1      47.059   5.354  13.080  0.00  0.00    +0.000 A 
ATOM      6  C   UNL     1      45.821   4.708  13.161  0.00  0.00    +0.000 A 
ENDROOT
BRANCH   1   7
ATOM      7  C   UNL     1      43.341   4.587  12.664  0.00  0.00    +0.000 C 
BRANCH   7   8
ATOM      8  O   UNL     1      42.991   4.146  11.355  0.00  0.00    +0.000 OA
BRANCH   8   9
ATOM      9  C   UNL     1      43.578   2.883  11.045  0.00  0.00    +0.000 C 
BRANCH   9  14
ATOM     10  C   UNL     1      46.982   3.284   6.315  0.00  0.00    +0.000 C 
ATOM     11  C   UNL     1      46.129   3.161   7.548  0.00  0.00    +0.000 A 
ATOM     12  C   UNL     1      45.477   4.296   8.047  0.00  0.00    +0.000 A 
ATOM     13  C   UNL     1      44.656   4.214   9.173  0.00  0.00    +0.000 A 
ATOM     14  C   UNL     1      44.454   2.991   9.821  0.00  0.00    +0.000 A 
ATOM     15  C   UNL     1      45.131   1.860   9.341  0.00  0.00    +0.000 A 
ATOM     16  C   UNL     1      45.964   1.928   8.209  0.00  0.00    +0.000 A 
ATOM     17  C   UNL     1      46.655   0.682   7.727  0.00  0.00    +0.000 C 
ENDBRANCH   9  14
ENDBRANCH   8   9
ENDBRANCH   7   8
ENDBRANCH   1   7
BRANCH   4  18
ATOM     18  C   UNL     1      48.522   7.268  12.318  0.00  0.00    +0.000 C 
BRANCH  18  19
ATOM     19  N   UNL     1      49.380   6.882  13.408  0.00  0.00    +0.000 N 
ATOM     20  C   UNL     1      49.272   7.453  14.651  0.00  0.00    +0.000 C 
ATOM     21  O   UNL     1      48.544   8.416  14.874  0.00  0.00    +0.000 OA
ATOM     22  H   UNL     1      49.851   5.990  13.318  0.00  0.00    +0.000 HD
BRANCH  20  23
ATOM     23  C   UNL     1      50.106   6.856  15.701  0.00  0.00    +0.000 A 
ATOM     24  C   UNL     1      51.447   7.202  15.804  0.00  0.00    +0.000 A 
ATOM     25  S   UNL     1      52.260   6.390  17.065  0.00  0.00    +0.000 S 
ATOM     26  C   UNL     1      50.836   5.590  17.537  0.00  0.00    +0.000 A 
ATOM     27  N   UNL     1      50.846   4.748  18.586  0.00  0.00    +0.000 NA
ATOM     28  C   UNL     1      49.647   4.213  18.832  0.00  0.00    +0.000 A 
ATOM     29  N   UNL     1      48.507   4.425  18.161  0.00  0.00    +0.000 NA
ATOM     30  C   UNL     1      48.569   5.269  17.130  0.00  0.00    +0.000 A 
ATOM     31  C   UNL     1      49.745   5.910  16.741  0.00  0.00    +0.000 A 
BRANCH  30  32
ATOM     32  O   UNL     1      47.379   5.430  16.483  0.00  0.00    +0.000 OA
ATOM     33  H   UNL     1      46.762   5.424  17.238  0.00  0.00    +0.000 HD
ENDBRANCH  30  32
ENDBRANCH  20  23
ENDBRANCH  18  19
ENDBRANCH   4  18
TORSDOF 8
ENDMDL
MODEL 4
REMARK VINA RESULT:    -7.623      4.721      6.891
REMARK INTER + INTRA:         -12.197
REMARK INTER:                 -10.808
REMARK INTRA:                  -1.388
REMARK UNBOUND:                -1.231
REMARK  Name = 
REMARK  10 active torsions:
REMARK  status: ('A' for Active; 'I' for Inactive)
REMARK    1  A    between atoms: C_1  and  C_2
REMARK    2  A    between atoms: C_5  and  C_6
REMARK    3  A    between atoms: C_6  and  O_7
REMARK    4  A    between atoms: O_7  and  C_8
REMARK    5  A    between atoms: C_8  and  C_9
REMARK    6  A    between atoms: C_12  and  C_13
REMARK    7  A    between atoms: C_13  and  N_14
REMARK    8  A    between atoms: C_15  and  C_17
REMARK    9  A    between atoms: C_24  and  O_25
REMARK   10  A    between atoms: C_30  and  C_31
REMARK                            x       y       z     vdW  Elec       q    Type
REMARK                         _______ _______ _______ _____ _____    ______ ____
ROOT
ATOM      1  C   UNL     1      44.898   5.547  11.925  0.00  0.00    +0.000 A 
ATOM      2  C   UNL     1      45.374   5.099  13.165  0.00  0.00    +0.000 A 
ATOM      3  C   UNL     1      46.652   5.452  13.609  0.00  0.00    +0.000 A 
ATOM      4  C   UNL     1      47.478   6.270  12.827  0.00  0.00    +0.000 A 
ATOM      5  C   UNL     1      47.019   6.684  11.569  0.00  0.00    +0.000 A 
ATOM      6  C   UNL     1      45.740   6.331  11.126  0.00  0.00    +0.000 A 
ENDROOT
BRANCH   1   7
ATOM      7  C   UNL     1      43.509   5.182  11.464  0.00  0.00    +0.000 C 
BRANCH   7   8
ATOM      8  O   UNL     1      43.587   4.649  10.145  0.00  0.00    +0.000 OA
BRANCH   8   9
ATOM      9  C   UNL     1      43.995   3.281  10.147  0.00  0.00    +0.000 C 
BRANCH   9  14
ATOM     10  C   UNL     1      47.928   2.282   5.945  0.00  0.00    +0.000 C 
ATOM     11  C   UNL     1      46.932   2.517   7.048  0.00  0.00    +0.000 A 
ATOM     12  C   UNL     1      46.514   3.825   7.327  0.00  0.00    +0.000 A 
ATOM     13  C   UNL     1      45.571   4.078   8.325  0.00  0.00    +0.000 A 
ATOM     14  C   UNL     1      45.009   3.028   9.058  0.00  0.00    +0.000 A 
ATOM     15  C   UNL     1      45.449   1.721   8.800  0.00  0.00    +0.000 A 
ATOM     16  C   UNL     1      46.401   1.451   7.801  0.00  0.00    +0.000 A 
ATOM     17  C   UNL     1      46.828   0.030   7.555  0.00  0.00    +0.000 C 
ENDBRANCH   9  14
ENDBRANCH   8   9
ENDBRANCH   7   8
ENDBRANCH   1   7
BRANCH   4  18
ATOM     18  C   UNL     1      48.848   6.675  13.312  0.00  0.00    +0.000 C 
BRANCH  18  19
ATOM     19  N   UNL     1      49.702   7.016  12.205  0.00  0.00    +0.000 N 
ATOM     20  C   UNL     1      50.358   8.219  12.140  0.00  0.00    +0.000 C 
ATOM     21  O   UNL     1      50.151   9.127  12.940  0.00  0.00    +0.000 OA
ATOM     22  H   UNL     1      50.033   6.246  11.637  0.00  0.00    +0.000 HD
BRANCH  20  23
ATOM     23  C   UNL     1      51.310   8.368  11.032  0.00  0.00    +0.000 A 
ATOM     24  C   UNL     1      51.791   7.244  10.374  0.00  0.00    +0.000 A 
ATOM     25  S   UNL     1      52.904   7.612   9.135  0.00  0.00    +0.000 S 
ATOM     26  C   UNL     1      52.741   9.281   9.413  0.00  0.00    +0.000 A 
ATOM     27  N   UNL     1      53.422  10.164   8.662  0.00  0.00    +0.000 NA
ATOM     28  C   UNL     1      53.174  11.433   9.000  0.00  0.00    +0.000 A 
ATOM     29  N   UNL     1      52.357  11.873   9.967  0.00  0.00    +0.000 NA
ATOM     30  C   UNL     1      51.714  10.943  10.674  0.00  0.00    +0.000 A 
ATOM     31  C   UNL     1      51.865   9.575  10.449  0.00  0.00    +0.000 A 
BRANCH  30  32
ATOM     32  O   UNL     1      50.911  11.457  11.649  0.00  0.00    +0.000 OA
ATOM     33  H   UNL     1      50.102  11.643  11.137  0.00  0.00    +0.000 HD
ENDBRANCH  30  32
ENDBRANCH  20  23
ENDBRANCH  18  19
ENDBRANCH   4  18
TORSDOF 8
ENDMDL
MODEL 5
REMARK VINA RESULT:    -7.278      2.622      3.294
REMARK INTER + INTRA:         -11.700
REMARK INTER:                 -10.538
REMARK INTRA:                  -1.162
REMARK UNBOUND:                -1.231
REMARK  Name = 
REMARK  10 active torsions:
REMARK  status: ('A' for Active; 'I' for Inactive)
REMARK    1  A    between atoms: C_1  and  C_2
REMARK    2  A    between atoms: C_5  and  C_6
REMARK    3  A    between atoms: C_6  and  O_7
REMARK    4  A    between atoms: O_7  and  C_8
REMARK    5  A    between atoms: C_8  and  C_9
REMARK    6  A    between atoms: C_12  and  C_13
REMARK    7  A    between atoms: C_13  and  N_14
REMARK    8  A    between atoms: C_15  and  C_17
REMARK    9  A    between atoms: C_24  and  O_25
REMARK   10  A    between atoms: C_30  and  C_31
REMARK                            x       y       z     vdW  Elec       q    Type
REMARK                         _______ _______ _______ _____ _____    ______ ____
ROOT
ATOM      1  C   UNL     1      45.719   5.968  12.127  0.00  0.00    +0.000 A 
ATOM      2  C   UNL     1      46.624   5.296  12.960  0.00  0.00    +0.000 A 
ATOM      3  C   UNL     1      47.808   5.914  13.376  0.00  0.00    +0.000 A 
ATOM      4  C   UNL     1      48.106   7.223  12.976  0.00  0.00    +0.000 A 
ATOM      5  C   UNL     1      47.223   7.881  12.110  0.00  0.00    +0.000 A 
ATOM      6  C   UNL     1      46.039   7.262  11.694  0.00  0.00    +0.000 A 
ENDROOT
BRANCH   1   7
ATOM      7  C   UNL     1      44.435   5.303  11.702  0.00  0.00    +0.000 C 
BRANCH   7   8
ATOM      8  O   UNL     1      44.708   3.946  11.365  0.00  0.00    +0.000 OA
BRANCH   8   9
ATOM      9  C   UNL     1      44.039   3.550  10.169  0.00  0.00    +0.000 C 
BRANCH   9  14
ATOM     10  C   UNL     1      47.916   2.257   5.995  0.00  0.00    +0.000 C 
ATOM     11  C   UNL     1      46.934   2.568   7.091  0.00  0.00    +0.000 A 
ATOM     12  C   UNL     1      46.548   3.898   7.309  0.00  0.00    +0.000 A 
ATOM     13  C   UNL     1      45.619   4.221   8.299  0.00  0.00    +0.000 A 
ATOM     14  C   UNL     1      45.039   3.221   9.087  0.00  0.00    +0.000 A 
ATOM     15  C   UNL     1      45.448   1.893   8.890  0.00  0.00    +0.000 A 
ATOM     16  C   UNL     1      46.386   1.553   7.898  0.00  0.00    +0.000 A 
ATOM     17  C   UNL     1      46.778   0.112   7.720  0.00  0.00    +0.000 C 
ENDBRANCH   9  14
ENDBRANCH   8   9
ENDBRANCH   7   8
ENDBRANCH   1   7
BRANCH   4  18
ATOM     18  C   UNL     1      49.369   7.905  13.443  0.00  0.00    +0.000 C 
BRANCH  18  19
ATOM     19  N   UNL     1      50.014   7.136  14.474  0.00  0.00    +0.000 N 
ATOM     20  C   UNL     1      49.797   7.384  15.806  0.00  0.00    +0.000 C 
ATOM     21  O   UNL     1      49.158   8.356  16.200  0.00  0.00    +0.000 OA
ATOM     22  H   UNL     1      50.389   6.236  14.199  0.00  0.00    +0.000 HD
BRANCH  20  23
ATOM     23  C   UNL     1      50.400   6.426  16.740  0.00  0.00    +0.000 A 
ATOM     24  C   UNL     1      49.605   5.761  17.664  0.00  0.00    +0.000 A 
ATOM     25  S   UNL     1      50.485   4.711  18.681  0.00  0.00    +0.000 S 
ATOM     26  C   UNL     1      51.942   5.080  17.887  0.00  0.00    +0.000 A 
ATOM     27  N   UNL     1      53.090   4.490  18.265  0.00  0.00    +0.000 NA
ATOM     28  C   UNL     1      54.138   4.878  17.534  0.00  0.00    +0.000 A 
ATOM     29  N   UNL     1      54.145   5.756  16.522  0.00  0.00    +0.000 NA
ATOM     30  C   UNL     1      52.973   6.304  16.200  0.00  0.00    +0.000 A 
ATOM     31  C   UNL     1      51.785   6.008  16.866  0.00  0.00    +0.000 A 
BRANCH  30  32
ATOM     32  O   UNL     1      53.051   7.197  15.171  0.00  0.00    +0.000 OA
ATOM     33  H   UNL     1      53.068   6.590  14.408  0.00  0.00    +0.000 HD
ENDBRANCH  30  32
ENDBRANCH  20  23
ENDBRANCH  18  19
ENDBRANCH   4  18
TORSDOF 8
ENDMDL
MODEL 6
REMARK VINA RESULT:    -7.236      1.763      2.380
REMARK INTER + INTRA:         -11.639
REMARK INTER:                 -10.405
REMARK INTRA:                  -1.234
REMARK UNBOUND:                -1.231
REMARK  Name = 
REMARK  10 active torsions:
REMARK  status: ('A' for Active; 'I' for Inactive)
REMARK    1  A    between atoms: C_1  and  C_2
REMARK    2  A    between atoms: C_5  and  C_6
REMARK    3  A    between atoms: C_6  and  O_7
REMARK    4  A    between atoms: O_7  and  C_8
REMARK    5  A    between atoms: C_8  and  C_9
REMARK    6  A    between atoms: C_12  and  C_13
REMARK    7  A    between atoms: C_13  and  N_14
REMARK    8  A    between atoms: C_15  and  C_17
REMARK    9  A    between atoms: C_24  and  O_25
REMARK   10  A    between atoms: C_30  and  C_31
REMARK                            x       y       z     vdW  Elec       q    Type
REMARK                         _______ _______ _______ _____ _____    ______ ____
ROOT
ATOM      1  C   UNL     1      45.242   6.573  12.351  0.00  0.00    +0.000 A 
ATOM      2  C   UNL     1      46.288   5.645  12.461  0.00  0.00    +0.000 A 
ATOM      3  C   UNL     1      47.555   6.046  12.899  0.00  0.00    +0.000 A 
ATOM      4  C   UNL     1      47.799   7.381  13.247  0.00  0.00    +0.000 A 
ATOM      5  C   UNL     1      46.766   8.316  13.098  0.00  0.00    +0.000 A 
ATOM      6  C   UNL     1      45.500   7.914  12.660  0.00  0.00    +0.000 A 
ENDROOT
BRANCH   1   7
ATOM      7  C   UNL     1      43.874   6.129  11.901  0.00  0.00    +0.000 C 
BRANCH   7   8
ATOM      8  O   UNL     1      43.981   4.839  11.305  0.00  0.00    +0.000 OA
BRANCH   8   9
ATOM      9  C   UNL     1      43.804   4.890   9.891  0.00  0.00    +0.000 C 
BRANCH   9  14
ATOM     10  C   UNL     1      47.014   0.786   7.249  0.00  0.00    +0.000 C 
ATOM     11  C   UNL     1      46.179   1.856   7.898  0.00  0.00    +0.000 A 
ATOM     12  C   UNL     1      45.329   1.514   8.959  0.00  0.00    +0.000 A 
ATOM     13  C   UNL     1      44.561   2.485   9.603  0.00  0.00    +0.000 A 
ATOM     14  C   UNL     1      44.634   3.826   9.214  0.00  0.00    +0.000 A 
ATOM     15  C   UNL     1      45.461   4.165   8.132  0.00  0.00    +0.000 A 
ATOM     16  C   UNL     1      46.239   3.197   7.471  0.00  0.00    +0.000 A 
ATOM     17  C   UNL     1      47.120   3.616   6.327  0.00  0.00    +0.000 C 
ENDBRANCH   9  14
ENDBRANCH   8   9
ENDBRANCH   7   8
ENDBRANCH   1   7
BRANCH   4  18
ATOM     18  C   UNL     1      49.156   7.814  13.745  0.00  0.00    +0.000 C 
BRANCH  18  19
ATOM     19  N   UNL     1      49.555   7.032  14.887  0.00  0.00    +0.000 N 
ATOM     20  C   UNL     1      49.202   7.385  16.164  0.00  0.00    +0.000 C 
ATOM     21  O   UNL     1      48.653   8.451  16.426  0.00  0.00    +0.000 OA
ATOM     22  H   UNL     1      49.840   6.078  14.703  0.00  0.00    +0.000 HD
BRANCH  20  23
ATOM     23  C   UNL     1      49.548   6.417  17.212  0.00  0.00    +0.000 A 
ATOM     24  C   UNL     1      50.662   5.601  17.065  0.00  0.00    +0.000 A 
ATOM     25  S   UNL     1      50.888   4.524  18.369  0.00  0.00    +0.000 S 
ATOM     26  C   UNL     1      49.534   5.147  19.185  0.00  0.00    +0.000 A 
ATOM     27  N   UNL     1      49.187   4.664  20.391  0.00  0.00    +0.000 NA
ATOM     28  C   UNL     1      48.110   5.267  20.902  0.00  0.00    +0.000 A 
ATOM     29  N   UNL     1      47.387   6.250  20.346  0.00  0.00    +0.000 NA
ATOM     30  C   UNL     1      47.787   6.681  19.149  0.00  0.00    +0.000 A 
ATOM     31  C   UNL     1      48.890   6.154  18.479  0.00  0.00    +0.000 A 
BRANCH  30  32
ATOM     32  O   UNL     1      47.001   7.671  18.635  0.00  0.00    +0.000 OA
ATOM     33  H   UNL     1      46.455   7.160  18.009  0.00  0.00    +0.000 HD
ENDBRANCH  30  32
ENDBRANCH  20  23
ENDBRANCH  18  19
ENDBRANCH   4  18
TORSDOF 8
ENDMDL
MODEL 7
REMARK VINA RESULT:    -7.128      3.821      9.372
REMARK INTER + INTRA:         -11.484
REMARK INTER:                  -9.727
REMARK INTRA:                  -1.757
REMARK UNBOUND:                -1.231
REMARK  Name = 
REMARK  10 active torsions:
REMARK  status: ('A' for Active; 'I' for Inactive)
REMARK    1  A    between atoms: C_1  and  C_2
REMARK    2  A    between atoms: C_5  and  C_6
REMARK    3  A    between atoms: C_6  and  O_7
REMARK    4  A    between atoms: O_7  and  C_8
REMARK    5  A    between atoms: C_8  and  C_9
REMARK    6  A    between atoms: C_12  and  C_13
REMARK    7  A    between atoms: C_13  and  N_14
REMARK    8  A    between atoms: C_15  and  C_17
REMARK    9  A    between atoms: C_24  and  O_25
REMARK   10  A    between atoms: C_30  and  C_31
REMARK                            x       y       z     vdW  Elec       q    Type
REMARK                         _______ _______ _______ _____ _____    ______ ____
ROOT
ATOM      1  C   UNL     1      49.396   8.341  15.820  0.00  0.00    +0.000 A 
ATOM      2  C   UNL     1      49.600   7.162  15.089  0.00  0.00    +0.000 A 
ATOM      3  C   UNL     1      49.014   6.991  13.831  0.00  0.00    +0.000 A 
ATOM      4  C   UNL     1      48.222   8.001  13.271  0.00  0.00    +0.000 A 
ATOM      5  C   UNL     1      47.983   9.162  14.018  0.00  0.00    +0.000 A 
ATOM      6  C   UNL     1      48.569   9.333  15.276  0.00  0.00    +0.000 A 
ENDROOT
BRANCH   1   7
ATOM      7  C   UNL     1      50.050   8.528  17.165  0.00  0.00    +0.000 C 
BRANCH   7   8
ATOM      8  O   UNL     1      49.091   8.262  18.185  0.00  0.00    +0.000 OA
BRANCH   8   9
ATOM      9  C   UNL     1      49.584   7.335  19.151  0.00  0.00    +0.000 C 
BRANCH   9  14
ATOM     10  C   UNL     1      49.863   1.958  16.886  0.00  0.00    +0.000 C 
ATOM     11  C   UNL     1      49.764   3.333  17.488  0.00  0.00    +0.000 A 
ATOM     12  C   UNL     1      50.934   3.990  17.892  0.00  0.00    +0.000 A 
ATOM     13  C   UNL     1      50.883   5.277  18.430  0.00  0.00    +0.000 A 
ATOM     14  C   UNL     1      49.662   5.947  18.563  0.00  0.00    +0.000 A 
ATOM     15  C   UNL     1      48.488   5.277  18.188  0.00  0.00    +0.000 A 
ATOM     16  C   UNL     1      48.523   3.979  17.648  0.00  0.00    +0.000 A 
ATOM     17  C   UNL     1      47.235   3.313  17.248  0.00  0.00    +0.000 C 
ENDBRANCH   9  14
ENDBRANCH   8   9
ENDBRANCH   7   8
ENDBRANCH   1   7
BRANCH   4  18
ATOM     18  C   UNL     1      47.609   7.833  11.902  0.00  0.00    +0.000 C 
BRANCH  18  19
ATOM     19  N   UNL     1      46.908   6.579  11.807  0.00  0.00    +0.000 N 
ATOM     20  C   UNL     1      45.546   6.498  11.950  0.00  0.00    +0.000 C 
ATOM     21  O   UNL     1      44.863   7.454  12.305  0.00  0.00    +0.000 OA
ATOM     22  H   UNL     1      47.398   5.821  11.346  0.00  0.00    +0.000 HD
BRANCH  20  23
ATOM     23  C   UNL     1      44.953   5.183  11.679  0.00  0.00    +0.000 A 
ATOM     24  C   UNL     1      44.260   4.513  12.679  0.00  0.00    +0.000 A 
ATOM     25  S   UNL     1      43.667   2.992  12.187  0.00  0.00    +0.000 S 
ATOM     26  C   UNL     1      44.277   3.204  10.615  0.00  0.00    +0.000 A 
ATOM     27  N   UNL     1      44.087   2.257   9.679  0.00  0.00    +0.000 NA
ATOM     28  C   UNL     1      44.617   2.582   8.497  0.00  0.00    +0.000 A 
ATOM     29  N   UNL     1      45.286   3.701   8.184  0.00  0.00    +0.000 NA
ATOM     30  C   UNL     1      45.439   4.597   9.160  0.00  0.00    +0.000 A 
ATOM     31  C   UNL     1      44.948   4.408  10.451  0.00  0.00    +0.000 A 
BRANCH  30  32
ATOM     32  O   UNL     1      46.138   5.705   8.780  0.00  0.00    +0.000 OA
ATOM     33  H   UNL     1      45.440   6.384   8.828  0.00  0.00    +0.000 HD
ENDBRANCH  30  32
ENDBRANCH  20  23
ENDBRANCH  18  19
ENDBRANCH   4  18
TORSDOF 8
ENDMDL
MODEL 8
REMARK VINA RESULT:    -6.967      3.715      9.546
REMARK INTER + INTRA:         -11.252
REMARK INTER:                  -9.280
REMARK INTRA:                  -1.972
REMARK UNBOUND:                -1.231
REMARK  Name = 
REMARK  10 active torsions:
REMARK  status: ('A' for Active; 'I' for Inactive)
REMARK    1  A    between atoms: C_1  and  C_2
REMARK    2  A    between atoms: C_5  and  C_6
REMARK    3  A    between atoms: C_6  and  O_7
REMARK    4  A    between atoms: O_7  and  C_8
REMARK    5  A    between atoms: C_8  and  C_9
REMARK    6  A    between atoms: C_12  and  C_13
REMARK    7  A    between atoms: C_13  and  N_14
REMARK    8  A    between atoms: C_15  and  C_17
REMARK    9  A    between atoms: C_24  and  O_25
REMARK   10  A    between atoms: C_30  and  C_31
REMARK                            x       y       z     vdW  Elec       q    Type
REMARK                         _______ _______ _______ _____ _____    ______ ____
ROOT
ATOM      1  C   UNL     1      48.430   5.792  20.387  0.00  0.00    +0.000 A 
ATOM      2  C   UNL     1      49.236   4.722  19.972  0.00  0.00    +0.000 A 
ATOM      3  C   UNL     1      48.923   3.997  18.819  0.00  0.00    +0.000 A 
ATOM      4  C   UNL     1      47.802   4.334  18.047  0.00  0.00    +0.000 A 
ATOM      5  C   UNL     1      46.974   5.376  18.483  0.00  0.00    +0.000 A 
ATOM      6  C   UNL     1      47.288   6.101  19.637  0.00  0.00    +0.000 A 
ENDROOT
BRANCH   1   7
ATOM      7  C   UNL     1      48.789   6.584  21.619  0.00  0.00    +0.000 C 
BRANCH   7   8
ATOM      8  O   UNL     1      50.110   7.097  21.469  0.00  0.00    +0.000 OA
BRANCH   8   9
ATOM      9  C   UNL     1      50.107   8.462  21.057  0.00  0.00    +0.000 C 
BRANCH   9  14
ATOM     10  C   UNL     1      48.420   8.922  15.483  0.00  0.00    +0.000 C 
ATOM     11  C   UNL     1      48.888   8.807  16.909  0.00  0.00    +0.000 A 
ATOM     12  C   UNL     1      48.206   9.508  17.913  0.00  0.00    +0.000 A 
ATOM     13  C   UNL     1      48.595   9.403  19.249  0.00  0.00    +0.000 A 
ATOM     14  C   UNL     1      49.665   8.582  19.619  0.00  0.00    +0.000 A 
ATOM     15  C   UNL     1      50.367   7.904  18.611  0.00  0.00    +0.000 A 
ATOM     16  C   UNL     1      49.989   8.003  17.259  0.00  0.00    +0.000 A 
ATOM     17  C   UNL     1      50.768   7.244  16.220  0.00  0.00    +0.000 C 
ENDBRANCH   9  14
ENDBRANCH   8   9
ENDBRANCH   7   8
ENDBRANCH   1   7
BRANCH   4  18
ATOM     18  C   UNL     1      47.474   3.572  16.787  0.00  0.00    +0.000 C 
BRANCH  18  19
ATOM     19  N   UNL     1      46.958   4.456  15.775  0.00  0.00    +0.000 N 
ATOM     20  C   UNL     1      46.877   4.081  14.459  0.00  0.00    +0.000 C 
ATOM     21  O   UNL     1      47.363   3.034  14.040  0.00  0.00    +0.000 OA
ATOM     22  H   UNL     1      46.393   5.232  16.099  0.00  0.00    +0.000 HD
BRANCH  20  23
ATOM     23  C   UNL     1      46.193   5.025  13.567  0.00  0.00    +0.000 A 
ATOM     24  C   UNL     1      46.560   6.364  13.559  0.00  0.00    +0.000 A 
ATOM     25  S   UNL     1      45.637   7.311  12.480  0.00  0.00    +0.000 S 
ATOM     26  C   UNL     1      44.755   5.954  11.962  0.00  0.00    +0.000 A 
ATOM     27  N   UNL     1      43.807   6.080  11.017  0.00  0.00    +0.000 NA
ATOM     28  C   UNL     1      43.217   4.921  10.715  0.00  0.00    +0.000 A 
ATOM     29  N   UNL     1      43.471   3.716  11.244  0.00  0.00    +0.000 NA
ATOM     30  C   UNL     1      44.423   3.662  12.176  0.00  0.00    +0.000 A 
ATOM     31  C   UNL     1      45.131   4.783  12.607  0.00  0.00    +0.000 A 
BRANCH  30  32
ATOM     32  O   UNL     1      44.622   2.411  12.682  0.00  0.00    +0.000 OA
ATOM     33  H   UNL     1      44.627   2.603  13.638  0.00  0.00    +0.000 HD
ENDBRANCH  30  32
ENDBRANCH  20  23
ENDBRANCH  18  19
ENDBRANCH   4  18
TORSDOF 8
ENDMDL
MODEL 9
REMARK VINA RESULT:    -6.922      4.342      8.573
REMARK INTER + INTRA:         -11.188
REMARK INTER:                  -9.341
REMARK INTRA:                  -1.847
REMARK UNBOUND:                -1.231
REMARK  Name = 
REMARK  10 active torsions:
REMARK  status: ('A' for Active; 'I' for Inactive)
REMARK    1  A    between atoms: C_1  and  C_2
REMARK    2  A    between atoms: C_5  and  C_6
REMARK    3  A    between atoms: C_6  and  O_7
REMARK    4  A    between atoms: O_7  and  C_8
REMARK    5  A    between atoms: C_8  and  C_9
REMARK    6  A    between atoms: C_12  and  C_13
REMARK    7  A    between atoms: C_13  and  N_14
REMARK    8  A    between atoms: C_15  and  C_17
REMARK    9  A    between atoms: C_24  and  O_25
REMARK   10  A    between atoms: C_30  and  C_31
REMARK                            x       y       z     vdW  Elec       q    Type
REMARK                         _______ _______ _______ _____ _____    ______ ____
ROOT
ATOM      1  C   UNL     1      49.333   8.506  17.388  0.00  0.00    +0.000 A 
ATOM      2  C   UNL     1      48.395   9.014  16.477  0.00  0.00    +0.000 A 
ATOM      3  C   UNL     1      48.499   8.731  15.112  0.00  0.00    +0.000 A 
ATOM      4  C   UNL     1      49.538   7.924  14.628  0.00  0.00    +0.000 A 
ATOM      5  C   UNL     1      50.499   7.451  15.532  0.00  0.00    +0.000 A 
ATOM      6  C   UNL     1      50.394   7.734  16.897  0.00  0.00    +0.000 A 
ENDROOT
BRANCH   1   7
ATOM      7  C   UNL     1      49.200   8.796  18.861  0.00  0.00    +0.000 C 
BRANCH   7   8
ATOM      8  O   UNL     1      48.089   8.067  19.375  0.00  0.00    +0.000 OA
BRANCH   8   9
ATOM      9  C   UNL     1      48.497   6.863  20.022  0.00  0.00    +0.000 C 
BRANCH   9  14
ATOM     10  C   UNL     1      48.382   2.382  16.276  0.00  0.00    +0.000 C 
ATOM     11  C   UNL     1      48.442   3.546  17.227  0.00  0.00    +0.000 A 
ATOM     12  C   UNL     1      47.279   4.287  17.478  0.00  0.00    +0.000 A 
ATOM     13  C   UNL     1      47.290   5.356  18.375  0.00  0.00    +0.000 A 
ATOM     14  C   UNL     1      48.461   5.704  19.056  0.00  0.00    +0.000 A 
ATOM     15  C   UNL     1      49.633   4.983  18.782  0.00  0.00    +0.000 A 
ATOM     16  C   UNL     1      49.638   3.905  17.878  0.00  0.00    +0.000 A 
ATOM     17  C   UNL     1      50.919   3.156  17.632  0.00  0.00    +0.000 C 
ENDBRANCH   9  14
ENDBRANCH   8   9
ENDBRANCH   7   8
ENDBRANCH   1   7
BRANCH   4  18
ATOM     18  C   UNL     1      49.641   7.594  13.160  0.00  0.00    +0.000 C 
BRANCH  18  19
ATOM     19  N   UNL     1      48.339   7.339  12.601  0.00  0.00    +0.000 N 
ATOM     20  C   UNL     1      47.602   6.238  12.956  0.00  0.00    +0.000 C 
ATOM     21  O   UNL     1      48.057   5.337  13.654  0.00  0.00    +0.000 OA
ATOM     22  H   UNL     1      47.867   8.128  12.177  0.00  0.00    +0.000 HD
BRANCH  20  23
ATOM     23  C   UNL     1      46.235   6.186  12.423  0.00  0.00    +0.000 A 
ATOM     24  C   UNL     1      45.668   7.319  11.853  0.00  0.00    +0.000 A 
ATOM     25  S   UNL     1      44.067   7.075  11.316  0.00  0.00    +0.000 S 
ATOM     26  C   UNL     1      44.102   5.442  11.787  0.00  0.00    +0.000 A 
ATOM     27  N   UNL     1      43.033   4.653  11.582  0.00  0.00    +0.000 NA
ATOM     28  C   UNL     1      43.227   3.398  11.996  0.00  0.00    +0.000 A 
ATOM     29  N   UNL     1      44.328   2.891  12.569  0.00  0.00    +0.000 NA
ATOM     30  C   UNL     1      45.350   3.729  12.744  0.00  0.00    +0.000 A 
ATOM     31  C   UNL     1      45.307   5.071  12.369  0.00  0.00    +0.000 A 
BRANCH  30  32
ATOM     32  O   UNL     1      46.432   3.154  13.343  0.00  0.00    +0.000 OA
ATOM     33  H   UNL     1      47.142   3.750  13.042  0.00  0.00    +0.000 HD
ENDBRANCH  30  32
ENDBRANCH  20  23
ENDBRANCH  18  19
ENDBRANCH   4  18
TORSDOF 8
ENDMDL
