MODEL 1
REMARK VINA RESULT:    -8.248      0.000      0.000
REMARK INTER + INTRA:         -10.934
REMARK INTER:                 -10.659
REMARK INTRA:                  -0.275
REMARK UNBOUND:                -0.275
REMARK  Name = 
REMARK  6 active torsions:
REMARK  status: ('A' for Active; 'I' for Inactive)
REMARK    1  A    between atoms: C_1  and  C_2
REMARK    2  A    between atoms: C_2  and  N_3
REMARK    3  A    between atoms: C_2  and  C_16
REMARK    4  A    between atoms: C_4  and  C_6
REMARK    5  A    between atoms: C_19  and  C_20
REMARK    6  A    between atoms: C_20  and  N_21
REMARK                            x       y       z     vdW  Elec       q    Type
REMARK                         _______ _______ _______ _____ _____    ______ ____
ROOT
ATOM      1  C   UNL     1      43.263   4.518  13.348  0.00  0.00    +0.000 C 
ATOM      2  C   UNL     1      44.159   5.465  12.541  0.00  0.00    +0.000 C 
ENDROOT
BRANCH   2   3
ATOM      3  C   UNL     1      44.537   4.801  11.222  0.00  0.00    +0.000 A 
ATOM      4  C   UNL     1      45.385   5.493  10.348  0.00  0.00    +0.000 A 
ATOM      5  C   UNL     1      45.703   4.978   9.089  0.00  0.00    +0.000 A 
ATOM      6  C   UNL     1      45.191   3.746   8.665  0.00  0.00    +0.000 A 
ATOM      7  C   UNL     1      44.349   3.041   9.540  0.00  0.00    +0.000 A 
ATOM      8  C   UNL     1      44.017   3.566  10.801  0.00  0.00    +0.000 A 
BRANCH   6   9
ATOM      9  C   UNL     1      45.444   3.270   7.251  0.00  0.00    +0.000 C 
BRANCH   9  10
ATOM     10  N   UNL     1      46.806   2.971   6.814  0.00  0.00    +0.000 NA
ATOM     11  C   UNL     1      47.095   3.126   5.389  0.00  0.00    +0.000 C 
ATOM     12  C   UNL     1      46.899   1.849   4.558  0.00  0.00    +0.000 C 
ATOM     13  O   UNL     1      47.612   0.735   5.110  0.00  0.00    +0.000 OA
ATOM     14  C   UNL     1      47.252   0.502   6.476  0.00  0.00    +0.000 C 
ATOM     15  C   UNL     1      47.433   1.758   7.343  0.00  0.00    +0.000 C 
ENDBRANCH   9  10
ENDBRANCH   6   9
ENDBRANCH   2   3
BRANCH   2  16
ATOM     16  N   UNL     1      45.327   5.906  13.278  0.00  0.00    +0.000 N 
ATOM     17  C   UNL     1      46.243   5.008  13.781  0.00  0.00    +0.000 C 
ATOM     18  O   UNL     1      46.171   3.803  13.577  0.00  0.00    +0.000 OA
ATOM     19  H   UNL     1      45.221   6.777  13.790  0.00  0.00    +0.000 HD
BRANCH  17  20
ATOM     20  C   UNL     1      47.360   5.577  14.535  0.00  0.00    +0.000 A 
ATOM     21  C   UNL     1      48.125   6.590  13.965  0.00  0.00    +0.000 A 
ATOM     22  S   UNL     1      49.379   7.146  14.973  0.00  0.00    +0.000 S 
ATOM     23  C   UNL     1      48.971   6.031  16.190  0.00  0.00    +0.000 A 
ATOM     24  N   UNL     1      49.693   5.952  17.342  0.00  0.00    +0.000 NA
ATOM     25  C   UNL     1      49.289   5.044  18.162  0.00  0.00    +0.000 A 
ATOM     26  N   UNL     1      48.221   4.208  17.942  0.00  0.00    +0.000 N 
ATOM     27  C   UNL     1      47.445   4.271  16.816  0.00  0.00    +0.000 A 
ATOM     28  O   UNL     1      46.461   3.555  16.670  0.00  0.00    +0.000 OA
ATOM     29  C   UNL     1      47.872   5.265  15.845  0.00  0.00    +0.000 A 
ATOM     30  H   UNL     1      47.954   3.518  18.632  0.00  0.00    +0.000 HD
ENDBRANCH  17  20
ENDBRANCH   2  16
TORSDOF 5
ENDMDL
MODEL 2
REMARK VINA RESULT:    -8.028      1.412      2.207
REMARK INTER + INTRA:         -10.649
REMARK INTER:                 -10.091
REMARK INTRA:                  -0.558
REMARK UNBOUND:                -0.275
REMARK  Name = 
REMARK  6 active torsions:
REMARK  status: ('A' for Active; 'I' for Inactive)
REMARK    1  A    between atoms: C_1  and  C_2
REMARK    2  A    between atoms: C_2  and  N_3
REMARK    3  A    between atoms: C_2  and  C_16
REMARK    4  A    between atoms: C_4  and  C_6
REMARK    5  A    between atoms: C_19  and  C_20
REMARK    6  A    between atoms: C_20  and  N_21
REMARK                            x       y       z     vdW  Elec       q    Type
REMARK                         _______ _______ _______ _____ _____    ______ ____
ROOT
ATOM      1  C   UNL     1      43.052   4.698  13.175  0.00  0.00    +0.000 C 
ATOM      2  C   UNL     1      44.126   5.524  12.455  0.00  0.00    +0.000 C 
ENDROOT
BRANCH   2   3
ATOM      3  C   UNL     1      44.514   4.825  11.157  0.00  0.00    +0.000 A 
ATOM      4  C   UNL     1      45.376   5.490  10.277  0.00  0.00    +0.000 A 
ATOM      5  C   UNL     1      45.705   4.942   9.034  0.00  0.00    +0.000 A 
ATOM      6  C   UNL     1      45.190   3.704   8.634  0.00  0.00    +0.000 A 
ATOM      7  C   UNL     1      44.333   3.026   9.517  0.00  0.00    +0.000 A 
ATOM      8  C   UNL     1      43.991   3.583  10.760  0.00  0.00    +0.000 A 
BRANCH   6   9
ATOM      9  C   UNL     1      45.456   3.191   7.235  0.00  0.00    +0.000 C 
BRANCH   9  10
ATOM     10  N   UNL     1      46.822   2.884   6.818  0.00  0.00    +0.000 NA
ATOM     11  C   UNL     1      47.151   3.104   5.410  0.00  0.00    +0.000 C 
ATOM     12  C   UNL     1      46.950   1.876   4.510  0.00  0.00    +0.000 C 
ATOM     13  O   UNL     1      47.624   0.720   5.021  0.00  0.00    +0.000 OA
ATOM     14  C   UNL     1      47.223   0.426   6.365  0.00  0.00    +0.000 C 
ATOM     15  C   UNL     1      47.408   1.632   7.299  0.00  0.00    +0.000 C 
ENDBRANCH   9  10
ENDBRANCH   6   9
ENDBRANCH   2   3
BRANCH   2  16
ATOM     16  N   UNL     1      45.281   5.800  13.287  0.00  0.00    +0.000 N 
ATOM     17  C   UNL     1      46.078   4.786  13.771  0.00  0.00    +0.000 C 
ATOM     18  O   UNL     1      45.910   3.611  13.474  0.00  0.00    +0.000 OA
ATOM     19  H   UNL     1      45.223   6.640  13.855  0.00  0.00    +0.000 HD
BRANCH  17  20
ATOM     20  C   UNL     1      47.193   5.193  14.626  0.00  0.00    +0.000 A 
ATOM     21  C   UNL     1      47.337   4.616  15.884  0.00  0.00    +0.000 A 
ATOM     22  S   UNL     1      48.687   5.193  16.748  0.00  0.00    +0.000 S 
ATOM     23  C   UNL     1      49.105   6.259  15.492  0.00  0.00    +0.000 A 
ATOM     24  N   UNL     1      50.173   7.096  15.607  0.00  0.00    +0.000 NA
ATOM     25  C   UNL     1      50.355   7.869  14.591  0.00  0.00    +0.000 A 
ATOM     26  N   UNL     1      49.573   7.878  13.462  0.00  0.00    +0.000 N 
ATOM     27  C   UNL     1      48.510   7.033  13.286  0.00  0.00    +0.000 A 
ATOM     28  O   UNL     1      47.864   7.019  12.245  0.00  0.00    +0.000 OA
ATOM     29  C   UNL     1      48.245   6.155  14.413  0.00  0.00    +0.000 A 
ATOM     30  H   UNL     1      49.776   8.509  12.698  0.00  0.00    +0.000 HD
ENDBRANCH  17  20
ENDBRANCH   2  16
TORSDOF 5
ENDMDL
MODEL 3
REMARK VINA RESULT:    -7.573      3.724      6.518
REMARK INTER + INTRA:         -10.062
REMARK INTER:                  -8.911
REMARK INTRA:                  -1.150
REMARK UNBOUND:                -0.275
REMARK  Name = 
REMARK  6 active torsions:
REMARK  status: ('A' for Active; 'I' for Inactive)
REMARK    1  A    between atoms: C_1  and  C_2
REMARK    2  A    between atoms: C_2  and  N_3
REMARK    3  A    between atoms: C_2  and  C_16
REMARK    4  A    between atoms: C_4  and  C_6
REMARK    5  A    between atoms: C_19  and  C_20
REMARK    6  A    between atoms: C_20  and  N_21
REMARK                            x       y       z     vdW  Elec       q    Type
REMARK                         _______ _______ _______ _____ _____    ______ ____
ROOT
ATOM      1  C   UNL     1      48.307   6.712  18.656  0.00  0.00    +0.000 C 
ATOM      2  C   UNL     1      49.317   6.363  17.555  0.00  0.00    +0.000 C 
ENDROOT
BRANCH   2   3
ATOM      3  C   UNL     1      48.568   5.889  16.316  0.00  0.00    +0.000 A 
ATOM      4  C   UNL     1      48.608   6.690  15.168  0.00  0.00    +0.000 A 
ATOM      5  C   UNL     1      47.877   6.355  14.026  0.00  0.00    +0.000 A 
ATOM      6  C   UNL     1      47.087   5.199  13.990  0.00  0.00    +0.000 A 
ATOM      7  C   UNL     1      47.051   4.385  15.133  0.00  0.00    +0.000 A 
ATOM      8  C   UNL     1      47.775   4.730  16.287  0.00  0.00    +0.000 A 
BRANCH   6   9
ATOM      9  C   UNL     1      46.205   4.925  12.791  0.00  0.00    +0.000 C 
BRANCH   9  10
ATOM     10  N   UNL     1      45.099   3.976  12.900  0.00  0.00    +0.000 NA
ATOM     11  C   UNL     1      45.086   2.861  11.954  0.00  0.00    +0.000 C 
ATOM     12  C   UNL     1      44.295   3.130  10.665  0.00  0.00    +0.000 C 
ATOM     13  O   UNL     1      42.965   3.590  10.938  0.00  0.00    +0.000 OA
ATOM     14  C   UNL     1      42.970   4.753  11.774  0.00  0.00    +0.000 C 
ATOM     15  C   UNL     1      43.753   4.526  13.076  0.00  0.00    +0.000 C 
ENDBRANCH   9  10
ENDBRANCH   6   9
ENDBRANCH   2   3
BRANCH   2  16
ATOM     16  N   UNL     1      50.315   5.403  17.985  0.00  0.00    +0.000 N 
ATOM     17  C   UNL     1      51.575   5.378  17.430  0.00  0.00    +0.000 C 
ATOM     18  O   UNL     1      51.953   6.199  16.605  0.00  0.00    +0.000 OA
ATOM     19  H   UNL     1      49.955   4.517  18.328  0.00  0.00    +0.000 HD
BRANCH  17  20
ATOM     20  C   UNL     1      52.480   4.341  17.926  0.00  0.00    +0.000 A 
ATOM     21  C   UNL     1      53.666   4.710  18.554  0.00  0.00    +0.000 A 
ATOM     22  S   UNL     1      54.600   3.386  19.077  0.00  0.00    +0.000 S 
ATOM     23  C   UNL     1      53.476   2.274  18.453  0.00  0.00    +0.000 A 
ATOM     24  N   UNL     1      53.693   0.932  18.536  0.00  0.00    +0.000 NA
ATOM     25  C   UNL     1      52.773   0.209  17.996  0.00  0.00    +0.000 A 
ATOM     26  N   UNL     1      51.646   0.702  17.385  0.00  0.00    +0.000 N 
ATOM     27  C   UNL     1      51.367   2.040  17.305  0.00  0.00    +0.000 A 
ATOM     28  O   UNL     1      50.325   2.453  16.809  0.00  0.00    +0.000 OA
ATOM     29  C   UNL     1      52.386   2.904  17.879  0.00  0.00    +0.000 A 
ATOM     30  H   UNL     1      50.959   0.076  16.984  0.00  0.00    +0.000 HD
ENDBRANCH  17  20
ENDBRANCH   2  16
TORSDOF 5
ENDMDL
MODEL 4
REMARK VINA RESULT:    -7.341      4.092     10.447
REMARK INTER + INTRA:          -9.762
REMARK INTER:                  -8.740
REMARK INTRA:                  -1.021
REMARK UNBOUND:                -0.275
REMARK  Name = 
REMARK  6 active torsions:
REMARK  status: ('A' for Active; 'I' for Inactive)
REMARK    1  A    between atoms: C_1  and  C_2
REMARK    2  A    between atoms: C_2  and  N_3
REMARK    3  A    between atoms: C_2  and  C_16
REMARK    4  A    between atoms: C_4  and  C_6
REMARK    5  A    between atoms: C_19  and  C_20
REMARK    6  A    between atoms: C_20  and  N_21
REMARK                            x       y       z     vdW  Elec       q    Type
REMARK                         _______ _______ _______ _____ _____    ______ ____
ROOT
ATOM      1  C   UNL     1      47.688   3.148  16.931  0.00  0.00    +0.000 C 
ATOM      2  C   UNL     1      47.967   4.499  16.261  0.00  0.00    +0.000 C 
ENDROOT
BRANCH   2   3
ATOM      3  C   UNL     1      48.055   5.584  17.328  0.00  0.00    +0.000 A 
ATOM      4  C   UNL     1      47.294   5.432  18.494  0.00  0.00    +0.000 A 
ATOM      5  C   UNL     1      47.265   6.427  19.473  0.00  0.00    +0.000 A 
ATOM      6  C   UNL     1      48.007   7.605  19.325  0.00  0.00    +0.000 A 
ATOM      7  C   UNL     1      48.781   7.760  18.163  0.00  0.00    +0.000 A 
ATOM      8  C   UNL     1      48.799   6.765  17.171  0.00  0.00    +0.000 A 
BRANCH   6   9
ATOM      9  C   UNL     1      47.859   8.723  20.335  0.00  0.00    +0.000 C 
BRANCH   9  10
ATOM     10  N   UNL     1      46.822   9.737  20.157  0.00  0.00    +0.000 NA
ATOM     11  C   UNL     1      47.129  10.849  19.258  0.00  0.00    +0.000 C 
ATOM     12  C   UNL     1      47.746  12.074  19.950  0.00  0.00    +0.000 C 
ATOM     13  O   UNL     1      46.960  12.514  21.064  0.00  0.00    +0.000 OA
ATOM     14  C   UNL     1      46.749  11.459  22.010  0.00  0.00    +0.000 C 
ATOM     15  C   UNL     1      46.132  10.212  21.357  0.00  0.00    +0.000 C 
ENDBRANCH   9  10
ENDBRANCH   6   9
ENDBRANCH   2   3
BRANCH   2  16
ATOM     16  N   UNL     1      47.002   4.831  15.230  0.00  0.00    +0.000 N 
ATOM     17  C   UNL     1      47.371   5.510  14.091  0.00  0.00    +0.000 C 
ATOM     18  O   UNL     1      48.532   5.808  13.842  0.00  0.00    +0.000 OA
ATOM     19  H   UNL     1      46.047   4.969  15.549  0.00  0.00    +0.000 HD
BRANCH  17  20
ATOM     20  C   UNL     1      46.298   5.814  13.143  0.00  0.00    +0.000 A 
ATOM     21  C   UNL     1      46.017   7.140  12.829  0.00  0.00    +0.000 A 
ATOM     22  S   UNL     1      44.748   7.320  11.708  0.00  0.00    +0.000 S 
ATOM     23  C   UNL     1      44.503   5.640  11.630  0.00  0.00    +0.000 A 
ATOM     24  N   UNL     1      43.515   5.109  10.858  0.00  0.00    +0.000 NA
ATOM     25  C   UNL     1      43.426   3.824  10.917  0.00  0.00    +0.000 A 
ATOM     26  N   UNL     1      44.241   3.015  11.672  0.00  0.00    +0.000 N 
ATOM     27  C   UNL     1      45.268   3.499  12.436  0.00  0.00    +0.000 A 
ATOM     28  O   UNL     1      46.020   2.753  13.053  0.00  0.00    +0.000 OA
ATOM     29  C   UNL     1      45.398   4.947  12.425  0.00  0.00    +0.000 A 
ATOM     30  H   UNL     1      44.119   2.011  11.668  0.00  0.00    +0.000 HD
ENDBRANCH  17  20
ENDBRANCH   2  16
TORSDOF 5
ENDMDL
MODEL 5
REMARK VINA RESULT:    -7.157      3.644      5.124
REMARK INTER + INTRA:          -9.524
REMARK INTER:                  -8.390
REMARK INTRA:                  -1.133
REMARK UNBOUND:                -0.275
REMARK  Name = 
REMARK  6 active torsions:
REMARK  status: ('A' for Active; 'I' for Inactive)
REMARK    1  A    between atoms: C_1  and  C_2
REMARK    2  A    between atoms: C_2  and  N_3
REMARK    3  A    between atoms: C_2  and  C_16
REMARK    4  A    between atoms: C_4  and  C_6
REMARK    5  A    between atoms: C_19  and  C_20
REMARK    6  A    between atoms: C_20  and  N_21
REMARK                            x       y       z     vdW  Elec       q    Type
REMARK                         _______ _______ _______ _____ _____    ______ ____
ROOT
ATOM      1  C   UNL     1      48.442   9.733  14.156  0.00  0.00    +0.000 C 
ATOM      2  C   UNL     1      48.502   8.228  13.869  0.00  0.00    +0.000 C 
ENDROOT
BRANCH   2   3
ATOM      3  C   UNL     1      47.333   7.838  12.973  0.00  0.00    +0.000 A 
ATOM      4  C   UNL     1      46.091   8.444  13.200  0.00  0.00    +0.000 A 
ATOM      5  C   UNL     1      44.960   8.071  12.470  0.00  0.00    +0.000 A 
ATOM      6  C   UNL     1      45.035   7.085  11.479  0.00  0.00    +0.000 A 
ATOM      7  C   UNL     1      46.280   6.481  11.239  0.00  0.00    +0.000 A 
ATOM      8  C   UNL     1      47.415   6.846  11.983  0.00  0.00    +0.000 A 
BRANCH   6   9
ATOM      9  C   UNL     1      43.774   6.607  10.791  0.00  0.00    +0.000 C 
BRANCH   9  10
ATOM     10  N   UNL     1      43.137   5.363  11.217  0.00  0.00    +0.000 NA
ATOM     11  C   UNL     1      42.975   5.159  12.656  0.00  0.00    +0.000 C 
ATOM     12  C   UNL     1      44.137   4.410  13.327  0.00  0.00    +0.000 C 
ATOM     13  O   UNL     1      44.434   3.176  12.662  0.00  0.00    +0.000 OA
ATOM     14  C   UNL     1      44.707   3.379  11.271  0.00  0.00    +0.000 C 
ATOM     15  C   UNL     1      43.568   4.127  10.561  0.00  0.00    +0.000 C 
ENDBRANCH   9  10
ENDBRANCH   6   9
ENDBRANCH   2   3
BRANCH   2  16
ATOM     16  N   UNL     1      48.553   7.423  15.075  0.00  0.00    +0.000 N 
ATOM     17  C   UNL     1      49.747   6.957  15.578  0.00  0.00    +0.000 C 
ATOM     18  O   UNL     1      50.831   7.249  15.092  0.00  0.00    +0.000 OA
ATOM     19  H   UNL     1      47.732   6.854  15.259  0.00  0.00    +0.000 HD
BRANCH  17  20
ATOM     20  C   UNL     1      49.662   6.128  16.781  0.00  0.00    +0.000 A 
ATOM     21  C   UNL     1      50.491   6.405  17.864  0.00  0.00    +0.000 A 
ATOM     22  S   UNL     1      50.262   5.354  19.183  0.00  0.00    +0.000 S 
ATOM     23  C   UNL     1      49.076   4.470  18.346  0.00  0.00    +0.000 A 
ATOM     24  N   UNL     1      48.481   3.383  18.910  0.00  0.00    +0.000 NA
ATOM     25  C   UNL     1      47.623   2.792  18.151  0.00  0.00    +0.000 A 
ATOM     26  N   UNL     1      47.295   3.192  16.878  0.00  0.00    +0.000 N 
ATOM     27  C   UNL     1      47.841   4.297  16.281  0.00  0.00    +0.000 A 
ATOM     28  O   UNL     1      47.489   4.669  15.168  0.00  0.00    +0.000 OA
ATOM     29  C   UNL     1      48.835   4.988  17.086  0.00  0.00    +0.000 A 
ATOM     30  H   UNL     1      46.607   2.684  16.338  0.00  0.00    +0.000 HD
ENDBRANCH  17  20
ENDBRANCH   2  16
TORSDOF 5
ENDMDL
MODEL 6
REMARK VINA RESULT:    -7.122      3.624      9.248
REMARK INTER + INTRA:          -9.478
REMARK INTER:                  -8.590
REMARK INTRA:                  -0.888
REMARK UNBOUND:                -0.275
REMARK  Name = 
REMARK  6 active torsions:
REMARK  status: ('A' for Active; 'I' for Inactive)
REMARK    1  A    between atoms: C_1  and  C_2
REMARK    2  A    between atoms: C_2  and  N_3
REMARK    3  A    between atoms: C_2  and  C_16
REMARK    4  A    between atoms: C_4  and  C_6
REMARK    5  A    between atoms: C_19  and  C_20
REMARK    6  A    between atoms: C_20  and  N_21
REMARK                            x       y       z     vdW  Elec       q    Type
REMARK                         _______ _______ _______ _____ _____    ______ ____
ROOT
ATOM      1  C   UNL     1      49.890   7.978  11.760  0.00  0.00    +0.000 C 
ATOM      2  C   UNL     1      48.595   7.594  12.486  0.00  0.00    +0.000 C 
ENDROOT
BRANCH   2   3
ATOM      3  C   UNL     1      48.926   7.142  13.903  0.00  0.00    +0.000 A 
ATOM      4  C   UNL     1      48.115   6.167  14.497  0.00  0.00    +0.000 A 
ATOM      5  C   UNL     1      48.313   5.769  15.821  0.00  0.00    +0.000 A 
ATOM      6  C   UNL     1      49.339   6.326  16.594  0.00  0.00    +0.000 A 
ATOM      7  C   UNL     1      50.164   7.295  16.002  0.00  0.00    +0.000 A 
ATOM      8  C   UNL     1      49.956   7.706  14.674  0.00  0.00    +0.000 A 
BRANCH   6   9
ATOM      9  C   UNL     1      49.454   5.975  18.062  0.00  0.00    +0.000 C 
BRANCH   9  10
ATOM     10  N   UNL     1      48.355   5.287  18.736  0.00  0.00    +0.000 NA
ATOM     11  C   UNL     1      47.285   6.121  19.281  0.00  0.00    +0.000 C 
ATOM     12  C   UNL     1      47.487   6.540  20.745  0.00  0.00    +0.000 C 
ATOM     13  O   UNL     1      47.744   5.414  21.594  0.00  0.00    +0.000 OA
ATOM     14  C   UNL     1      48.865   4.651  21.133  0.00  0.00    +0.000 C 
ATOM     15  C   UNL     1      48.703   4.213  19.669  0.00  0.00    +0.000 C 
ENDBRANCH   9  10
ENDBRANCH   6   9
ENDBRANCH   2   3
BRANCH   2  16
ATOM     16  N   UNL     1      47.816   6.602  11.770  0.00  0.00    +0.000 N 
ATOM     17  C   UNL     1      46.452   6.727  11.623  0.00  0.00    +0.000 C 
ATOM     18  O   UNL     1      45.829   7.704  12.017  0.00  0.00    +0.000 OA
ATOM     19  H   UNL     1      48.183   5.655  11.790  0.00  0.00    +0.000 HD
BRANCH  17  20
ATOM     20  C   UNL     1      45.777   5.644  10.909  0.00  0.00    +0.000 A 
ATOM     21  C   UNL     1      45.844   5.593   9.519  0.00  0.00    +0.000 A 
ATOM     22  S   UNL     1      45.013   4.270   8.845  0.00  0.00    +0.000 S 
ATOM     23  C   UNL     1      44.502   3.738  10.376  0.00  0.00    +0.000 A 
ATOM     24  N   UNL     1      43.704   2.642  10.509  0.00  0.00    +0.000 NA
ATOM     25  C   UNL     1      43.371   2.372  11.725  0.00  0.00    +0.000 A 
ATOM     26  N   UNL     1      43.769   3.090  12.826  0.00  0.00    +0.000 N 
ATOM     27  C   UNL     1      44.597   4.177  12.746  0.00  0.00    +0.000 A 
ATOM     28  O   UNL     1      44.987   4.766  13.747  0.00  0.00    +0.000 OA
ATOM     29  C   UNL     1      44.985   4.542  11.393  0.00  0.00    +0.000 A 
ATOM     30  H   UNL     1      43.474   2.819  13.754  0.00  0.00    +0.000 HD
ENDBRANCH  17  20
ENDBRANCH   2  16
TORSDOF 5
ENDMDL
MODEL 7
REMARK VINA RESULT:    -7.074      3.083      9.666
REMARK INTER + INTRA:          -9.416
REMARK INTER:                  -8.359
REMARK INTRA:                  -1.058
REMARK UNBOUND:                -0.275
REMARK  Name = 
REMARK  6 active torsions:
REMARK  status: ('A' for Active; 'I' for Inactive)
REMARK    1  A    between atoms: C_1  and  C_2
REMARK    2  A    between atoms: C_2  and  N_3
REMARK    3  A    between atoms: C_2  and  C_16
REMARK    4  A    between atoms: C_4  and  C_6
REMARK    5  A    between atoms: C_19  and  C_20
REMARK    6  A    between atoms: C_20  and  N_21
REMARK                            x       y       z     vdW  Elec       q    Type
REMARK                         _______ _______ _______ _____ _____    ______ ____
ROOT
ATOM      1  C   UNL     1      48.951   7.944  11.457  0.00  0.00    +0.000 C 
ATOM      2  C   UNL     1      47.717   7.756  12.348  0.00  0.00    +0.000 C 
ENDROOT
BRANCH   2   3
ATOM      3  C   UNL     1      48.139   7.805  13.811  0.00  0.00    +0.000 A 
ATOM      4  C   UNL     1      48.560   6.617  14.422  0.00  0.00    +0.000 A 
ATOM      5  C   UNL     1      48.881   6.576  15.781  0.00  0.00    +0.000 A 
ATOM      6  C   UNL     1      48.801   7.727  16.574  0.00  0.00    +0.000 A 
ATOM      7  C   UNL     1      48.390   8.924  15.966  0.00  0.00    +0.000 A 
ATOM      8  C   UNL     1      48.054   8.963  14.602  0.00  0.00    +0.000 A 
BRANCH   6   9
ATOM      9  C   UNL     1      49.028   7.632  18.068  0.00  0.00    +0.000 C 
BRANCH   9  10
ATOM     10  N   UNL     1      48.820   6.361  18.758  0.00  0.00    +0.000 NA
ATOM     11  C   UNL     1      47.495   6.125  19.329  0.00  0.00    +0.000 C 
ATOM     12  C   UNL     1      47.345   6.569  20.793  0.00  0.00    +0.000 C 
ATOM     13  O   UNL     1      48.371   6.018  21.628  0.00  0.00    +0.000 OA
ATOM     14  C   UNL     1      49.679   6.340  21.139  0.00  0.00    +0.000 C 
ATOM     15  C   UNL     1      49.870   5.913  19.676  0.00  0.00    +0.000 C 
ENDBRANCH   9  10
ENDBRANCH   6   9
ENDBRANCH   2   3
BRANCH   2  16
ATOM     16  N   UNL     1      46.973   6.551  12.039  0.00  0.00    +0.000 N 
ATOM     17  C   UNL     1      45.595   6.537  12.036  0.00  0.00    +0.000 C 
ATOM     18  O   UNL     1      44.921   7.541  12.218  0.00  0.00    +0.000 OA
ATOM     19  H   UNL     1      47.433   5.676  12.275  0.00  0.00    +0.000 HD
BRANCH  17  20
ATOM     20  C   UNL     1      44.963   5.251  11.741  0.00  0.00    +0.000 A 
ATOM     21  C   UNL     1      44.245   4.596  12.738  0.00  0.00    +0.000 A 
ATOM     22  S   UNL     1      43.568   3.119  12.231  0.00  0.00    +0.000 S 
ATOM     23  C   UNL     1      44.238   3.280  10.678  0.00  0.00    +0.000 A 
ATOM     24  N   UNL     1      44.065   2.313   9.734  0.00  0.00    +0.000 NA
ATOM     25  C   UNL     1      44.653   2.554   8.612  0.00  0.00    +0.000 A 
ATOM     26  N   UNL     1      45.393   3.679   8.339  0.00  0.00    +0.000 N 
ATOM     27  C   UNL     1      45.567   4.692   9.244  0.00  0.00    +0.000 A 
ATOM     28  O   UNL     1      46.181   5.713   8.957  0.00  0.00    +0.000 OA
ATOM     29  C   UNL     1      44.944   4.461  10.536  0.00  0.00    +0.000 A 
ATOM     30  H   UNL     1      45.824   3.807   7.434  0.00  0.00    +0.000 HD
ENDBRANCH  17  20
ENDBRANCH   2  16
TORSDOF 5
ENDMDL
MODEL 8
REMARK VINA RESULT:    -6.795      3.823      5.349
REMARK INTER + INTRA:          -9.056
REMARK INTER:                  -8.062
REMARK INTRA:                  -0.994
REMARK UNBOUND:                -0.275
REMARK  Name = 
REMARK  6 active torsions:
REMARK  status: ('A' for Active; 'I' for Inactive)
REMARK    1  A    between atoms: C_1  and  C_2
REMARK    2  A    between atoms: C_2  and  N_3
REMARK    3  A    between atoms: C_2  and  C_16
REMARK    4  A    between atoms: C_4  and  C_6
REMARK    5  A    between atoms: C_19  and  C_20
REMARK    6  A    between atoms: C_20  and  N_21
REMARK                            x       y       z     vdW  Elec       q    Type
REMARK                         _______ _______ _______ _____ _____    ______ ____
ROOT
ATOM      1  C   UNL     1      48.373   9.577  14.314  0.00  0.00    +0.000 C 
ATOM      2  C   UNL     1      48.353   8.048  14.189  0.00  0.00    +0.000 C 
ENDROOT
BRANCH   2   3
ATOM      3  C   UNL     1      47.285   7.638  13.182  0.00  0.00    +0.000 A 
ATOM      4  C   UNL     1      46.079   8.349  13.166  0.00  0.00    +0.000 A 
ATOM      5  C   UNL     1      45.028   7.972  12.325  0.00  0.00    +0.000 A 
ATOM      6  C   UNL     1      45.154   6.877  11.462  0.00  0.00    +0.000 A 
ATOM      7  C   UNL     1      46.365   6.167  11.465  0.00  0.00    +0.000 A 
ATOM      8  C   UNL     1      47.417   6.537  12.320  0.00  0.00    +0.000 A 
BRANCH   6   9
ATOM      9  C   UNL     1      43.961   6.410  10.656  0.00  0.00    +0.000 C 
BRANCH   9  10
ATOM     10  N   UNL     1      43.204   5.236  11.085  0.00  0.00    +0.000 NA
ATOM     11  C   UNL     1      42.860   5.151  12.504  0.00  0.00    +0.000 C 
ATOM     12  C   UNL     1      43.886   4.396  13.363  0.00  0.00    +0.000 C 
ATOM     13  O   UNL     1      44.186   3.101  12.827  0.00  0.00    +0.000 OA
ATOM     14  C   UNL     1      44.634   3.184  11.469  0.00  0.00    +0.000 C 
ATOM     15  C   UNL     1      43.635   3.933  10.575  0.00  0.00    +0.000 C 
ENDBRANCH   9  10
ENDBRANCH   6   9
ENDBRANCH   2   3
BRANCH   2  16
ATOM     16  N   UNL     1      48.180   7.378  15.464  0.00  0.00    +0.000 N 
ATOM     17  C   UNL     1      49.193   6.632  16.027  0.00  0.00    +0.000 C 
ATOM     18  O   UNL     1      50.309   6.550  15.533  0.00  0.00    +0.000 OA
ATOM     19  H   UNL     1      47.231   7.092  15.686  0.00  0.00    +0.000 HD
BRANCH  17  20
ATOM     20  C   UNL     1      48.883   5.978  17.299  0.00  0.00    +0.000 A 
ATOM     21  C   UNL     1      49.030   4.599  17.413  0.00  0.00    +0.000 A 
ATOM     22  S   UNL     1      48.636   3.998  18.957  0.00  0.00    +0.000 S 
ATOM     23  C   UNL     1      48.219   5.548  19.516  0.00  0.00    +0.000 A 
ATOM     24  N   UNL     1      47.754   5.737  20.782  0.00  0.00    +0.000 NA
ATOM     25  C   UNL     1      47.450   6.958  21.060  0.00  0.00    +0.000 A 
ATOM     26  N   UNL     1      47.577   8.016  20.192  0.00  0.00    +0.000 N 
ATOM     27  C   UNL     1      48.072   7.881  18.923  0.00  0.00    +0.000 A 
ATOM     28  O   UNL     1      48.232   8.849  18.188  0.00  0.00    +0.000 OA
ATOM     29  C   UNL     1      48.408   6.518  18.548  0.00  0.00    +0.000 A 
ATOM     30  H   UNL     1      47.325   8.952  20.478  0.00  0.00    +0.000 HD
ENDBRANCH  17  20
ENDBRANCH   2  16
TORSDOF 5
ENDMDL
MODEL 9
REMARK VINA RESULT:    -6.339      3.975      5.747
REMARK INTER + INTRA:          -8.467
REMARK INTER:                  -7.670
REMARK INTRA:                  -0.797
REMARK UNBOUND:                -0.275
REMARK  Name = 
REMARK  6 active torsions:
REMARK  status: ('A' for Active; 'I' for Inactive)
REMARK    1  A    between atoms: C_1  and  C_2
REMARK    2  A    between atoms: C_2  and  N_3
REMARK    3  A    between atoms: C_2  and  C_16
REMARK    4  A    between atoms: C_4  and  C_6
REMARK    5  A    between atoms: C_19  and  C_20
REMARK    6  A    between atoms: C_20  and  N_21
REMARK                            x       y       z     vdW  Elec       q    Type
REMARK                         _______ _______ _______ _____ _____    ______ ____
ROOT
ATOM      1  C   UNL     1      48.470   9.193  13.313  0.00  0.00    +0.000 C 
ATOM      2  C   UNL     1      48.469   8.085  14.373  0.00  0.00    +0.000 C 
ENDROOT
BRANCH   2   3
ATOM      3  C   UNL     1      47.654   6.901  13.866  0.00  0.00    +0.000 A 
ATOM      4  C   UNL     1      47.490   5.797  14.711  0.00  0.00    +0.000 A 
ATOM      5  C   UNL     1      46.825   4.647  14.277  0.00  0.00    +0.000 A 
ATOM      6  C   UNL     1      46.292   4.568  12.985  0.00  0.00    +0.000 A 
ATOM      7  C   UNL     1      46.443   5.676  12.136  0.00  0.00    +0.000 A 
ATOM      8  C   UNL     1      47.124   6.827  12.567  0.00  0.00    +0.000 A 
BRANCH   6   9
ATOM      9  C   UNL     1      45.691   3.268  12.495  0.00  0.00    +0.000 C 
BRANCH   9  10
ATOM     10  N   UNL     1      44.261   3.189  12.202  0.00  0.00    +0.000 NA
ATOM     11  C   UNL     1      43.868   3.255  10.795  0.00  0.00    +0.000 C 
ATOM     12  C   UNL     1      43.559   4.671  10.287  0.00  0.00    +0.000 C 
ATOM     13  O   UNL     1      42.608   5.345  11.120  0.00  0.00    +0.000 OA
ATOM     14  C   UNL     1      43.038   5.387  12.485  0.00  0.00    +0.000 C 
ATOM     15  C   UNL     1      43.358   3.987  13.033  0.00  0.00    +0.000 C 
ENDBRANCH   9  10
ENDBRANCH   6   9
ENDBRANCH   2   3
BRANCH   2  16
ATOM     16  N   UNL     1      48.010   8.542  15.671  0.00  0.00    +0.000 N 
ATOM     17  C   UNL     1      48.875   8.674  16.734  0.00  0.00    +0.000 C 
ATOM     18  O   UNL     1      50.080   8.489  16.636  0.00  0.00    +0.000 OA
ATOM     19  H   UNL     1      47.044   8.324  15.898  0.00  0.00    +0.000 HD
BRANCH  17  20
ATOM     20  C   UNL     1      48.282   9.112  17.998  0.00  0.00    +0.000 A 
ATOM     21  C   UNL     1      47.923  10.447  18.160  0.00  0.00    +0.000 A 
ATOM     22  S   UNL     1      47.243  10.790  19.682  0.00  0.00    +0.000 S 
ATOM     23  C   UNL     1      47.438   9.181  20.195  0.00  0.00    +0.000 A 
ATOM     24  N   UNL     1      47.080   8.796  21.451  0.00  0.00    +0.000 NA
ATOM     25  C   UNL     1      47.311   7.555  21.712  0.00  0.00    +0.000 A 
ATOM     26  N   UNL     1      47.860   6.656  20.829  0.00  0.00    +0.000 N 
ATOM     27  C   UNL     1      48.204   6.988  19.547  0.00  0.00    +0.000 A 
ATOM     28  O   UNL     1      48.636   6.154  18.759  0.00  0.00    +0.000 OA
ATOM     29  C   UNL     1      47.986   8.384  19.206  0.00  0.00    +0.000 A 
ATOM     30  H   UNL     1      48.009   5.692  21.099  0.00  0.00    +0.000 HD
ENDBRANCH  17  20
ENDBRANCH   2  16
TORSDOF 5
ENDMDL
