MODEL 1
REMARK VINA RESULT:    -8.380      0.000      0.000
REMARK INTER + INTRA:         -11.059
REMARK INTER:                 -10.340
REMARK INTRA:                  -0.719
REMARK UNBOUND:                -0.719
REMARK  Name = 
REMARK  5 active torsions:
REMARK  status: ('A' for Active; 'I' for Inactive)
REMARK    1  A    between atoms: C_1  and  C_2
REMARK    2  A    between atoms: N_4  and  C_5
REMARK    3  A    between atoms: C_9  and  C_10
REMARK    4  A    between atoms: C_10  and  N_11
REMARK    5  A    between atoms: C_15  and  C_16
REMARK                            x       y       z     vdW  Elec       q    Type
REMARK                         _______ _______ _______ _____ _____    ______ ____
ROOT
ATOM      1  C   UNL     1      46.336   6.198  13.083  0.00  0.00    +0.000 A 
ATOM      2  C   UNL     1      46.908   5.106  13.751  0.00  0.00    +0.000 A 
ATOM      3  C   UNL     1      46.501   3.789  13.504  0.00  0.00    +0.000 A 
ATOM      4  C   UNL     1      45.482   3.530  12.593  0.00  0.00    +0.000 A 
ATOM      5  C   UNL     1      44.864   4.587  11.922  0.00  0.00    +0.000 A 
ATOM      6  C   UNL     1      45.327   5.900  12.151  0.00  0.00    +0.000 A 
ENDROOT
BRANCH   1  10
ATOM      7  C   UNL     1      49.242   8.091  11.531  0.00  0.00    +0.000 C 
ATOM      8  C   UNL     1      48.806   8.797  12.818  0.00  0.00    +0.000 C 
ATOM      9  C   UNL     1      48.097   7.826  13.802  0.00  0.00    +0.000 C 
ATOM     10  N   UNL     1      46.742   7.493  13.343  0.00  0.00    +0.000 N 
ATOM     11  C   UNL     1      45.896   8.649  13.008  0.00  0.00    +0.000 C 
ATOM     12  C   UNL     1      46.645   9.621  12.063  0.00  0.00    +0.000 C 
ATOM     13  N   UNL     1      47.998  10.007  12.519  0.00  0.00    +0.000 NA
ATOM     14  H   UNL     1      47.887  10.523  13.393  0.00  0.00    +0.000 HD
ENDBRANCH   1  10
BRANCH   5  15
ATOM     15  C   UNL     1      43.684   4.346  11.009  0.00  0.00    +0.000 C 
BRANCH  15  16
ATOM     16  N   UNL     1      44.003   4.694   9.641  0.00  0.00    +0.000 N 
ATOM     17  C   UNL     1      44.922   3.930   8.941  0.00  0.00    +0.000 A 
ATOM     18  C   UNL     1      45.064   2.542   9.072  0.00  0.00    +0.000 A 
ATOM     19  N   UNL     1      45.921   1.780   8.340  0.00  0.00    +0.000 NA
ATOM     20  C   UNL     1      46.638   2.476   7.418  0.00  0.00    +0.000 A 
ATOM     21  C   UNL     1      46.511   3.846   7.265  0.00  0.00    +0.000 A 
ATOM     22  N   UNL     1      45.662   4.594   8.025  0.00  0.00    +0.000 NA
ATOM     23  H   UNL     1      44.203   5.678   9.474  0.00  0.00    +0.000 HD
BRANCH  20  24
ATOM     24  C   UNL     1      47.578   1.709   6.551  0.00  0.00    +0.000 C 
ATOM     25  N   UNL     1      48.725   2.363   6.192  0.00  0.00    +0.000 N 
ATOM     26  O   UNL     1      47.339   0.567   6.180  0.00  0.00    +0.000 OA
ATOM     27  H   UNL     1      48.902   3.305   6.522  0.00  0.00    +0.000 HD
ATOM     28  H   UNL     1      49.405   1.891   5.614  0.00  0.00    +0.000 HD
ENDBRANCH  20  24
ENDBRANCH  15  16
ENDBRANCH   5  15
TORSDOF 4
ENDMDL
MODEL 2
REMARK VINA RESULT:    -7.932      1.630      2.771
REMARK INTER + INTRA:         -10.505
REMARK INTER:                  -9.812
REMARK INTRA:                  -0.693
REMARK UNBOUND:                -0.719
REMARK  Name = 
REMARK  5 active torsions:
REMARK  status: ('A' for Active; 'I' for Inactive)
REMARK    1  A    between atoms: C_1  and  C_2
REMARK    2  A    between atoms: N_4  and  C_5
REMARK    3  A    between atoms: C_9  and  C_10
REMARK    4  A    between atoms: C_10  and  N_11
REMARK    5  A    between atoms: C_15  and  C_16
REMARK                            x       y       z     vdW  Elec       q    Type
REMARK                         _______ _______ _______ _____ _____    ______ ____
ROOT
ATOM      1  C   UNL     1      46.428   6.352  13.050  0.00  0.00    +0.000 A 
ATOM      2  C   UNL     1      46.245   7.730  12.860  0.00  0.00    +0.000 A 
ATOM      3  C   UNL     1      45.165   8.241  12.130  0.00  0.00    +0.000 A 
ATOM      4  C   UNL     1      44.245   7.378  11.543  0.00  0.00    +0.000 A 
ATOM      5  C   UNL     1      44.399   5.998  11.684  0.00  0.00    +0.000 A 
ATOM      6  C   UNL     1      45.466   5.510  12.466  0.00  0.00    +0.000 A 
ENDROOT
BRANCH   1  10
ATOM      7  C   UNL     1      48.507   8.156  15.669  0.00  0.00    +0.000 C 
ATOM      8  C   UNL     1      49.270   6.923  15.177  0.00  0.00    +0.000 C 
ATOM      9  C   UNL     1      48.828   6.498  13.750  0.00  0.00    +0.000 C 
ATOM     10  N   UNL     1      47.503   5.862  13.766  0.00  0.00    +0.000 N 
ATOM     11  C   UNL     1      47.350   4.767  14.737  0.00  0.00    +0.000 C 
ATOM     12  C   UNL     1      47.840   5.206  16.139  0.00  0.00    +0.000 C 
ATOM     13  N   UNL     1      49.189   5.813  16.161  0.00  0.00    +0.000 NA
ATOM     14  H   UNL     1      49.849   5.094  15.864  0.00  0.00    +0.000 HD
ENDBRANCH   1  10
BRANCH   5  15
ATOM     15  C   UNL     1      43.479   5.035  10.969  0.00  0.00    +0.000 C 
BRANCH  15  16
ATOM     16  N   UNL     1      43.798   4.958   9.559  0.00  0.00    +0.000 N 
ATOM     17  C   UNL     1      44.639   3.955   9.104  0.00  0.00    +0.000 A 
ATOM     18  C   UNL     1      44.670   2.652   9.620  0.00  0.00    +0.000 A 
ATOM     19  N   UNL     1      45.448   1.648   9.134  0.00  0.00    +0.000 NA
ATOM     20  C   UNL     1      46.201   1.996   8.056  0.00  0.00    +0.000 A 
ATOM     21  C   UNL     1      46.182   3.274   7.525  0.00  0.00    +0.000 A 
ATOM     22  N   UNL     1      45.411   4.273   8.042  0.00  0.00    +0.000 NA
ATOM     23  H   UNL     1      44.074   5.836   9.124  0.00  0.00    +0.000 HD
BRANCH  20  24
ATOM     24  C   UNL     1      47.058   0.942   7.443  0.00  0.00    +0.000 C 
ATOM     25  N   UNL     1      48.017   1.385   6.573  0.00  0.00    +0.000 N 
ATOM     26  O   UNL     1      46.913  -0.247   7.697  0.00  0.00    +0.000 OA
ATOM     27  H   UNL     1      48.121   2.377   6.389  0.00  0.00    +0.000 HD
ATOM     28  H   UNL     1      48.635   0.719   6.134  0.00  0.00    +0.000 HD
ENDBRANCH  20  24
ENDBRANCH  15  16
ENDBRANCH   5  15
TORSDOF 4
ENDMDL
MODEL 3
REMARK VINA RESULT:    -7.162      2.281      3.090
REMARK INTER + INTRA:          -9.556
REMARK INTER:                  -8.938
REMARK INTRA:                  -0.617
REMARK UNBOUND:                -0.719
REMARK  Name = 
REMARK  5 active torsions:
REMARK  status: ('A' for Active; 'I' for Inactive)
REMARK    1  A    between atoms: C_1  and  C_2
REMARK    2  A    between atoms: N_4  and  C_5
REMARK    3  A    between atoms: C_9  and  C_10
REMARK    4  A    between atoms: C_10  and  N_11
REMARK    5  A    between atoms: C_15  and  C_16
REMARK                            x       y       z     vdW  Elec       q    Type
REMARK                         _______ _______ _______ _____ _____    ______ ____
ROOT
ATOM      1  C   UNL     1      44.704   8.906  11.585  0.00  0.00    +0.000 A 
ATOM      2  C   UNL     1      45.684   8.756  12.577  0.00  0.00    +0.000 A 
ATOM      3  C   UNL     1      46.112   7.496  13.012  0.00  0.00    +0.000 A 
ATOM      4  C   UNL     1      45.546   6.342  12.479  0.00  0.00    +0.000 A 
ATOM      5  C   UNL     1      44.549   6.441  11.507  0.00  0.00    +0.000 A 
ATOM      6  C   UNL     1      44.172   7.721  11.050  0.00  0.00    +0.000 A 
ENDROOT
BRANCH   1  10
ATOM      7  C   UNL     1      46.836  11.774  10.294  0.00  0.00    +0.000 C 
ATOM      8  C   UNL     1      45.463  12.311  10.711  0.00  0.00    +0.000 C 
ATOM      9  C   UNL     1      44.783  11.403  11.773  0.00  0.00    +0.000 C 
ATOM     10  N   UNL     1      44.285  10.157  11.173  0.00  0.00    +0.000 N 
ATOM     11  C   UNL     1      43.442  10.334   9.980  0.00  0.00    +0.000 C 
ATOM     12  C   UNL     1      44.126  11.279   8.960  0.00  0.00    +0.000 C 
ATOM     13  N   UNL     1      44.602  12.560   9.527  0.00  0.00    +0.000 NA
ATOM     14  H   UNL     1      43.780  13.071   9.850  0.00  0.00    +0.000 HD
ENDBRANCH   1  10
BRANCH   5  15
ATOM     15  C   UNL     1      43.841   5.210  10.989  0.00  0.00    +0.000 C 
BRANCH  15  16
ATOM     16  N   UNL     1      44.031   5.061   9.562  0.00  0.00    +0.000 N 
ATOM     17  C   UNL     1      44.805   4.016   9.084  0.00  0.00    +0.000 A 
ATOM     18  C   UNL     1      44.853   2.737   9.656  0.00  0.00    +0.000 A 
ATOM     19  N   UNL     1      45.562   1.691   9.152  0.00  0.00    +0.000 NA
ATOM     20  C   UNL     1      46.223   1.970   7.997  0.00  0.00    +0.000 A 
ATOM     21  C   UNL     1      46.185   3.223   7.409  0.00  0.00    +0.000 A 
ATOM     22  N   UNL     1      45.486   4.264   7.944  0.00  0.00    +0.000 NA
ATOM     23  H   UNL     1      44.287   5.910   9.063  0.00  0.00    +0.000 HD
BRANCH  20  24
ATOM     24  C   UNL     1      46.998   0.866   7.361  0.00  0.00    +0.000 C 
ATOM     25  N   UNL     1      47.817   1.232   6.328  0.00  0.00    +0.000 N 
ATOM     26  O   UNL     1      46.907  -0.296   7.737  0.00  0.00    +0.000 OA
ATOM     27  H   UNL     1      47.880   2.204   6.045  0.00  0.00    +0.000 HD
ATOM     28  H   UNL     1      48.375   0.530   5.864  0.00  0.00    +0.000 HD
ENDBRANCH  20  24
ENDBRANCH  15  16
ENDBRANCH   5  15
TORSDOF 4
ENDMDL
MODEL 4
REMARK VINA RESULT:    -6.807      4.998      8.275
REMARK INTER + INTRA:          -9.118
REMARK INTER:                  -8.478
REMARK INTRA:                  -0.640
REMARK UNBOUND:                -0.719
REMARK  Name = 
REMARK  5 active torsions:
REMARK  status: ('A' for Active; 'I' for Inactive)
REMARK    1  A    between atoms: C_1  and  C_2
REMARK    2  A    between atoms: N_4  and  C_5
REMARK    3  A    between atoms: C_9  and  C_10
REMARK    4  A    between atoms: C_10  and  N_11
REMARK    5  A    between atoms: C_15  and  C_16
REMARK                            x       y       z     vdW  Elec       q    Type
REMARK                         _______ _______ _______ _____ _____    ______ ____
ROOT
ATOM      1  C   UNL     1      46.268   5.502  12.854  0.00  0.00    +0.000 A 
ATOM      2  C   UNL     1      46.654   6.288  11.758  0.00  0.00    +0.000 A 
ATOM      3  C   UNL     1      47.707   7.207  11.839  0.00  0.00    +0.000 A 
ATOM      4  C   UNL     1      48.391   7.385  13.037  0.00  0.00    +0.000 A 
ATOM      5  C   UNL     1      48.027   6.644  14.162  0.00  0.00    +0.000 A 
ATOM      6  C   UNL     1      46.997   5.688  14.041  0.00  0.00    +0.000 A 
ENDROOT
BRANCH   1  10
ATOM      7  C   UNL     1      42.898   6.013  11.177  0.00  0.00    +0.000 C 
ATOM      8  C   UNL     1      42.814   4.815  12.128  0.00  0.00    +0.000 C 
ATOM      9  C   UNL     1      43.872   4.900  13.263  0.00  0.00    +0.000 C 
ATOM     10  N   UNL     1      45.221   4.605  12.762  0.00  0.00    +0.000 N 
ATOM     11  C   UNL     1      45.340   3.356  11.993  0.00  0.00    +0.000 C 
ATOM     12  C   UNL     1      44.246   3.280  10.899  0.00  0.00    +0.000 C 
ATOM     13  N   UNL     1      42.870   3.532  11.381  0.00  0.00    +0.000 NA
ATOM     14  H   UNL     1      42.639   2.787  12.039  0.00  0.00    +0.000 HD
ENDBRANCH   1  10
BRANCH   5  15
ATOM     15  C   UNL     1      48.679   6.892  15.503  0.00  0.00    +0.000 C 
BRANCH  15  16
ATOM     16  N   UNL     1      48.431   5.795  16.415  0.00  0.00    +0.000 N 
ATOM     17  C   UNL     1      49.481   4.975  16.795  0.00  0.00    +0.000 A 
ATOM     18  C   UNL     1      50.796   5.414  17.004  0.00  0.00    +0.000 A 
ATOM     19  N   UNL     1      51.814   4.625  17.439  0.00  0.00    +0.000 NA
ATOM     20  C   UNL     1      51.454   3.339  17.694  0.00  0.00    +0.000 A 
ATOM     21  C   UNL     1      50.161   2.883  17.502  0.00  0.00    +0.000 A 
ATOM     22  N   UNL     1      49.160   3.687  17.043  0.00  0.00    +0.000 NA
ATOM     23  H   UNL     1      47.628   5.212  16.190  0.00  0.00    +0.000 HD
BRANCH  20  24
ATOM     24  C   UNL     1      52.506   2.415  18.206  0.00  0.00    +0.000 C 
ATOM     25  N   UNL     1      52.197   1.083  18.171  0.00  0.00    +0.000 N 
ATOM     26  O   UNL     1      53.579   2.822  18.635  0.00  0.00    +0.000 OA
ATOM     27  H   UNL     1      51.305   0.774  17.801  0.00  0.00    +0.000 HD
ATOM     28  H   UNL     1      52.875   0.407  18.495  0.00  0.00    +0.000 HD
ENDBRANCH  20  24
ENDBRANCH  15  16
ENDBRANCH   5  15
TORSDOF 4
ENDMDL
MODEL 5
REMARK VINA RESULT:    -6.654      1.577      2.531
REMARK INTER + INTRA:          -8.929
REMARK INTER:                  -8.260
REMARK INTRA:                  -0.670
REMARK UNBOUND:                -0.719
REMARK  Name = 
REMARK  5 active torsions:
REMARK  status: ('A' for Active; 'I' for Inactive)
REMARK    1  A    between atoms: C_1  and  C_2
REMARK    2  A    between atoms: N_4  and  C_5
REMARK    3  A    between atoms: C_9  and  C_10
REMARK    4  A    between atoms: C_10  and  N_11
REMARK    5  A    between atoms: C_15  and  C_16
REMARK                            x       y       z     vdW  Elec       q    Type
REMARK                         _______ _______ _______ _____ _____    ______ ____
ROOT
ATOM      1  C   UNL     1      46.038   7.622  12.612  0.00  0.00    +0.000 A 
ATOM      2  C   UNL     1      45.600   8.883  12.183  0.00  0.00    +0.000 A 
ATOM      3  C   UNL     1      44.446   9.043  11.406  0.00  0.00    +0.000 A 
ATOM      4  C   UNL     1      43.708   7.931  11.011  0.00  0.00    +0.000 A 
ATOM      5  C   UNL     1      44.119   6.653  11.393  0.00  0.00    +0.000 A 
ATOM      6  C   UNL     1      45.256   6.523  12.218  0.00  0.00    +0.000 A 
ENDROOT
BRANCH   1  10
ATOM      7  C   UNL     1      49.650   7.861  11.457  0.00  0.00    +0.000 C 
ATOM      8  C   UNL     1      49.598   7.159  12.817  0.00  0.00    +0.000 C 
ATOM      9  C   UNL     1      48.222   6.484  13.070  0.00  0.00    +0.000 C 
ATOM     10  N   UNL     1      47.184   7.480  13.372  0.00  0.00    +0.000 N 
ATOM     11  C   UNL     1      47.529   8.437  14.434  0.00  0.00    +0.000 C 
ATOM     12  C   UNL     1      48.925   9.060  14.178  0.00  0.00    +0.000 C 
ATOM     13  N   UNL     1      50.000   8.079  13.912  0.00  0.00    +0.000 NA
ATOM     14  H   UNL     1      50.113   7.517  14.756  0.00  0.00    +0.000 HD
ENDBRANCH   1  10
BRANCH   5  15
ATOM     15  C   UNL     1      43.401   5.422  10.891  0.00  0.00    +0.000 C 
BRANCH  15  16
ATOM     16  N   UNL     1      44.259   4.257  10.948  0.00  0.00    +0.000 N 
ATOM     17  C   UNL     1      44.888   3.818   9.794  0.00  0.00    +0.000 A 
ATOM     18  C   UNL     1      45.378   4.660   8.787  0.00  0.00    +0.000 A 
ATOM     19  N   UNL     1      46.052   4.235   7.685  0.00  0.00    +0.000 NA
ATOM     20  C   UNL     1      46.251   2.891   7.636  0.00  0.00    +0.000 A 
ATOM     21  C   UNL     1      45.782   2.039   8.621  0.00  0.00    +0.000 A 
ATOM     22  N   UNL     1      45.089   2.484   9.708  0.00  0.00    +0.000 NA
ATOM     23  H   UNL     1      43.873   3.452  11.436  0.00  0.00    +0.000 HD
BRANCH  20  24
ATOM     24  C   UNL     1      47.011   2.347   6.475  0.00  0.00    +0.000 C 
ATOM     25  N   UNL     1      48.134   1.627   6.782  0.00  0.00    +0.000 N 
ATOM     26  O   UNL     1      46.657   2.533   5.317  0.00  0.00    +0.000 OA
ATOM     27  H   UNL     1      48.398   1.480   7.750  0.00  0.00    +0.000 HD
ATOM     28  H   UNL     1      48.685   1.224   6.037  0.00  0.00    +0.000 HD
ENDBRANCH  20  24
ENDBRANCH  15  16
ENDBRANCH   5  15
TORSDOF 4
ENDMDL
MODEL 6
REMARK VINA RESULT:    -6.518      3.666      6.166
REMARK INTER + INTRA:          -8.761
REMARK INTER:                  -8.092
REMARK INTRA:                  -0.669
REMARK UNBOUND:                -0.719
REMARK  Name = 
REMARK  5 active torsions:
REMARK  status: ('A' for Active; 'I' for Inactive)
REMARK    1  A    between atoms: C_1  and  C_2
REMARK    2  A    between atoms: N_4  and  C_5
REMARK    3  A    between atoms: C_9  and  C_10
REMARK    4  A    between atoms: C_10  and  N_11
REMARK    5  A    between atoms: C_15  and  C_16
REMARK                            x       y       z     vdW  Elec       q    Type
REMARK                         _______ _______ _______ _____ _____    ______ ____
ROOT
ATOM      1  C   UNL     1      48.834   6.817  16.960  0.00  0.00    +0.000 A 
ATOM      2  C   UNL     1      48.631   8.136  17.393  0.00  0.00    +0.000 A 
ATOM      3  C   UNL     1      48.383   9.181  16.495  0.00  0.00    +0.000 A 
ATOM      4  C   UNL     1      48.357   8.937  15.126  0.00  0.00    +0.000 A 
ATOM      5  C   UNL     1      48.579   7.645  14.645  0.00  0.00    +0.000 A 
ATOM      6  C   UNL     1      48.776   6.601  15.573  0.00  0.00    +0.000 A 
ENDROOT
BRANCH   1  10
ATOM      7  C   UNL     1      47.841   3.161  16.680  0.00  0.00    +0.000 C 
ATOM      8  C   UNL     1      48.203   3.477  18.133  0.00  0.00    +0.000 C 
ATOM      9  C   UNL     1      48.022   4.985  18.462  0.00  0.00    +0.000 C 
ATOM     10  N   UNL     1      49.086   5.797  17.857  0.00  0.00    +0.000 N 
ATOM     11  C   UNL     1      50.455   5.336  18.135  0.00  0.00    +0.000 C 
ATOM     12  C   UNL     1      50.594   3.821  17.841  0.00  0.00    +0.000 C 
ATOM     13  N   UNL     1      49.559   2.972  18.471  0.00  0.00    +0.000 NA
ATOM     14  H   UNL     1      49.672   3.056  19.482  0.00  0.00    +0.000 HD
ENDBRANCH   1  10
BRANCH   5  15
ATOM     15  C   UNL     1      48.664   7.370  13.162  0.00  0.00    +0.000 C 
BRANCH  15  16
ATOM     16  N   UNL     1      47.368   7.506  12.531  0.00  0.00    +0.000 N 
ATOM     17  C   UNL     1      46.625   6.371  12.250  0.00  0.00    +0.000 A 
ATOM     18  C   UNL     1      46.588   5.226  13.058  0.00  0.00    +0.000 A 
ATOM     19  N   UNL     1      45.811   4.136  12.819  0.00  0.00    +0.000 NA
ATOM     20  C   UNL     1      45.021   4.244  11.717  0.00  0.00    +0.000 A 
ATOM     21  C   UNL     1      45.035   5.367  10.907  0.00  0.00    +0.000 A 
ATOM     22  N   UNL     1      45.839   6.440  11.153  0.00  0.00    +0.000 NA
ATOM     23  H   UNL     1      47.336   8.124  11.723  0.00  0.00    +0.000 HD
BRANCH  20  24
ATOM     24  C   UNL     1      44.114   3.104  11.402  0.00  0.00    +0.000 C 
ATOM     25  N   UNL     1      43.685   2.370  12.474  0.00  0.00    +0.000 N 
ATOM     26  O   UNL     1      43.774   2.837  10.256  0.00  0.00    +0.000 OA
ATOM     27  H   UNL     1      43.975   2.620  13.414  0.00  0.00    +0.000 HD
ATOM     28  H   UNL     1      43.060   1.591  12.325  0.00  0.00    +0.000 HD
ENDBRANCH  20  24
ENDBRANCH  15  16
ENDBRANCH   5  15
TORSDOF 4
ENDMDL
MODEL 7
REMARK VINA RESULT:    -6.474      4.585      8.431
REMARK INTER + INTRA:          -8.707
REMARK INTER:                  -8.145
REMARK INTRA:                  -0.563
REMARK UNBOUND:                -0.719
REMARK  Name = 
REMARK  5 active torsions:
REMARK  status: ('A' for Active; 'I' for Inactive)
REMARK    1  A    between atoms: C_1  and  C_2
REMARK    2  A    between atoms: N_4  and  C_5
REMARK    3  A    between atoms: C_9  and  C_10
REMARK    4  A    between atoms: C_10  and  N_11
REMARK    5  A    between atoms: C_15  and  C_16
REMARK                            x       y       z     vdW  Elec       q    Type
REMARK                         _______ _______ _______ _____ _____    ______ ____
ROOT
ATOM      1  C   UNL     1      45.303   7.114  11.776  0.00  0.00    +0.000 A 
ATOM      2  C   UNL     1      45.003   8.477  11.633  0.00  0.00    +0.000 A 
ATOM      3  C   UNL     1      45.750   9.472  12.274  0.00  0.00    +0.000 A 
ATOM      4  C   UNL     1      46.810   9.126  13.105  0.00  0.00    +0.000 A 
ATOM      5  C   UNL     1      47.132   7.782  13.299  0.00  0.00    +0.000 A 
ATOM      6  C   UNL     1      46.396   6.801  12.601  0.00  0.00    +0.000 A 
ENDROOT
BRANCH   1  10
ATOM      7  C   UNL     1      45.377   3.360  12.354  0.00  0.00    +0.000 C 
ATOM      8  C   UNL     1      44.700   3.653  11.012  0.00  0.00    +0.000 C 
ATOM      9  C   UNL     1      45.153   5.015  10.418  0.00  0.00    +0.000 C 
ATOM     10  N   UNL     1      44.552   6.143  11.143  0.00  0.00    +0.000 N 
ATOM     11  C   UNL     1      43.091   6.072  11.302  0.00  0.00    +0.000 C 
ATOM     12  C   UNL     1      42.666   4.688  11.853  0.00  0.00    +0.000 C 
ATOM     13  N   UNL     1      43.223   3.532  11.118  0.00  0.00    +0.000 NA
ATOM     14  H   UNL     1      42.846   3.565  10.170  0.00  0.00    +0.000 HD
ENDBRANCH   1  10
BRANCH   5  15
ATOM     15  C   UNL     1      48.207   7.371  14.278  0.00  0.00    +0.000 C 
BRANCH  15  16
ATOM     16  N   UNL     1      47.919   6.076  14.857  0.00  0.00    +0.000 N 
ATOM     17  C   UNL     1      48.406   5.769  16.117  0.00  0.00    +0.000 A 
ATOM     18  C   UNL     1      48.523   6.689  17.168  0.00  0.00    +0.000 A 
ATOM     19  N   UNL     1      48.940   6.378  18.425  0.00  0.00    +0.000 NA
ATOM     20  C   UNL     1      49.220   5.060  18.610  0.00  0.00    +0.000 A 
ATOM     21  C   UNL     1      49.105   4.131  17.589  0.00  0.00    +0.000 A 
ATOM     22  N   UNL     1      48.707   4.469  16.330  0.00  0.00    +0.000 NA
ATOM     23  H   UNL     1      48.075   5.278  14.245  0.00  0.00    +0.000 HD
BRANCH  20  24
ATOM     24  C   UNL     1      49.653   4.629  19.969  0.00  0.00    +0.000 C 
ATOM     25  N   UNL     1      48.684   4.061  20.751  0.00  0.00    +0.000 N 
ATOM     26  O   UNL     1      50.802   4.776  20.366  0.00  0.00    +0.000 OA
ATOM     27  H   UNL     1      47.742   3.943  20.393  0.00  0.00    +0.000 HD
ATOM     28  H   UNL     1      48.920   3.740  21.679  0.00  0.00    +0.000 HD
ENDBRANCH  20  24
ENDBRANCH  15  16
ENDBRANCH   5  15
TORSDOF 4
ENDMDL
MODEL 8
REMARK VINA RESULT:    -6.174      3.142      7.174
REMARK INTER + INTRA:          -8.337
REMARK INTER:                  -7.654
REMARK INTRA:                  -0.683
REMARK UNBOUND:                -0.719
REMARK  Name = 
REMARK  5 active torsions:
REMARK  status: ('A' for Active; 'I' for Inactive)
REMARK    1  A    between atoms: C_1  and  C_2
REMARK    2  A    between atoms: N_4  and  C_5
REMARK    3  A    between atoms: C_9  and  C_10
REMARK    4  A    between atoms: C_10  and  N_11
REMARK    5  A    between atoms: C_15  and  C_16
REMARK                            x       y       z     vdW  Elec       q    Type
REMARK                         _______ _______ _______ _____ _____    ______ ____
ROOT
ATOM      1  C   UNL     1      44.411   3.332  10.103  0.00  0.00    +0.000 A 
ATOM      2  C   UNL     1      43.806   2.591  11.130  0.00  0.00    +0.000 A 
ATOM      3  C   UNL     1      43.538   3.148  12.386  0.00  0.00    +0.000 A 
ATOM      4  C   UNL     1      43.894   4.464  12.660  0.00  0.00    +0.000 A 
ATOM      5  C   UNL     1      44.521   5.233  11.678  0.00  0.00    +0.000 A 
ATOM      6  C   UNL     1      44.734   4.666  10.405  0.00  0.00    +0.000 A 
ENDROOT
BRANCH   1  10
ATOM      7  C   UNL     1      47.067   4.359   7.589  0.00  0.00    +0.000 C 
ATOM      8  C   UNL     1      46.020   3.486   6.892  0.00  0.00    +0.000 C 
ATOM      9  C   UNL     1      44.648   3.533   7.618  0.00  0.00    +0.000 C 
ATOM     10  N   UNL     1      44.678   2.766   8.871  0.00  0.00    +0.000 N 
ATOM     11  C   UNL     1      45.186   1.391   8.748  0.00  0.00    +0.000 C 
ATOM     12  C   UNL     1      46.532   1.371   7.980  0.00  0.00    +0.000 C 
ATOM     13  N   UNL     1      46.522   2.101   6.694  0.00  0.00    +0.000 NA
ATOM     14  H   UNL     1      45.861   1.623   6.080  0.00  0.00    +0.000 HD
ENDBRANCH   1  10
BRANCH   5  15
ATOM     15  C   UNL     1      45.016   6.629  11.980  0.00  0.00    +0.000 C 
BRANCH  15  16
ATOM     16  N   UNL     1      46.361   6.824  11.481  0.00  0.00    +0.000 N 
ATOM     17  C   UNL     1      47.398   7.022  12.379  0.00  0.00    +0.000 A 
ATOM     18  C   UNL     1      47.494   6.400  13.631  0.00  0.00    +0.000 A 
ATOM     19  N   UNL     1      48.542   6.543  14.486  0.00  0.00    +0.000 NA
ATOM     20  C   UNL     1      49.541   7.337  14.018  0.00  0.00    +0.000 A 
ATOM     21  C   UNL     1      49.472   7.957  12.782  0.00  0.00    +0.000 A 
ATOM     22  N   UNL     1      48.402   7.818  11.949  0.00  0.00    +0.000 NA
ATOM     23  H   UNL     1      46.454   7.496  10.723  0.00  0.00    +0.000 HD
BRANCH  20  24
ATOM     24  C   UNL     1      50.742   7.519  14.882  0.00  0.00    +0.000 C 
ATOM     25  N   UNL     1      51.932   7.669  14.224  0.00  0.00    +0.000 N 
ATOM     26  O   UNL     1      50.671   7.531  16.104  0.00  0.00    +0.000 OA
ATOM     27  H   UNL     1      51.960   7.665  13.210  0.00  0.00    +0.000 HD
ATOM     28  H   UNL     1      52.780   7.807  14.755  0.00  0.00    +0.000 HD
ENDBRANCH  20  24
ENDBRANCH  15  16
ENDBRANCH   5  15
TORSDOF 4
ENDMDL
MODEL 9
REMARK VINA RESULT:    -6.004      5.421      9.291
REMARK INTER + INTRA:          -8.127
REMARK INTER:                  -7.572
REMARK INTRA:                  -0.554
REMARK UNBOUND:                -0.719
REMARK  Name = 
REMARK  5 active torsions:
REMARK  status: ('A' for Active; 'I' for Inactive)
REMARK    1  A    between atoms: C_1  and  C_2
REMARK    2  A    between atoms: N_4  and  C_5
REMARK    3  A    between atoms: C_9  and  C_10
REMARK    4  A    between atoms: C_10  and  N_11
REMARK    5  A    between atoms: C_15  and  C_16
REMARK                            x       y       z     vdW  Elec       q    Type
REMARK                         _______ _______ _______ _____ _____    ______ ____
ROOT
ATOM      1  C   UNL     1      46.307   5.512  12.584  0.00  0.00    +0.000 A 
ATOM      2  C   UNL     1      46.602   6.305  11.464  0.00  0.00    +0.000 A 
ATOM      3  C   UNL     1      47.625   7.261  11.482  0.00  0.00    +0.000 A 
ATOM      4  C   UNL     1      48.368   7.471  12.639  0.00  0.00    +0.000 A 
ATOM      5  C   UNL     1      48.094   6.724  13.786  0.00  0.00    +0.000 A 
ATOM      6  C   UNL     1      47.093   5.732  13.727  0.00  0.00    +0.000 A 
ENDROOT
BRANCH   1  10
ATOM      7  C   UNL     1      42.741   5.984  11.361  0.00  0.00    +0.000 C 
ATOM      8  C   UNL     1      42.817   4.724  12.229  0.00  0.00    +0.000 C 
ATOM      9  C   UNL     1      44.001   4.781  13.232  0.00  0.00    +0.000 C 
ATOM     10  N   UNL     1      45.289   4.579  12.554  0.00  0.00    +0.000 N 
ATOM     11  C   UNL     1      45.358   3.390  11.691  0.00  0.00    +0.000 C 
ATOM     12  C   UNL     1      44.142   3.336  10.733  0.00  0.00    +0.000 C 
ATOM     13  N   UNL     1      42.827   3.496  11.392  0.00  0.00    +0.000 NA
ATOM     14  H   UNL     1      42.704   2.700  12.019  0.00  0.00    +0.000 HD
ENDBRANCH   1  10
BRANCH   5  15
ATOM     15  C   UNL     1      48.810   7.004  15.087  0.00  0.00    +0.000 C 
BRANCH  15  16
ATOM     16  N   UNL     1      48.387   6.086  16.124  0.00  0.00    +0.000 N 
ATOM     17  C   UNL     1      49.081   6.046  17.322  0.00  0.00    +0.000 A 
ATOM     18  C   UNL     1      49.648   7.164  17.949  0.00  0.00    +0.000 A 
ATOM     19  N   UNL     1      50.273   7.138  19.157  0.00  0.00    +0.000 NA
ATOM     20  C   UNL     1      50.288   5.916  19.752  0.00  0.00    +0.000 A 
ATOM     21  C   UNL     1      49.728   4.798  19.156  0.00  0.00    +0.000 A 
ATOM     22  N   UNL     1      49.126   4.842  17.934  0.00  0.00    +0.000 NA
ATOM     23  H   UNL     1      48.210   5.132  15.818  0.00  0.00    +0.000 HD
BRANCH  20  24
ATOM     24  C   UNL     1      50.926   5.808  21.095  0.00  0.00    +0.000 C 
ATOM     25  N   UNL     1      50.997   4.547  21.622  0.00  0.00    +0.000 N 
ATOM     26  O   UNL     1      51.358   6.786  21.692  0.00  0.00    +0.000 OA
ATOM     27  H   UNL     1      50.640   3.754  21.100  0.00  0.00    +0.000 HD
ATOM     28  H   UNL     1      51.429   4.410  22.524  0.00  0.00    +0.000 HD
ENDBRANCH  20  24
ENDBRANCH  15  16
ENDBRANCH   5  15
TORSDOF 4
ENDMDL
