MODEL 1
REMARK VINA RESULT:    -8.117      0.000      0.000
REMARK INTER + INTRA:         -12.555
REMARK INTER:                 -11.439
REMARK INTRA:                  -1.116
REMARK UNBOUND:                -1.116
REMARK  Name = 
REMARK  8 active torsions:
REMARK  status: ('A' for Active; 'I' for Inactive)
REMARK    1  A    between atoms: C_1  and  O_2
REMARK    2  A    between atoms: O_2  and  C_3
REMARK    3  A    between atoms: C_7  and  C_8
REMARK    4  A    between atoms: C_8  and  N_9
REMARK    5  A    between atoms: N_9  and  C_10
REMARK    6  A    between atoms: C_13  and  C_14
REMARK    7  A    between atoms: C_14  and  N_15
REMARK    8  A    between atoms: C_16  and  C_18
REMARK                            x       y       z     vdW  Elec       q    Type
REMARK                         _______ _______ _______ _____ _____    ______ ____
ROOT
ATOM      1  C   UNL     1      46.610   1.772   7.325  0.00  0.00    +0.000 A 
ATOM      2  C   UNL     1      45.845   1.206   8.349  0.00  0.00    +0.000 A 
ATOM      3  C   UNL     1      45.010   2.002   9.149  0.00  0.00    +0.000 A 
ATOM      4  C   UNL     1      44.918   3.382   8.933  0.00  0.00    +0.000 A 
ATOM      5  C   UNL     1      45.755   3.962   7.975  0.00  0.00    +0.000 A 
ATOM      6  C   UNL     1      46.595   3.165   7.192  0.00  0.00    +0.000 A 
ENDROOT
BRANCH   1   7
ATOM      7  N   UNL     1      47.416   1.049   6.444  0.00  0.00    +0.000 N 
ATOM      8  H   UNL     1      47.165   0.062   6.433  0.00  0.00    +0.000 HD
BRANCH   7   9
ATOM      9  C   UNL     1      47.681   1.568   5.111  0.00  0.00    +0.000 C 
BRANCH   9  14
ATOM     10  C   UNL     1      46.299  -1.429   3.158  0.00  0.00    +0.000 A 
ATOM     11  C   UNL     1      45.436  -0.795   2.264  0.00  0.00    +0.000 A 
ATOM     12  C   UNL     1      45.324   0.598   2.269  0.00  0.00    +0.000 A 
ATOM     13  C   UNL     1      46.066   1.360   3.173  0.00  0.00    +0.000 A 
ATOM     14  C   UNL     1      46.937   0.743   4.083  0.00  0.00    +0.000 A 
ATOM     15  C   UNL     1      47.050  -0.654   4.055  0.00  0.00    +0.000 A 
BRANCH  10  17
ATOM     16  C   UNL     1      46.543  -3.318   4.583  0.00  0.00    +0.000 C 
ATOM     17  O   UNL     1      46.491  -2.780   3.268  0.00  0.00    +0.000 OA
ENDBRANCH  10  17
ENDBRANCH   9  14
ENDBRANCH   7   9
ENDBRANCH   1   7
BRANCH   4  18
ATOM     18  C   UNL     1      43.971   4.243   9.730  0.00  0.00    +0.000 C 
BRANCH  18  19
ATOM     19  N   UNL     1      44.670   5.330  10.359  0.00  0.00    +0.000 N 
ATOM     20  C   UNL     1      44.033   6.209  11.197  0.00  0.00    +0.000 C 
ATOM     21  O   UNL     1      42.851   6.084  11.503  0.00  0.00    +0.000 OA
ATOM     22  H   UNL     1      45.548   5.604   9.932  0.00  0.00    +0.000 HD
BRANCH  20  23
ATOM     23  C   UNL     1      44.869   7.271  11.771  0.00  0.00    +0.000 A 
ATOM     24  C   UNL     1      44.615   8.600  11.459  0.00  0.00    +0.000 A 
ATOM     25  S   UNL     1      45.615   9.702  12.295  0.00  0.00    +0.000 S 
ATOM     26  C   UNL     1      46.462   8.438  13.060  0.00  0.00    +0.000 A 
ATOM     27  N   UNL     1      47.475   8.699  13.929  0.00  0.00    +0.000 NA
ATOM     28  C   UNL     1      48.049   7.646  14.411  0.00  0.00    +0.000 A 
ATOM     29  N   UNL     1      47.703   6.357  14.099  0.00  0.00    +0.000 N 
ATOM     30  C   UNL     1      46.679   6.047  13.238  0.00  0.00    +0.000 A 
ATOM     31  O   UNL     1      46.386   4.881  12.991  0.00  0.00    +0.000 OA
ATOM     32  C   UNL     1      45.990   7.195  12.680  0.00  0.00    +0.000 A 
ATOM     33  H   UNL     1      48.195   5.574  14.504  0.00  0.00    +0.000 HD
ENDBRANCH  20  23
ENDBRANCH  18  19
ENDBRANCH   4  18
TORSDOF 7
ENDMDL
MODEL 2
REMARK VINA RESULT:    -7.791      3.717      6.755
REMARK INTER + INTRA:         -12.095
REMARK INTER:                 -10.838
REMARK INTRA:                  -1.256
REMARK UNBOUND:                -1.116
REMARK  Name = 
REMARK  8 active torsions:
REMARK  status: ('A' for Active; 'I' for Inactive)
REMARK    1  A    between atoms: C_1  and  O_2
REMARK    2  A    between atoms: O_2  and  C_3
REMARK    3  A    between atoms: C_7  and  C_8
REMARK    4  A    between atoms: C_8  and  N_9
REMARK    5  A    between atoms: N_9  and  C_10
REMARK    6  A    between atoms: C_13  and  C_14
REMARK    7  A    between atoms: C_14  and  N_15
REMARK    8  A    between atoms: C_16  and  C_18
REMARK                            x       y       z     vdW  Elec       q    Type
REMARK                         _______ _______ _______ _____ _____    ______ ____
ROOT
ATOM      1  C   UNL     1      45.254   6.796  11.276  0.00  0.00    +0.000 A 
ATOM      2  C   UNL     1      46.488   6.216  11.587  0.00  0.00    +0.000 A 
ATOM      3  C   UNL     1      47.350   6.812  12.520  0.00  0.00    +0.000 A 
ATOM      4  C   UNL     1      46.990   8.000  13.167  0.00  0.00    +0.000 A 
ATOM      5  C   UNL     1      45.803   8.631  12.785  0.00  0.00    +0.000 A 
ATOM      6  C   UNL     1      44.956   8.039  11.845  0.00  0.00    +0.000 A 
ENDROOT
BRANCH   1   7
ATOM      7  N   UNL     1      44.311   6.240  10.410  0.00  0.00    +0.000 N 
ATOM      8  H   UNL     1      44.571   6.380   9.436  0.00  0.00    +0.000 HD
BRANCH   7   9
ATOM      9  C   UNL     1      43.797   4.901  10.661  0.00  0.00    +0.000 C 
BRANCH   9  14
ATOM     10  C   UNL     1      45.830   3.460   7.745  0.00  0.00    +0.000 A 
ATOM     11  C   UNL     1      45.759   2.093   8.015  0.00  0.00    +0.000 A 
ATOM     12  C   UNL     1      45.032   1.635   9.116  0.00  0.00    +0.000 A 
ATOM     13  C   UNL     1      44.381   2.541   9.956  0.00  0.00    +0.000 A 
ATOM     14  C   UNL     1      44.442   3.919   9.704  0.00  0.00    +0.000 A 
ATOM     15  C   UNL     1      45.163   4.363   8.587  0.00  0.00    +0.000 A 
BRANCH  10  17
ATOM     16  C   UNL     1      46.933   3.186   5.655  0.00  0.00    +0.000 C 
ATOM     17  O   UNL     1      46.517   4.041   6.713  0.00  0.00    +0.000 OA
ENDBRANCH  10  17
ENDBRANCH   9  14
ENDBRANCH   7   9
ENDBRANCH   1   7
BRANCH   4  18
ATOM     18  C   UNL     1      47.868   8.617  14.227  0.00  0.00    +0.000 C 
BRANCH  18  19
ATOM     19  N   UNL     1      48.111   7.689  15.298  0.00  0.00    +0.000 N 
ATOM     20  C   UNL     1      49.317   7.053  15.442  0.00  0.00    +0.000 C 
ATOM     21  O   UNL     1      50.272   7.283  14.705  0.00  0.00    +0.000 OA
ATOM     22  H   UNL     1      47.289   7.296  15.743  0.00  0.00    +0.000 HD
BRANCH  20  23
ATOM     23  C   UNL     1      49.426   6.132  16.581  0.00  0.00    +0.000 A 
ATOM     24  C   UNL     1      50.405   6.333  17.545  0.00  0.00    +0.000 A 
ATOM     25  S   UNL     1      50.319   5.232  18.846  0.00  0.00    +0.000 S 
ATOM     26  C   UNL     1      49.007   4.411  18.137  0.00  0.00    +0.000 A 
ATOM     27  N   UNL     1      48.437   3.338  18.749  0.00  0.00    +0.000 NA
ATOM     28  C   UNL     1      47.473   2.794  18.084  0.00  0.00    +0.000 A 
ATOM     29  N   UNL     1      47.029   3.223  16.861  0.00  0.00    +0.000 N 
ATOM     30  C   UNL     1      47.564   4.309  16.212  0.00  0.00    +0.000 A 
ATOM     31  O   UNL     1      47.135   4.676  15.123  0.00  0.00    +0.000 OA
ATOM     32  C   UNL     1      48.643   4.967  16.924  0.00  0.00    +0.000 A 
ATOM     33  H   UNL     1      46.273   2.751  16.387  0.00  0.00    +0.000 HD
ENDBRANCH  20  23
ENDBRANCH  18  19
ENDBRANCH   4  18
TORSDOF 7
ENDMDL
MODEL 3
REMARK VINA RESULT:    -7.771      1.327      2.088
REMARK INTER + INTRA:         -12.067
REMARK INTER:                 -10.973
REMARK INTRA:                  -1.094
REMARK UNBOUND:                -1.116
REMARK  Name = 
REMARK  8 active torsions:
REMARK  status: ('A' for Active; 'I' for Inactive)
REMARK    1  A    between atoms: C_1  and  O_2
REMARK    2  A    between atoms: O_2  and  C_3
REMARK    3  A    between atoms: C_7  and  C_8
REMARK    4  A    between atoms: C_8  and  N_9
REMARK    5  A    between atoms: N_9  and  C_10
REMARK    6  A    between atoms: C_13  and  C_14
REMARK    7  A    between atoms: C_14  and  N_15
REMARK    8  A    between atoms: C_16  and  C_18
REMARK                            x       y       z     vdW  Elec       q    Type
REMARK                         _______ _______ _______ _____ _____    ______ ____
ROOT
ATOM      1  C   UNL     1      46.623   1.873   7.143  0.00  0.00    +0.000 A 
ATOM      2  C   UNL     1      45.979   1.301   8.244  0.00  0.00    +0.000 A 
ATOM      3  C   UNL     1      45.226   2.089   9.128  0.00  0.00    +0.000 A 
ATOM      4  C   UNL     1      45.096   3.467   8.923  0.00  0.00    +0.000 A 
ATOM      5  C   UNL     1      45.819   4.054   7.880  0.00  0.00    +0.000 A 
ATOM      6  C   UNL     1      46.579   3.266   7.012  0.00  0.00    +0.000 A 
ENDROOT
BRANCH   1   7
ATOM      7  N   UNL     1      47.338   1.158   6.181  0.00  0.00    +0.000 N 
ATOM      8  H   UNL     1      47.114   0.165   6.211  0.00  0.00    +0.000 HD
BRANCH   7   9
ATOM      9  C   UNL     1      47.428   1.664   4.819  0.00  0.00    +0.000 C 
BRANCH   9  14
ATOM     10  C   UNL     1      46.353  -1.607   3.131  0.00  0.00    +0.000 A 
ATOM     11  C   UNL     1      45.442  -1.138   2.185  0.00  0.00    +0.000 A 
ATOM     12  C   UNL     1      45.199   0.233   2.069  0.00  0.00    +0.000 A 
ATOM     13  C   UNL     1      45.857   1.138   2.905  0.00  0.00    +0.000 A 
ATOM     14  C   UNL     1      46.774   0.686   3.865  0.00  0.00    +0.000 A 
ATOM     15  C   UNL     1      47.019  -0.691   3.959  0.00  0.00    +0.000 A 
BRANCH  10  17
ATOM     16  C   UNL     1      46.541  -3.393   4.692  0.00  0.00    +0.000 C 
ATOM     17  O   UNL     1      46.671  -2.920   3.358  0.00  0.00    +0.000 OA
ENDBRANCH  10  17
ENDBRANCH   9  14
ENDBRANCH   7   9
ENDBRANCH   1   7
BRANCH   4  18
ATOM     18  C   UNL     1      44.231   4.318   9.817  0.00  0.00    +0.000 C 
BRANCH  18  19
ATOM     19  N   UNL     1      44.985   5.406  10.379  0.00  0.00    +0.000 N 
ATOM     20  C   UNL     1      45.530   5.334  11.635  0.00  0.00    +0.000 C 
ATOM     21  O   UNL     1      45.456   4.320  12.325  0.00  0.00    +0.000 OA
ATOM     22  H   UNL     1      44.840   6.316   9.955  0.00  0.00    +0.000 HD
BRANCH  20  23
ATOM     23  C   UNL     1      46.276   6.517  12.082  0.00  0.00    +0.000 A 
ATOM     24  C   UNL     1      47.508   6.367  12.705  0.00  0.00    +0.000 A 
ATOM     25  S   UNL     1      48.278   7.848  13.061  0.00  0.00    +0.000 S 
ATOM     26  C   UNL     1      46.965   8.742  12.448  0.00  0.00    +0.000 A 
ATOM     27  N   UNL     1      46.980  10.102  12.454  0.00  0.00    +0.000 NA
ATOM     28  C   UNL     1      45.906  10.648  11.988  0.00  0.00    +0.000 A 
ATOM     29  N   UNL     1      44.818   9.959  11.521  0.00  0.00    +0.000 N 
ATOM     30  C   UNL     1      44.764   8.587  11.483  0.00  0.00    +0.000 A 
ATOM     31  O   UNL     1      43.780   8.000  11.046  0.00  0.00    +0.000 OA
ATOM     32  C   UNL     1      45.953   7.922  11.983  0.00  0.00    +0.000 A 
ATOM     33  H   UNL     1      44.004  10.444  11.175  0.00  0.00    +0.000 HD
ENDBRANCH  20  23
ENDBRANCH  18  19
ENDBRANCH   4  18
TORSDOF 7
ENDMDL
MODEL 4
REMARK VINA RESULT:    -7.758      3.954      6.644
REMARK INTER + INTRA:         -12.049
REMARK INTER:                 -10.976
REMARK INTRA:                  -1.072
REMARK UNBOUND:                -1.116
REMARK  Name = 
REMARK  8 active torsions:
REMARK  status: ('A' for Active; 'I' for Inactive)
REMARK    1  A    between atoms: C_1  and  O_2
REMARK    2  A    between atoms: O_2  and  C_3
REMARK    3  A    between atoms: C_7  and  C_8
REMARK    4  A    between atoms: C_8  and  N_9
REMARK    5  A    between atoms: N_9  and  C_10
REMARK    6  A    between atoms: C_13  and  C_14
REMARK    7  A    between atoms: C_14  and  N_15
REMARK    8  A    between atoms: C_16  and  C_18
REMARK                            x       y       z     vdW  Elec       q    Type
REMARK                         _______ _______ _______ _____ _____    ______ ____
ROOT
ATOM      1  C   UNL     1      45.251   3.922  12.539  0.00  0.00    +0.000 A 
ATOM      2  C   UNL     1      45.021   5.297  12.439  0.00  0.00    +0.000 A 
ATOM      3  C   UNL     1      45.946   6.221  12.949  0.00  0.00    +0.000 A 
ATOM      4  C   UNL     1      47.125   5.787  13.565  0.00  0.00    +0.000 A 
ATOM      5  C   UNL     1      47.309   4.413  13.752  0.00  0.00    +0.000 A 
ATOM      6  C   UNL     1      46.377   3.499  13.254  0.00  0.00    +0.000 A 
ENDROOT
BRANCH   1   7
ATOM      7  N   UNL     1      44.419   2.936  12.006  0.00  0.00    +0.000 N 
ATOM      8  H   UNL     1      43.797   2.550  12.713  0.00  0.00    +0.000 HD
BRANCH   7   9
ATOM      9  C   UNL     1      43.741   3.168  10.738  0.00  0.00    +0.000 C 
BRANCH   9  14
ATOM     10  C   UNL     1      46.189   1.991   8.031  0.00  0.00    +0.000 A 
ATOM     11  C   UNL     1      46.521   3.201   7.422  0.00  0.00    +0.000 A 
ATOM     12  C   UNL     1      45.983   4.397   7.903  0.00  0.00    +0.000 A 
ATOM     13  C   UNL     1      45.104   4.387   8.988  0.00  0.00    +0.000 A 
ATOM     14  C   UNL     1      44.753   3.181   9.612  0.00  0.00    +0.000 A 
ATOM     15  C   UNL     1      45.313   1.990   9.128  0.00  0.00    +0.000 A 
BRANCH  10  17
ATOM     16  C   UNL     1      47.278   0.659   6.388  0.00  0.00    +0.000 C 
ATOM     17  O   UNL     1      46.632   0.753   7.651  0.00  0.00    +0.000 OA
ENDBRANCH  10  17
ENDBRANCH   9  14
ENDBRANCH   7   9
ENDBRANCH   1   7
BRANCH   4  18
ATOM     18  C   UNL     1      48.166   6.763  14.051  0.00  0.00    +0.000 C 
BRANCH  18  19
ATOM     19  N   UNL     1      48.073   6.947  15.474  0.00  0.00    +0.000 N 
ATOM     20  C   UNL     1      49.093   6.589  16.317  0.00  0.00    +0.000 C 
ATOM     21  O   UNL     1      50.162   6.149  15.902  0.00  0.00    +0.000 OA
ATOM     22  H   UNL     1      47.137   7.057  15.850  0.00  0.00    +0.000 HD
BRANCH  20  23
ATOM     23  C   UNL     1      48.864   6.835  17.746  0.00  0.00    +0.000 A 
ATOM     24  C   UNL     1      48.699   8.134  18.210  0.00  0.00    +0.000 A 
ATOM     25  S   UNL     1      48.339   8.223  19.876  0.00  0.00    +0.000 S 
ATOM     26  C   UNL     1      48.448   6.533  20.047  0.00  0.00    +0.000 A 
ATOM     27  N   UNL     1      48.245   5.936  21.253  0.00  0.00    +0.000 NA
ATOM     28  C   UNL     1      48.390   4.652  21.243  0.00  0.00    +0.000 A 
ATOM     29  N   UNL     1      48.724   3.913  20.139  0.00  0.00    +0.000 N 
ATOM     30  C   UNL     1      48.924   4.470  18.899  0.00  0.00    +0.000 A 
ATOM     31  O   UNL     1      49.209   3.778  17.928  0.00  0.00    +0.000 OA
ATOM     32  C   UNL     1      48.759   5.911  18.852  0.00  0.00    +0.000 A 
ATOM     33  H   UNL     1      48.829   2.910  20.196  0.00  0.00    +0.000 HD
ENDBRANCH  20  23
ENDBRANCH  18  19
ENDBRANCH   4  18
TORSDOF 7
ENDMDL
MODEL 5
REMARK VINA RESULT:    -7.506      4.094      6.823
REMARK INTER + INTRA:         -11.694
REMARK INTER:                 -10.443
REMARK INTRA:                  -1.251
REMARK UNBOUND:                -1.116
REMARK  Name = 
REMARK  8 active torsions:
REMARK  status: ('A' for Active; 'I' for Inactive)
REMARK    1  A    between atoms: C_1  and  O_2
REMARK    2  A    between atoms: O_2  and  C_3
REMARK    3  A    between atoms: C_7  and  C_8
REMARK    4  A    between atoms: C_8  and  N_9
REMARK    5  A    between atoms: N_9  and  C_10
REMARK    6  A    between atoms: C_13  and  C_14
REMARK    7  A    between atoms: C_14  and  N_15
REMARK    8  A    between atoms: C_16  and  C_18
REMARK                            x       y       z     vdW  Elec       q    Type
REMARK                         _______ _______ _______ _____ _____    ______ ____
ROOT
ATOM      1  C   UNL     1      45.281   4.757  12.275  0.00  0.00    +0.000 A 
ATOM      2  C   UNL     1      46.114   4.078  13.168  0.00  0.00    +0.000 A 
ATOM      3  C   UNL     1      47.127   4.755  13.866  0.00  0.00    +0.000 A 
ATOM      4  C   UNL     1      47.321   6.129  13.687  0.00  0.00    +0.000 A 
ATOM      5  C   UNL     1      46.554   6.789  12.722  0.00  0.00    +0.000 A 
ATOM      6  C   UNL     1      45.556   6.106  12.021  0.00  0.00    +0.000 A 
ENDROOT
BRANCH   1   7
ATOM      7  N   UNL     1      44.212   4.178  11.589  0.00  0.00    +0.000 N 
ATOM      8  H   UNL     1      43.373   4.146  12.165  0.00  0.00    +0.000 HD
BRANCH   7   9
ATOM      9  C   UNL     1      43.928   4.577  10.219  0.00  0.00    +0.000 C 
BRANCH   9  14
ATOM     10  C   UNL     1      45.929   1.924   8.305  0.00  0.00    +0.000 A 
ATOM     11  C   UNL     1      46.669   2.721   7.431  0.00  0.00    +0.000 A 
ATOM     12  C   UNL     1      46.547   4.112   7.481  0.00  0.00    +0.000 A 
ATOM     13  C   UNL     1      45.679   4.710   8.396  0.00  0.00    +0.000 A 
ATOM     14  C   UNL     1      44.923   3.927   9.280  0.00  0.00    +0.000 A 
ATOM     15  C   UNL     1      45.068   2.534   9.229  0.00  0.00    +0.000 A 
BRANCH  10  17
ATOM     16  C   UNL     1      46.908  -0.106   7.542  0.00  0.00    +0.000 C 
ATOM     17  O   UNL     1      45.943   0.556   8.351  0.00  0.00    +0.000 OA
ENDBRANCH  10  17
ENDBRANCH   9  14
ENDBRANCH   7   9
ENDBRANCH   1   7
BRANCH   4  18
ATOM     18  C   UNL     1      48.353   6.889  14.482  0.00  0.00    +0.000 C 
BRANCH  18  19
ATOM     19  N   UNL     1      48.157   6.701  15.893  0.00  0.00    +0.000 N 
ATOM     20  C   UNL     1      49.141   6.188  16.697  0.00  0.00    +0.000 C 
ATOM     21  O   UNL     1      50.261   5.916  16.272  0.00  0.00    +0.000 OA
ATOM     22  H   UNL     1      47.194   6.669  16.210  0.00  0.00    +0.000 HD
BRANCH  20  23
ATOM     23  C   UNL     1      48.804   6.051  18.120  0.00  0.00    +0.000 A 
ATOM     24  C   UNL     1      49.020   4.844  18.772  0.00  0.00    +0.000 A 
ATOM     25  S   UNL     1      48.670   4.898  20.442  0.00  0.00    +0.000 S 
ATOM     26  C   UNL     1      48.162   6.520  20.340  0.00  0.00    +0.000 A 
ATOM     27  N   UNL     1      47.724   7.188  21.441  0.00  0.00    +0.000 NA
ATOM     28  C   UNL     1      47.341   8.400  21.212  0.00  0.00    +0.000 A 
ATOM     29  N   UNL     1      47.353   9.003  19.982  0.00  0.00    +0.000 N 
ATOM     30  C   UNL     1      47.799   8.373  18.846  0.00  0.00    +0.000 A 
ATOM     31  O   UNL     1      47.808   8.946  17.761  0.00  0.00    +0.000 OA
ATOM     32  C   UNL     1      48.255   7.011  19.050  0.00  0.00    +0.000 A 
ATOM     33  H   UNL     1      47.034   9.954  19.865  0.00  0.00    +0.000 HD
ENDBRANCH  20  23
ENDBRANCH  18  19
ENDBRANCH   4  18
TORSDOF 7
ENDMDL
MODEL 6
REMARK VINA RESULT:    -7.131      6.289     10.458
REMARK INTER + INTRA:         -11.164
REMARK INTER:                  -9.463
REMARK INTRA:                  -1.701
REMARK UNBOUND:                -1.116
REMARK  Name = 
REMARK  8 active torsions:
REMARK  status: ('A' for Active; 'I' for Inactive)
REMARK    1  A    between atoms: C_1  and  O_2
REMARK    2  A    between atoms: O_2  and  C_3
REMARK    3  A    between atoms: C_7  and  C_8
REMARK    4  A    between atoms: C_8  and  N_9
REMARK    5  A    between atoms: N_9  and  C_10
REMARK    6  A    between atoms: C_13  and  C_14
REMARK    7  A    between atoms: C_14  and  N_15
REMARK    8  A    between atoms: C_16  and  C_18
REMARK                            x       y       z     vdW  Elec       q    Type
REMARK                         _______ _______ _______ _____ _____    ______ ____
ROOT
ATOM      1  C   UNL     1      49.783   7.123  18.416  0.00  0.00    +0.000 A 
ATOM      2  C   UNL     1      48.672   7.951  18.604  0.00  0.00    +0.000 A 
ATOM      3  C   UNL     1      48.166   8.727  17.549  0.00  0.00    +0.000 A 
ATOM      4  C   UNL     1      48.759   8.684  16.282  0.00  0.00    +0.000 A 
ATOM      5  C   UNL     1      49.927   7.933  16.120  0.00  0.00    +0.000 A 
ATOM      6  C   UNL     1      50.433   7.173  17.178  0.00  0.00    +0.000 A 
ENDROOT
BRANCH   1   7
ATOM      7  N   UNL     1      50.312   6.272  19.388  0.00  0.00    +0.000 N 
ATOM      8  H   UNL     1      50.755   6.796  20.141  0.00  0.00    +0.000 HD
BRANCH   7   9
ATOM      9  C   UNL     1      49.521   5.154  19.882  0.00  0.00    +0.000 C 
BRANCH   9  14
ATOM     10  C   UNL     1      49.372   2.588  17.036  0.00  0.00    +0.000 A 
ATOM     11  C   UNL     1      48.037   2.694  16.645  0.00  0.00    +0.000 A 
ATOM     12  C   UNL     1      47.195   3.614  17.275  0.00  0.00    +0.000 A 
ATOM     13  C   UNL     1      47.681   4.422  18.305  0.00  0.00    +0.000 A 
ATOM     14  C   UNL     1      49.019   4.329  18.715  0.00  0.00    +0.000 A 
ATOM     15  C   UNL     1      49.856   3.413  18.063  0.00  0.00    +0.000 A 
BRANCH  10  17
ATOM     16  C   UNL     1      51.442   1.447  17.309  0.00  0.00    +0.000 C 
ATOM     17  O   UNL     1      50.295   1.723  16.514  0.00  0.00    +0.000 OA
ENDBRANCH  10  17
ENDBRANCH   9  14
ENDBRANCH   7   9
ENDBRANCH   1   7
BRANCH   4  18
ATOM     18  C   UNL     1      48.186   9.452  15.118  0.00  0.00    +0.000 C 
BRANCH  18  19
ATOM     19  N   UNL     1      47.150   8.699  14.465  0.00  0.00    +0.000 N 
ATOM     20  C   UNL     1      47.398   7.957  13.338  0.00  0.00    +0.000 C 
ATOM     21  O   UNL     1      48.524   7.847  12.860  0.00  0.00    +0.000 OA
ATOM     22  H   UNL     1      46.197   8.974  14.674  0.00  0.00    +0.000 HD
BRANCH  20  23
ATOM     23  C   UNL     1      46.248   7.237  12.776  0.00  0.00    +0.000 A 
ATOM     24  C   UNL     1      45.242   7.937  12.124  0.00  0.00    +0.000 A 
ATOM     25  S   UNL     1      44.041   6.932  11.445  0.00  0.00    +0.000 S 
ATOM     26  C   UNL     1      44.794   5.530  12.050  0.00  0.00    +0.000 A 
ATOM     27  N   UNL     1      44.266   4.297  11.822  0.00  0.00    +0.000 NA
ATOM     28  C   UNL     1      44.923   3.327  12.366  0.00  0.00    +0.000 A 
ATOM     29  N   UNL     1      46.057   3.478  13.119  0.00  0.00    +0.000 N 
ATOM     30  C   UNL     1      46.634   4.701  13.363  0.00  0.00    +0.000 A 
ATOM     31  O   UNL     1      47.658   4.800  14.031  0.00  0.00    +0.000 OA
ATOM     32  C   UNL     1      45.942   5.825  12.762  0.00  0.00    +0.000 A 
ATOM     33  H   UNL     1      46.523   2.679  13.524  0.00  0.00    +0.000 HD
ENDBRANCH  20  23
ENDBRANCH  18  19
ENDBRANCH   4  18
TORSDOF 7
ENDMDL
MODEL 7
REMARK VINA RESULT:    -7.121      3.332      5.783
REMARK INTER + INTRA:         -11.150
REMARK INTER:                  -9.990
REMARK INTRA:                  -1.160
REMARK UNBOUND:                -1.116
REMARK  Name = 
REMARK  8 active torsions:
REMARK  status: ('A' for Active; 'I' for Inactive)
REMARK    1  A    between atoms: C_1  and  O_2
REMARK    2  A    between atoms: O_2  and  C_3
REMARK    3  A    between atoms: C_7  and  C_8
REMARK    4  A    between atoms: C_8  and  N_9
REMARK    5  A    between atoms: N_9  and  C_10
REMARK    6  A    between atoms: C_13  and  C_14
REMARK    7  A    between atoms: C_14  and  N_15
REMARK    8  A    between atoms: C_16  and  C_18
REMARK                            x       y       z     vdW  Elec       q    Type
REMARK                         _______ _______ _______ _____ _____    ______ ____
ROOT
ATOM      1  C   UNL     1      45.113   4.000  12.077  0.00  0.00    +0.000 A 
ATOM      2  C   UNL     1      44.479   5.234  11.908  0.00  0.00    +0.000 A 
ATOM      3  C   UNL     1      45.066   6.416  12.386  0.00  0.00    +0.000 A 
ATOM      4  C   UNL     1      46.303   6.386  13.039  0.00  0.00    +0.000 A 
ATOM      5  C   UNL     1      46.889   5.143  13.295  0.00  0.00    +0.000 A 
ATOM      6  C   UNL     1      46.293   3.968  12.828  0.00  0.00    +0.000 A 
ENDROOT
BRANCH   1   7
ATOM      7  N   UNL     1      44.633   2.787  11.579  0.00  0.00    +0.000 N 
ATOM      8  H   UNL     1      44.097   2.281  12.280  0.00  0.00    +0.000 HD
BRANCH   7   9
ATOM      9  C   UNL     1      44.011   2.738  10.263  0.00  0.00    +0.000 C 
BRANCH   9  14
ATOM     10  C   UNL     1      46.668   2.016   7.594  0.00  0.00    +0.000 A 
ATOM     11  C   UNL     1      46.911   3.298   7.100  0.00  0.00    +0.000 A 
ATOM     12  C   UNL     1      46.243   4.396   7.648  0.00  0.00    +0.000 A 
ATOM     13  C   UNL     1      45.324   4.216   8.683  0.00  0.00    +0.000 A 
ATOM     14  C   UNL     1      45.063   2.936   9.192  0.00  0.00    +0.000 A 
ATOM     15  C   UNL     1      45.752   1.845   8.643  0.00  0.00    +0.000 A 
BRANCH  10  17
ATOM     16  C   UNL     1      46.714  -0.362   7.644  0.00  0.00    +0.000 C 
ATOM     17  O   UNL     1      47.240   0.859   7.139  0.00  0.00    +0.000 OA
ENDBRANCH  10  17
ENDBRANCH   9  14
ENDBRANCH   7   9
ENDBRANCH   1   7
BRANCH   4  18
ATOM     18  C   UNL     1      46.985   7.652  13.494  0.00  0.00    +0.000 C 
BRANCH  18  19
ATOM     19  N   UNL     1      46.868   8.685  12.501  0.00  0.00    +0.000 N 
ATOM     20  C   UNL     1      47.522   9.883  12.625  0.00  0.00    +0.000 C 
ATOM     21  O   UNL     1      48.289  10.119  13.555  0.00  0.00    +0.000 OA
ATOM     22  H   UNL     1      46.066   8.622  11.883  0.00  0.00    +0.000 HD
BRANCH  20  23
ATOM     23  C   UNL     1      47.314  10.847  11.536  0.00  0.00    +0.000 A 
ATOM     24  C   UNL     1      48.404  11.388  10.869  0.00  0.00    +0.000 A 
ATOM     25  S   UNL     1      47.974  12.405   9.569  0.00  0.00    +0.000 S 
ATOM     26  C   UNL     1      46.314  12.204   9.888  0.00  0.00    +0.000 A 
ATOM     27  N   UNL     1      45.373  12.822   9.125  0.00  0.00    +0.000 NA
ATOM     28  C   UNL     1      44.155  12.605   9.500  0.00  0.00    +0.000 A 
ATOM     29  N   UNL     1      43.795  11.831  10.571  0.00  0.00    +0.000 N 
ATOM     30  C   UNL     1      44.709  11.178  11.361  0.00  0.00    +0.000 A 
ATOM     31  O   UNL     1      44.351  10.481  12.306  0.00  0.00    +0.000 OA
ATOM     32  C   UNL     1      46.093  11.376  10.974  0.00  0.00    +0.000 A 
ATOM     33  H   UNL     1      42.824  11.705  10.819  0.00  0.00    +0.000 HD
ENDBRANCH  20  23
ENDBRANCH  18  19
ENDBRANCH   4  18
TORSDOF 7
ENDMDL
MODEL 8
REMARK VINA RESULT:    -6.929      3.383      5.577
REMARK INTER + INTRA:         -10.880
REMARK INTER:                  -9.622
REMARK INTRA:                  -1.258
REMARK UNBOUND:                -1.116
REMARK  Name = 
REMARK  8 active torsions:
REMARK  status: ('A' for Active; 'I' for Inactive)
REMARK    1  A    between atoms: C_1  and  O_2
REMARK    2  A    between atoms: O_2  and  C_3
REMARK    3  A    between atoms: C_7  and  C_8
REMARK    4  A    between atoms: C_8  and  N_9
REMARK    5  A    between atoms: N_9  and  C_10
REMARK    6  A    between atoms: C_13  and  C_14
REMARK    7  A    between atoms: C_14  and  N_15
REMARK    8  A    between atoms: C_16  and  C_18
REMARK                            x       y       z     vdW  Elec       q    Type
REMARK                         _______ _______ _______ _____ _____    ______ ____
ROOT
ATOM      1  C   UNL     1      44.923   4.319  11.621  0.00  0.00    +0.000 A 
ATOM      2  C   UNL     1      45.580   3.340  12.372  0.00  0.00    +0.000 A 
ATOM      3  C   UNL     1      46.423   3.694  13.437  0.00  0.00    +0.000 A 
ATOM      4  C   UNL     1      46.620   5.038  13.775  0.00  0.00    +0.000 A 
ATOM      5  C   UNL     1      46.042   6.019  12.964  0.00  0.00    +0.000 A 
ATOM      6  C   UNL     1      45.215   5.659  11.897  0.00  0.00    +0.000 A 
ENDROOT
BRANCH   1   7
ATOM      7  N   UNL     1      44.020   4.055  10.589  0.00  0.00    +0.000 N 
ATOM      8  H   UNL     1      43.921   4.855   9.967  0.00  0.00    +0.000 HD
BRANCH   7   9
ATOM      9  C   UNL     1      44.095   2.795   9.864  0.00  0.00    +0.000 C 
BRANCH   9  14
ATOM     10  C   UNL     1      46.878   1.738   7.446  0.00  0.00    +0.000 A 
ATOM     11  C   UNL     1      47.196   2.958   6.849  0.00  0.00    +0.000 A 
ATOM     12  C   UNL     1      46.538   4.124   7.249  0.00  0.00    +0.000 A 
ATOM     13  C   UNL     1      45.553   4.073   8.237  0.00  0.00    +0.000 A 
ATOM     14  C   UNL     1      45.216   2.856   8.847  0.00  0.00    +0.000 A 
ATOM     15  C   UNL     1      45.896   1.697   8.447  0.00  0.00    +0.000 A 
BRANCH  10  17
ATOM     16  C   UNL     1      46.712  -0.634   7.539  0.00  0.00    +0.000 C 
ATOM     17  O   UNL     1      47.433   0.525   7.139  0.00  0.00    +0.000 OA
ENDBRANCH  10  17
ENDBRANCH   9  14
ENDBRANCH   7   9
ENDBRANCH   1   7
BRANCH   4  18
ATOM     18  C   UNL     1      47.462   5.436  14.962  0.00  0.00    +0.000 C 
BRANCH  18  19
ATOM     19  N   UNL     1      48.098   6.705  14.738  0.00  0.00    +0.000 N 
ATOM     20  C   UNL     1      49.335   6.994  15.254  0.00  0.00    +0.000 C 
ATOM     21  O   UNL     1      49.992   6.169  15.883  0.00  0.00    +0.000 OA
ATOM     22  H   UNL     1      47.489   7.467  14.460  0.00  0.00    +0.000 HD
BRANCH  20  23
ATOM     23  C   UNL     1      49.865   8.329  14.946  0.00  0.00    +0.000 A 
ATOM     24  C   UNL     1      50.216   9.191  15.977  0.00  0.00    +0.000 A 
ATOM     25  S   UNL     1      50.910  10.653  15.437  0.00  0.00    +0.000 S 
ATOM     26  C   UNL     1      50.712  10.210  13.805  0.00  0.00    +0.000 A 
ATOM     27  N   UNL     1      51.108  11.037  12.800  0.00  0.00    +0.000 NA
ATOM     28  C   UNL     1      50.869  10.586  11.613  0.00  0.00    +0.000 A 
ATOM     29  N   UNL     1      50.266   9.387  11.340  0.00  0.00    +0.000 N 
ATOM     30  C   UNL     1      49.862   8.514  12.321  0.00  0.00    +0.000 A 
ATOM     31  O   UNL     1      49.337   7.441  12.043  0.00  0.00    +0.000 OA
ATOM     32  C   UNL     1      50.121   8.966  13.675  0.00  0.00    +0.000 A 
ATOM     33  H   UNL     1      50.100   9.092  10.389  0.00  0.00    +0.000 HD
ENDBRANCH  20  23
ENDBRANCH  18  19
ENDBRANCH   4  18
TORSDOF 7
ENDMDL
MODEL 9
REMARK VINA RESULT:    -6.834      4.095      7.076
REMARK INTER + INTRA:         -10.746
REMARK INTER:                  -9.289
REMARK INTRA:                  -1.457
REMARK UNBOUND:                -1.116
REMARK  Name = 
REMARK  8 active torsions:
REMARK  status: ('A' for Active; 'I' for Inactive)
REMARK    1  A    between atoms: C_1  and  O_2
REMARK    2  A    between atoms: O_2  and  C_3
REMARK    3  A    between atoms: C_7  and  C_8
REMARK    4  A    between atoms: C_8  and  N_9
REMARK    5  A    between atoms: N_9  and  C_10
REMARK    6  A    between atoms: C_13  and  C_14
REMARK    7  A    between atoms: C_14  and  N_15
REMARK    8  A    between atoms: C_16  and  C_18
REMARK                            x       y       z     vdW  Elec       q    Type
REMARK                         _______ _______ _______ _____ _____    ______ ____
ROOT
ATOM      1  C   UNL     1      45.187   6.103  12.439  0.00  0.00    +0.000 A 
ATOM      2  C   UNL     1      45.486   7.436  12.145  0.00  0.00    +0.000 A 
ATOM      3  C   UNL     1      46.807   7.908  12.203  0.00  0.00    +0.000 A 
ATOM      4  C   UNL     1      47.857   7.050  12.551  0.00  0.00    +0.000 A 
ATOM      5  C   UNL     1      47.546   5.743  12.939  0.00  0.00    +0.000 A 
ATOM      6  C   UNL     1      46.227   5.284  12.893  0.00  0.00    +0.000 A 
ENDROOT
BRANCH   1   7
ATOM      7  N   UNL     1      43.914   5.535  12.345  0.00  0.00    +0.000 N 
ATOM      8  H   UNL     1      43.294   5.890  13.069  0.00  0.00    +0.000 HD
BRANCH   7   9
ATOM      9  C   UNL     1      43.257   5.439  11.050  0.00  0.00    +0.000 C 
BRANCH   9  14
ATOM     10  C   UNL     1      45.410   3.756   8.359  0.00  0.00    +0.000 A 
ATOM     11  C   UNL     1      45.318   2.417   8.737  0.00  0.00    +0.000 A 
ATOM     12  C   UNL     1      44.538   2.053   9.838  0.00  0.00    +0.000 A 
ATOM     13  C   UNL     1      43.856   3.027  10.570  0.00  0.00    +0.000 A 
ATOM     14  C   UNL     1      43.938   4.380  10.208  0.00  0.00    +0.000 A 
ATOM     15  C   UNL     1      44.711   4.727   9.092  0.00  0.00    +0.000 A 
BRANCH  10  17
ATOM     16  C   UNL     1      46.875   3.303   6.540  0.00  0.00    +0.000 C 
ATOM     17  O   UNL     1      46.147   4.247   7.315  0.00  0.00    +0.000 OA
ENDBRANCH  10  17
ENDBRANCH   9  14
ENDBRANCH   7   9
ENDBRANCH   1   7
BRANCH   4  18
ATOM     18  C   UNL     1      49.290   7.517  12.546  0.00  0.00    +0.000 C 
BRANCH  18  19
ATOM     19  N   UNL     1      49.962   7.128  13.756  0.00  0.00    +0.000 N 
ATOM     20  C   UNL     1      49.994   7.942  14.858  0.00  0.00    +0.000 C 
ATOM     21  O   UNL     1      49.403   9.019  14.896  0.00  0.00    +0.000 OA
ATOM     22  H   UNL     1      50.655   6.392  13.665  0.00  0.00    +0.000 HD
BRANCH  20  23
ATOM     23  C   UNL     1      50.715   7.418  16.025  0.00  0.00    +0.000 A 
ATOM     24  C   UNL     1      51.904   8.010  16.430  0.00  0.00    +0.000 A 
ATOM     25  S   UNL     1      52.547   7.339  17.862  0.00  0.00    +0.000 S 
ATOM     26  C   UNL     1      51.290   6.195  17.957  0.00  0.00    +0.000 A 
ATOM     27  N   UNL     1      51.241   5.291  18.972  0.00  0.00    +0.000 NA
ATOM     28  C   UNL     1      50.250   4.464  18.902  0.00  0.00    +0.000 A 
ATOM     29  N   UNL     1      49.308   4.458  17.907  0.00  0.00    +0.000 N 
ATOM     30  C   UNL     1      49.310   5.360  16.871  0.00  0.00    +0.000 A 
ATOM     31  O   UNL     1      48.444   5.335  16.003  0.00  0.00    +0.000 OA
ATOM     32  C   UNL     1      50.395   6.322  16.910  0.00  0.00    +0.000 A 
ATOM     33  H   UNL     1      48.560   3.780  17.904  0.00  0.00    +0.000 HD
ENDBRANCH  20  23
ENDBRANCH  18  19
ENDBRANCH   4  18
TORSDOF 7
ENDMDL
