MODEL 1
REMARK VINA RESULT:    -8.153      0.000      0.000
REMARK INTER + INTRA:         -12.862
REMARK INTER:                 -11.727
REMARK INTRA:                  -1.135
REMARK UNBOUND:                -1.135
REMARK  Name = 
REMARK  9 active torsions:
REMARK  status: ('A' for Active; 'I' for Inactive)
REMARK    1  A    between atoms: C_1  and  C_2
REMARK    2  A    between atoms: C_5  and  C_6
REMARK    3  A    between atoms: C_6  and  N_7
REMARK    4  A    between atoms: N_7  and  C_8
REMARK    5  A    between atoms: C_8  and  C_9
REMARK    6  A    between atoms: C_12  and  C_13
REMARK    7  A    between atoms: C_13  and  N_14
REMARK    8  A    between atoms: C_15  and  C_17
REMARK    9  A    between atoms: C_24  and  O_25
REMARK                            x       y       z     vdW  Elec       q    Type
REMARK                         _______ _______ _______ _____ _____    ______ ____
ROOT
ATOM      1  C   UNL     1      44.662   5.588  11.882  0.00  0.00    +0.000 A 
ATOM      2  C   UNL     1      44.841   4.871  13.073  0.00  0.00    +0.000 A 
ATOM      3  C   UNL     1      46.018   5.002  13.818  0.00  0.00    +0.000 A 
ATOM      4  C   UNL     1      47.036   5.876  13.400  0.00  0.00    +0.000 A 
ATOM      5  C   UNL     1      46.846   6.600  12.215  0.00  0.00    +0.000 A 
ATOM      6  C   UNL     1      45.673   6.461  11.465  0.00  0.00    +0.000 A 
ENDROOT
BRANCH   1   7
ATOM      7  C   UNL     1      43.388   5.443  11.078  0.00  0.00    +0.000 C 
BRANCH   7   8
ATOM      8  N   UNL     1      43.585   4.751   9.803  0.00  0.00    +0.000 NA
ATOM      9  H   UNL     1      42.700   4.724   9.301  0.00  0.00    +0.000 HD
BRANCH   8  10
ATOM     10  C   UNL     1      44.059   3.374   9.969  0.00  0.00    +0.000 C 
BRANCH  10  15
ATOM     11  C   UNL     1      48.105   2.136   5.948  0.00  0.00    +0.000 C 
ATOM     12  C   UNL     1      47.051   2.435   6.972  0.00  0.00    +0.000 A 
ATOM     13  C   UNL     1      46.562   1.431   7.813  0.00  0.00    +0.000 A 
ATOM     14  C   UNL     1      45.586   1.724   8.773  0.00  0.00    +0.000 A 
ATOM     15  C   UNL     1      45.094   3.030   8.921  0.00  0.00    +0.000 A 
ATOM     16  C   UNL     1      45.575   4.026   8.060  0.00  0.00    +0.000 A 
ATOM     17  C   UNL     1      46.541   3.732   7.098  0.00  0.00    +0.000 A 
ENDBRANCH  10  15
ENDBRANCH   8  10
ENDBRANCH   7   8
ENDBRANCH   1   7
BRANCH   4  18
ATOM     18  C   UNL     1      48.304   6.065  14.207  0.00  0.00    +0.000 C 
BRANCH  18  19
ATOM     19  N   UNL     1      48.048   6.429  15.574  0.00  0.00    +0.000 N 
ATOM     20  C   UNL     1      48.889   6.100  16.600  0.00  0.00    +0.000 C 
ATOM     21  O   UNL     1      49.899   5.405  16.450  0.00  0.00    +0.000 OA
ATOM     22  H   UNL     1      47.440   7.227  15.708  0.00  0.00    +0.000 HD
BRANCH  20  23
ATOM     23  C   UNL     1      48.500   6.620  17.913  0.00  0.00    +0.000 A 
ATOM     24  C   UNL     1      48.101   7.936  18.098  0.00  0.00    +0.000 A 
ATOM     25  S   UNL     1      47.695   8.287  19.722  0.00  0.00    +0.000 S 
ATOM     26  C   UNL     1      48.032   6.694  20.207  0.00  0.00    +0.000 A 
ATOM     27  N   UNL     1      47.871   6.312  21.488  0.00  0.00    +0.000 NA
ATOM     28  C   UNL     1      48.201   5.029  21.686  0.00  0.00    +0.000 A 
ATOM     29  N   UNL     1      48.659   4.149  20.790  0.00  0.00    +0.000 NA
ATOM     30  C   UNL     1      48.794   4.592  19.547  0.00  0.00    +0.000 A 
ATOM     31  C   UNL     1      48.479   5.896  19.168  0.00  0.00    +0.000 A 
BRANCH  30  32
ATOM     32  O   UNL     1      49.301   3.666  18.687  0.00  0.00    +0.000 OA
ATOM     33  H   UNL     1      49.965   4.186  18.192  0.00  0.00    +0.000 HD
ENDBRANCH  30  32
ENDBRANCH  20  23
ENDBRANCH  18  19
ENDBRANCH   4  18
TORSDOF 8
ENDMDL
MODEL 2
REMARK VINA RESULT:    -8.110      1.334      2.132
REMARK INTER + INTRA:         -12.800
REMARK INTER:                 -11.614
REMARK INTRA:                  -1.186
REMARK UNBOUND:                -1.135
REMARK  Name = 
REMARK  9 active torsions:
REMARK  status: ('A' for Active; 'I' for Inactive)
REMARK    1  A    between atoms: C_1  and  C_2
REMARK    2  A    between atoms: C_5  and  C_6
REMARK    3  A    between atoms: C_6  and  N_7
REMARK    4  A    between atoms: N_7  and  C_8
REMARK    5  A    between atoms: C_8  and  C_9
REMARK    6  A    between atoms: C_12  and  C_13
REMARK    7  A    between atoms: C_13  and  N_14
REMARK    8  A    between atoms: C_15  and  C_17
REMARK    9  A    between atoms: C_24  and  O_25
REMARK                            x       y       z     vdW  Elec       q    Type
REMARK                         _______ _______ _______ _____ _____    ______ ____
ROOT
ATOM      1  C   UNL     1      44.536   5.806  11.816  0.00  0.00    +0.000 A 
ATOM      2  C   UNL     1      45.370   6.842  11.374  0.00  0.00    +0.000 A 
ATOM      3  C   UNL     1      46.532   7.176  12.078  0.00  0.00    +0.000 A 
ATOM      4  C   UNL     1      46.900   6.463  13.232  0.00  0.00    +0.000 A 
ATOM      5  C   UNL     1      46.068   5.420  13.663  0.00  0.00    +0.000 A 
ATOM      6  C   UNL     1      44.901   5.093  12.963  0.00  0.00    +0.000 A 
ENDROOT
BRANCH   1   7
ATOM      7  C   UNL     1      43.279   5.449  11.054  0.00  0.00    +0.000 C 
BRANCH   7   8
ATOM      8  N   UNL     1      43.547   4.773   9.783  0.00  0.00    +0.000 NA
ATOM      9  H   UNL     1      42.695   4.767   9.225  0.00  0.00    +0.000 HD
BRANCH   8  10
ATOM     10  C   UNL     1      43.988   3.387   9.956  0.00  0.00    +0.000 C 
BRANCH  10  15
ATOM     11  C   UNL     1      48.084   2.068   6.011  0.00  0.00    +0.000 C 
ATOM     12  C   UNL     1      47.017   2.388   7.016  0.00  0.00    +0.000 A 
ATOM     13  C   UNL     1      46.503   1.397   7.857  0.00  0.00    +0.000 A 
ATOM     14  C   UNL     1      45.515   1.708   8.799  0.00  0.00    +0.000 A 
ATOM     15  C   UNL     1      45.036   3.021   8.928  0.00  0.00    +0.000 A 
ATOM     16  C   UNL     1      45.543   4.004   8.067  0.00  0.00    +0.000 A 
ATOM     17  C   UNL     1      46.521   3.691   7.122  0.00  0.00    +0.000 A 
ENDBRANCH  10  15
ENDBRANCH   8  10
ENDBRANCH   7   8
ENDBRANCH   1   7
BRANCH   4  18
ATOM     18  C   UNL     1      48.172   6.780  13.991  0.00  0.00    +0.000 C 
BRANCH  18  19
ATOM     19  N   UNL     1      48.107   6.401  15.376  0.00  0.00    +0.000 N 
ATOM     20  C   UNL     1      49.215   6.273  16.165  0.00  0.00    +0.000 C 
ATOM     21  O   UNL     1      50.368   6.403  15.736  0.00  0.00    +0.000 OA
ATOM     22  H   UNL     1      47.225   6.585  15.838  0.00  0.00    +0.000 HD
BRANCH  20  23
ATOM     23  C   UNL     1      48.947   5.951  17.568  0.00  0.00    +0.000 A 
ATOM     24  C   UNL     1      49.253   4.712  18.112  0.00  0.00    +0.000 A 
ATOM     25  S   UNL     1      48.845   4.594  19.770  0.00  0.00    +0.000 S 
ATOM     26  C   UNL     1      48.263   6.191  19.795  0.00  0.00    +0.000 A 
ATOM     27  N   UNL     1      47.780   6.734  20.928  0.00  0.00    +0.000 NA
ATOM     28  C   UNL     1      47.353   7.991  20.754  0.00  0.00    +0.000 A 
ATOM     29  N   UNL     1      47.350   8.711  19.627  0.00  0.00    +0.000 NA
ATOM     30  C   UNL     1      47.840   8.115  18.548  0.00  0.00    +0.000 A 
ATOM     31  C   UNL     1      48.342   6.814  18.561  0.00  0.00    +0.000 A 
BRANCH  30  32
ATOM     32  O   UNL     1      47.775   8.878  17.422  0.00  0.00    +0.000 OA
ATOM     33  H   UNL     1      48.568   8.587  16.930  0.00  0.00    +0.000 HD
ENDBRANCH  30  32
ENDBRANCH  20  23
ENDBRANCH  18  19
ENDBRANCH   4  18
TORSDOF 8
ENDMDL
MODEL 3
REMARK VINA RESULT:    -8.037      2.229      2.520
REMARK INTER + INTRA:         -12.696
REMARK INTER:                 -11.558
REMARK INTRA:                  -1.138
REMARK UNBOUND:                -1.135
REMARK  Name = 
REMARK  9 active torsions:
REMARK  status: ('A' for Active; 'I' for Inactive)
REMARK    1  A    between atoms: C_1  and  C_2
REMARK    2  A    between atoms: C_5  and  C_6
REMARK    3  A    between atoms: C_6  and  N_7
REMARK    4  A    between atoms: N_7  and  C_8
REMARK    5  A    between atoms: C_8  and  C_9
REMARK    6  A    between atoms: C_12  and  C_13
REMARK    7  A    between atoms: C_13  and  N_14
REMARK    8  A    between atoms: C_15  and  C_17
REMARK    9  A    between atoms: C_24  and  O_25
REMARK                            x       y       z     vdW  Elec       q    Type
REMARK                         _______ _______ _______ _____ _____    ______ ____
ROOT
ATOM      1  C   UNL     1      44.610   6.126  11.582  0.00  0.00    +0.000 A 
ATOM      2  C   UNL     1      44.685   7.518  11.728  0.00  0.00    +0.000 A 
ATOM      3  C   UNL     1      45.832   8.122  12.252  0.00  0.00    +0.000 A 
ATOM      4  C   UNL     1      46.946   7.347  12.620  0.00  0.00    +0.000 A 
ATOM      5  C   UNL     1      46.870   5.957  12.460  0.00  0.00    +0.000 A 
ATOM      6  C   UNL     1      45.718   5.352  11.945  0.00  0.00    +0.000 A 
ENDROOT
BRANCH   1   7
ATOM      7  C   UNL     1      43.367   5.475  11.016  0.00  0.00    +0.000 C 
BRANCH   7   8
ATOM      8  N   UNL     1      43.601   4.793   9.742  0.00  0.00    +0.000 NA
ATOM      9  H   UNL     1      42.745   4.820   9.190  0.00  0.00    +0.000 HD
BRANCH   8  10
ATOM     10  C   UNL     1      43.991   3.391   9.908  0.00  0.00    +0.000 C 
BRANCH  10  15
ATOM     11  C   UNL     1      48.107   1.971   6.020  0.00  0.00    +0.000 C 
ATOM     12  C   UNL     1      47.035   2.317   7.010  0.00  0.00    +0.000 A 
ATOM     13  C   UNL     1      46.489   1.340   7.849  0.00  0.00    +0.000 A 
ATOM     14  C   UNL     1      45.497   1.676   8.777  0.00  0.00    +0.000 A 
ATOM     15  C   UNL     1      45.043   3.000   8.895  0.00  0.00    +0.000 A 
ATOM     16  C   UNL     1      45.581   3.968   8.037  0.00  0.00    +0.000 A 
ATOM     17  C   UNL     1      46.564   3.631   7.106  0.00  0.00    +0.000 A 
ENDBRANCH  10  15
ENDBRANCH   8  10
ENDBRANCH   7   8
ENDBRANCH   1   7
BRANCH   4  18
ATOM     18  C   UNL     1      48.214   7.980  13.154  0.00  0.00    +0.000 C 
BRANCH  18  19
ATOM     19  N   UNL     1      48.848   7.190  14.175  0.00  0.00    +0.000 N 
ATOM     20  C   UNL     1      48.908   7.576  15.484  0.00  0.00    +0.000 C 
ATOM     21  O   UNL     1      48.486   8.666  15.887  0.00  0.00    +0.000 OA
ATOM     22  H   UNL     1      48.923   6.200  13.977  0.00  0.00    +0.000 HD
BRANCH  20  23
ATOM     23  C   UNL     1      49.529   6.608  16.390  0.00  0.00    +0.000 A 
ATOM     24  C   UNL     1      50.764   6.835  16.980  0.00  0.00    +0.000 A 
ATOM     25  S   UNL     1      51.262   5.554  17.998  0.00  0.00    +0.000 S 
ATOM     26  C   UNL     1      49.841   4.678  17.681  0.00  0.00    +0.000 A 
ATOM     27  N   UNL     1      49.620   3.483  18.260  0.00  0.00    +0.000 NA
ATOM     28  C   UNL     1      48.459   2.934  17.879  0.00  0.00    +0.000 A 
ATOM     29  N   UNL     1      47.558   3.426  17.021  0.00  0.00    +0.000 NA
ATOM     30  C   UNL     1      47.839   4.607  16.488  0.00  0.00    +0.000 A 
ATOM     31  C   UNL     1      48.997   5.321  16.790  0.00  0.00    +0.000 A 
BRANCH  30  32
ATOM     32  O   UNL     1      46.908   5.040  15.593  0.00  0.00    +0.000 OA
ATOM     33  H   UNL     1      46.075   4.940  16.096  0.00  0.00    +0.000 HD
ENDBRANCH  30  32
ENDBRANCH  20  23
ENDBRANCH  18  19
ENDBRANCH   4  18
TORSDOF 8
ENDMDL
MODEL 4
REMARK VINA RESULT:    -8.009      1.587      2.072
REMARK INTER + INTRA:         -12.655
REMARK INTER:                 -11.514
REMARK INTRA:                  -1.141
REMARK UNBOUND:                -1.135
REMARK  Name = 
REMARK  9 active torsions:
REMARK  status: ('A' for Active; 'I' for Inactive)
REMARK    1  A    between atoms: C_1  and  C_2
REMARK    2  A    between atoms: C_5  and  C_6
REMARK    3  A    between atoms: C_6  and  N_7
REMARK    4  A    between atoms: N_7  and  C_8
REMARK    5  A    between atoms: C_8  and  C_9
REMARK    6  A    between atoms: C_12  and  C_13
REMARK    7  A    between atoms: C_13  and  N_14
REMARK    8  A    between atoms: C_15  and  C_17
REMARK    9  A    between atoms: C_24  and  O_25
REMARK                            x       y       z     vdW  Elec       q    Type
REMARK                         _______ _______ _______ _____ _____    ______ ____
ROOT
ATOM      1  C   UNL     1      44.500   4.134  12.570  0.00  0.00    +0.000 A 
ATOM      2  C   UNL     1      45.838   3.853  12.878  0.00  0.00    +0.000 A 
ATOM      3  C   UNL     1      46.738   4.884  13.167  0.00  0.00    +0.000 A 
ATOM      4  C   UNL     1      46.314   6.224  13.178  0.00  0.00    +0.000 A 
ATOM      5  C   UNL     1      44.971   6.498  12.881  0.00  0.00    +0.000 A 
ATOM      6  C   UNL     1      44.073   5.467  12.583  0.00  0.00    +0.000 A 
ENDROOT
BRANCH   1   7
ATOM      7  C   UNL     1      43.529   3.017  12.257  0.00  0.00    +0.000 C 
BRANCH   7   8
ATOM      8  N   UNL     1      43.690   2.473  10.907  0.00  0.00    +0.000 NA
ATOM      9  H   UNL     1      44.505   1.862  10.892  0.00  0.00    +0.000 HD
BRANCH   8  10
ATOM     10  C   UNL     1      43.879   3.512   9.892  0.00  0.00    +0.000 C 
BRANCH  10  15
ATOM     11  C   UNL     1      47.998   1.900   6.083  0.00  0.00    +0.000 C 
ATOM     12  C   UNL     1      46.955   2.333   7.070  0.00  0.00    +0.000 A 
ATOM     13  C   UNL     1      46.528   3.663   7.127  0.00  0.00    +0.000 A 
ATOM     14  C   UNL     1      45.547   4.054   8.044  0.00  0.00    +0.000 A 
ATOM     15  C   UNL     1      44.961   3.118   8.911  0.00  0.00    +0.000 A 
ATOM     16  C   UNL     1      45.408   1.791   8.861  0.00  0.00    +0.000 A 
ATOM     17  C   UNL     1      46.394   1.403   7.952  0.00  0.00    +0.000 A 
ENDBRANCH  10  15
ENDBRANCH   8  10
ENDBRANCH   7   8
ENDBRANCH   1   7
BRANCH   4  18
ATOM     18  C   UNL     1      47.259   7.356  13.524  0.00  0.00    +0.000 C 
BRANCH  18  19
ATOM     19  N   UNL     1      47.834   7.224  14.835  0.00  0.00    +0.000 N 
ATOM     20  C   UNL     1      49.179   7.111  15.048  0.00  0.00    +0.000 C 
ATOM     21  O   UNL     1      50.005   7.043  14.132  0.00  0.00    +0.000 OA
ATOM     22  H   UNL     1      47.269   7.577  15.597  0.00  0.00    +0.000 HD
BRANCH  20  23
ATOM     23  C   UNL     1      49.583   7.060  16.455  0.00  0.00    +0.000 A 
ATOM     24  C   UNL     1      50.335   8.067  17.044  0.00  0.00    +0.000 A 
ATOM     25  S   UNL     1      50.668   7.769  18.696  0.00  0.00    +0.000 S 
ATOM     26  C   UNL     1      49.811   6.302  18.659  0.00  0.00    +0.000 A 
ATOM     27  N   UNL     1      49.690   5.544  19.765  0.00  0.00    +0.000 NA
ATOM     28  C   UNL     1      48.997   4.419  19.543  0.00  0.00    +0.000 A 
ATOM     29  N   UNL     1      48.458   3.997  18.394  0.00  0.00    +0.000 NA
ATOM     30  C   UNL     1      48.615   4.793  17.345  0.00  0.00    +0.000 A 
ATOM     31  C   UNL     1      49.295   6.008  17.409  0.00  0.00    +0.000 A 
BRANCH  30  32
ATOM     32  O   UNL     1      48.081   4.296  16.195  0.00  0.00    +0.000 OA
ATOM     33  H   UNL     1      47.218   3.952  16.499  0.00  0.00    +0.000 HD
ENDBRANCH  30  32
ENDBRANCH  20  23
ENDBRANCH  18  19
ENDBRANCH   4  18
TORSDOF 8
ENDMDL
MODEL 5
REMARK VINA RESULT:    -7.610      2.856      3.477
REMARK INTER + INTRA:         -12.081
REMARK INTER:                 -11.139
REMARK INTRA:                  -0.942
REMARK UNBOUND:                -1.135
REMARK  Name = 
REMARK  9 active torsions:
REMARK  status: ('A' for Active; 'I' for Inactive)
REMARK    1  A    between atoms: C_1  and  C_2
REMARK    2  A    between atoms: C_5  and  C_6
REMARK    3  A    between atoms: C_6  and  N_7
REMARK    4  A    between atoms: N_7  and  C_8
REMARK    5  A    between atoms: C_8  and  C_9
REMARK    6  A    between atoms: C_12  and  C_13
REMARK    7  A    between atoms: C_13  and  N_14
REMARK    8  A    between atoms: C_15  and  C_17
REMARK    9  A    between atoms: C_24  and  O_25
REMARK                            x       y       z     vdW  Elec       q    Type
REMARK                         _______ _______ _______ _____ _____    ______ ____
ROOT
ATOM      1  C   UNL     1      46.419   4.833  13.314  0.00  0.00    +0.000 A 
ATOM      2  C   UNL     1      46.644   4.410  14.631  0.00  0.00    +0.000 A 
ATOM      3  C   UNL     1      47.561   5.076  15.450  0.00  0.00    +0.000 A 
ATOM      4  C   UNL     1      48.260   6.200  14.977  0.00  0.00    +0.000 A 
ATOM      5  C   UNL     1      48.022   6.626  13.663  0.00  0.00    +0.000 A 
ATOM      6  C   UNL     1      47.111   5.954  12.840  0.00  0.00    +0.000 A 
ENDROOT
BRANCH   1   7
ATOM      7  C   UNL     1      45.427   4.110  12.429  0.00  0.00    +0.000 C 
BRANCH   7   8
ATOM      8  N   UNL     1      45.040   4.879  11.246  0.00  0.00    +0.000 NA
ATOM      9  H   UNL     1      44.493   5.686  11.540  0.00  0.00    +0.000 HD
BRANCH   8  10
ATOM     10  C   UNL     1      44.234   4.103  10.300  0.00  0.00    +0.000 C 
BRANCH  10  15
ATOM     11  C   UNL     1      47.675   1.751   6.215  0.00  0.00    +0.000 C 
ATOM     12  C   UNL     1      46.772   2.340   7.257  0.00  0.00    +0.000 A 
ATOM     13  C   UNL     1      46.091   1.521   8.162  0.00  0.00    +0.000 A 
ATOM     14  C   UNL     1      45.259   2.081   9.138  0.00  0.00    +0.000 A 
ATOM     15  C   UNL     1      45.106   3.473   9.237  0.00  0.00    +0.000 A 
ATOM     16  C   UNL     1      45.777   4.286   8.313  0.00  0.00    +0.000 A 
ATOM     17  C   UNL     1      46.600   3.726   7.335  0.00  0.00    +0.000 A 
ENDBRANCH  10  15
ENDBRANCH   8  10
ENDBRANCH   7   8
ENDBRANCH   1   7
BRANCH   4  18
ATOM     18  C   UNL     1      49.230   6.962  15.856  0.00  0.00    +0.000 C 
BRANCH  18  19
ATOM     19  N   UNL     1      50.271   6.129  16.394  0.00  0.00    +0.000 N 
ATOM     20  C   UNL     1      50.355   5.808  17.720  0.00  0.00    +0.000 C 
ATOM     21  O   UNL     1      49.586   6.262  18.575  0.00  0.00    +0.000 OA
ATOM     22  H   UNL     1      50.716   5.503  15.735  0.00  0.00    +0.000 HD
BRANCH  20  23
ATOM     23  C   UNL     1      51.441   4.890  18.070  0.00  0.00    +0.000 A 
ATOM     24  C   UNL     1      52.604   5.324  18.690  0.00  0.00    +0.000 A 
ATOM     25  S   UNL     1      53.709   4.054  18.995  0.00  0.00    +0.000 S 
ATOM     26  C   UNL     1      52.658   2.904  18.318  0.00  0.00    +0.000 A 
ATOM     27  N   UNL     1      52.991   1.600  18.279  0.00  0.00    +0.000 NA
ATOM     28  C   UNL     1      52.050   0.847  17.696  0.00  0.00    +0.000 A 
ATOM     29  N   UNL     1      50.886   1.244  17.169  0.00  0.00    +0.000 NA
ATOM     30  C   UNL     1      50.621   2.542  17.242  0.00  0.00    +0.000 A 
ATOM     31  C   UNL     1      51.487   3.461  17.832  0.00  0.00    +0.000 A 
BRANCH  30  32
ATOM     32  O   UNL     1      49.444   2.895  16.656  0.00  0.00    +0.000 OA
ATOM     33  H   UNL     1      48.845   2.970  17.425  0.00  0.00    +0.000 HD
ENDBRANCH  30  32
ENDBRANCH  20  23
ENDBRANCH  18  19
ENDBRANCH   4  18
TORSDOF 8
ENDMDL
MODEL 6
REMARK VINA RESULT:    -7.572      2.325      3.065
REMARK INTER + INTRA:         -12.026
REMARK INTER:                 -10.947
REMARK INTRA:                  -1.080
REMARK UNBOUND:                -1.135
REMARK  Name = 
REMARK  9 active torsions:
REMARK  status: ('A' for Active; 'I' for Inactive)
REMARK    1  A    between atoms: C_1  and  C_2
REMARK    2  A    between atoms: C_5  and  C_6
REMARK    3  A    between atoms: C_6  and  N_7
REMARK    4  A    between atoms: N_7  and  C_8
REMARK    5  A    between atoms: C_8  and  C_9
REMARK    6  A    between atoms: C_12  and  C_13
REMARK    7  A    between atoms: C_13  and  N_14
REMARK    8  A    between atoms: C_15  and  C_17
REMARK    9  A    between atoms: C_24  and  O_25
REMARK                            x       y       z     vdW  Elec       q    Type
REMARK                         _______ _______ _______ _____ _____    ______ ____
ROOT
ATOM      1  C   UNL     1      44.528   5.566  11.681  0.00  0.00    +0.000 A 
ATOM      2  C   UNL     1      45.489   6.491  11.248  0.00  0.00    +0.000 A 
ATOM      3  C   UNL     1      46.634   6.744  12.010  0.00  0.00    +0.000 A 
ATOM      4  C   UNL     1      46.858   6.057  13.215  0.00  0.00    +0.000 A 
ATOM      5  C   UNL     1      45.901   5.124  13.637  0.00  0.00    +0.000 A 
ATOM      6  C   UNL     1      44.750   4.879  12.880  0.00  0.00    +0.000 A 
ENDROOT
BRANCH   1   7
ATOM      7  C   UNL     1      43.290   5.295  10.855  0.00  0.00    +0.000 C 
BRANCH   7   8
ATOM      8  N   UNL     1      43.564   4.540   9.632  0.00  0.00    +0.000 NA
ATOM      9  H   UNL     1      42.684   4.343   9.160  0.00  0.00    +0.000 HD
BRANCH   8  10
ATOM     10  C   UNL     1      44.241   3.266   9.887  0.00  0.00    +0.000 C 
BRANCH  10  15
ATOM     11  C   UNL     1      47.966   1.931   5.597  0.00  0.00    +0.000 C 
ATOM     12  C   UNL     1      47.025   2.292   6.706  0.00  0.00    +0.000 A 
ATOM     13  C   UNL     1      46.580   3.608   6.871  0.00  0.00    +0.000 A 
ATOM     14  C   UNL     1      45.693   3.933   7.903  0.00  0.00    +0.000 A 
ATOM     15  C   UNL     1      45.221   2.944   8.781  0.00  0.00    +0.000 A 
ATOM     16  C   UNL     1      45.687   1.632   8.622  0.00  0.00    +0.000 A 
ATOM     17  C   UNL     1      46.579   1.311   7.597  0.00  0.00    +0.000 A 
ENDBRANCH  10  15
ENDBRANCH   8  10
ENDBRANCH   7   8
ENDBRANCH   1   7
BRANCH   4  18
ATOM     18  C   UNL     1      48.108   6.285  14.040  0.00  0.00    +0.000 C 
BRANCH  18  19
ATOM     19  N   UNL     1      48.044   7.481  14.836  0.00  0.00    +0.000 N 
ATOM     20  C   UNL     1      49.157   8.142  15.274  0.00  0.00    +0.000 C 
ATOM     21  O   UNL     1      50.307   7.730  15.083  0.00  0.00    +0.000 OA
ATOM     22  H   UNL     1      47.187   8.013  14.757  0.00  0.00    +0.000 HD
BRANCH  20  23
ATOM     23  C   UNL     1      48.895   9.381  16.010  0.00  0.00    +0.000 A 
ATOM     24  C   UNL     1      49.265  10.624  15.518  0.00  0.00    +0.000 A 
ATOM     25  S   UNL     1      48.840  11.908  16.565  0.00  0.00    +0.000 S 
ATOM     26  C   UNL     1      48.147  10.836  17.686  0.00  0.00    +0.000 A 
ATOM     27  N   UNL     1      47.576  11.290  18.818  0.00  0.00    +0.000 NA
ATOM     28  C   UNL     1      47.100  10.302  19.585  0.00  0.00    +0.000 A 
ATOM     29  N   UNL     1      47.145   8.985  19.355  0.00  0.00    +0.000 NA
ATOM     30  C   UNL     1      47.721   8.607  18.222  0.00  0.00    +0.000 A 
ATOM     31  C   UNL     1      48.253   9.510  17.303  0.00  0.00    +0.000 A 
BRANCH  30  32
ATOM     32  O   UNL     1      47.774   7.256  18.058  0.00  0.00    +0.000 OA
ATOM     33  H   UNL     1      47.443   6.930  18.918  0.00  0.00    +0.000 HD
ENDBRANCH  30  32
ENDBRANCH  20  23
ENDBRANCH  18  19
ENDBRANCH   4  18
TORSDOF 8
ENDMDL
MODEL 7
REMARK VINA RESULT:    -7.559      1.978      2.637
REMARK INTER + INTRA:         -12.008
REMARK INTER:                 -10.738
REMARK INTRA:                  -1.270
REMARK UNBOUND:                -1.135
REMARK  Name = 
REMARK  9 active torsions:
REMARK  status: ('A' for Active; 'I' for Inactive)
REMARK    1  A    between atoms: C_1  and  C_2
REMARK    2  A    between atoms: C_5  and  C_6
REMARK    3  A    between atoms: C_6  and  N_7
REMARK    4  A    between atoms: N_7  and  C_8
REMARK    5  A    between atoms: C_8  and  C_9
REMARK    6  A    between atoms: C_12  and  C_13
REMARK    7  A    between atoms: C_13  and  N_14
REMARK    8  A    between atoms: C_15  and  C_17
REMARK    9  A    between atoms: C_24  and  O_25
REMARK                            x       y       z     vdW  Elec       q    Type
REMARK                         _______ _______ _______ _____ _____    ______ ____
ROOT
ATOM      1  C   UNL     1      44.814   6.126  11.973  0.00  0.00    +0.000 A 
ATOM      2  C   UNL     1      45.396   7.331  11.555  0.00  0.00    +0.000 A 
ATOM      3  C   UNL     1      46.647   7.727  12.038  0.00  0.00    +0.000 A 
ATOM      4  C   UNL     1      47.360   6.912  12.935  0.00  0.00    +0.000 A 
ATOM      5  C   UNL     1      46.779   5.702  13.340  0.00  0.00    +0.000 A 
ATOM      6  C   UNL     1      45.522   5.311  12.864  0.00  0.00    +0.000 A 
ENDROOT
BRANCH   1   7
ATOM      7  C   UNL     1      43.460   5.701  11.450  0.00  0.00    +0.000 C 
BRANCH   7   8
ATOM      8  N   UNL     1      43.522   5.069  10.131  0.00  0.00    +0.000 NA
ATOM      9  H   UNL     1      42.624   5.188   9.665  0.00  0.00    +0.000 HD
BRANCH   8  10
ATOM     10  C   UNL     1      43.814   3.635  10.198  0.00  0.00    +0.000 C 
BRANCH  10  15
ATOM     11  C   UNL     1      47.938   2.236   6.312  0.00  0.00    +0.000 C 
ATOM     12  C   UNL     1      46.863   2.579   7.300  0.00  0.00    +0.000 A 
ATOM     13  C   UNL     1      46.239   1.582   8.056  0.00  0.00    +0.000 A 
ATOM     14  C   UNL     1      45.245   1.913   8.983  0.00  0.00    +0.000 A 
ATOM     15  C   UNL     1      44.867   3.251   9.183  0.00  0.00    +0.000 A 
ATOM     16  C   UNL     1      45.483   4.241   8.407  0.00  0.00    +0.000 A 
ATOM     17  C   UNL     1      46.469   3.909   7.476  0.00  0.00    +0.000 A 
ENDBRANCH  10  15
ENDBRANCH   8  10
ENDBRANCH   7   8
ENDBRANCH   1   7
BRANCH   4  18
ATOM     18  C   UNL     1      48.733   7.300  13.444  0.00  0.00    +0.000 C 
BRANCH  18  19
ATOM     19  N   UNL     1      49.071   6.662  14.687  0.00  0.00    +0.000 N 
ATOM     20  C   UNL     1      48.882   7.256  15.903  0.00  0.00    +0.000 C 
ATOM     21  O   UNL     1      48.470   8.414  16.032  0.00  0.00    +0.000 OA
ATOM     22  H   UNL     1      49.108   5.651  14.663  0.00  0.00    +0.000 HD
BRANCH  20  23
ATOM     23  C   UNL     1      49.217   6.424  17.060  0.00  0.00    +0.000 A 
ATOM     24  C   UNL     1      48.272   6.064  18.009  0.00  0.00    +0.000 A 
ATOM     25  S   UNL     1      48.918   5.086  19.255  0.00  0.00    +0.000 S 
ATOM     26  C   UNL     1      50.464   5.116  18.550  0.00  0.00    +0.000 A 
ATOM     27  N   UNL     1      51.494   4.452  19.110  0.00  0.00    +0.000 NA
ATOM     28  C   UNL     1      52.635   4.604  18.426  0.00  0.00    +0.000 A 
ATOM     29  N   UNL     1      52.840   5.319  17.314  0.00  0.00    +0.000 NA
ATOM     30  C   UNL     1      51.783   5.947  16.816  0.00  0.00    +0.000 A 
ATOM     31  C   UNL     1      50.517   5.879  17.397  0.00  0.00    +0.000 A 
BRANCH  30  32
ATOM     32  O   UNL     1      52.058   6.690  15.709  0.00  0.00    +0.000 OA
ATOM     33  H   UNL     1      51.950   6.037  14.990  0.00  0.00    +0.000 HD
ENDBRANCH  30  32
ENDBRANCH  20  23
ENDBRANCH  18  19
ENDBRANCH   4  18
TORSDOF 8
ENDMDL
MODEL 8
REMARK VINA RESULT:    -7.249      3.630      8.690
REMARK INTER + INTRA:         -11.562
REMARK INTER:                  -9.834
REMARK INTRA:                  -1.727
REMARK UNBOUND:                -1.135
REMARK  Name = 
REMARK  9 active torsions:
REMARK  status: ('A' for Active; 'I' for Inactive)
REMARK    1  A    between atoms: C_1  and  C_2
REMARK    2  A    between atoms: C_5  and  C_6
REMARK    3  A    between atoms: C_6  and  N_7
REMARK    4  A    between atoms: N_7  and  C_8
REMARK    5  A    between atoms: C_8  and  C_9
REMARK    6  A    between atoms: C_12  and  C_13
REMARK    7  A    between atoms: C_13  and  N_14
REMARK    8  A    between atoms: C_15  and  C_17
REMARK    9  A    between atoms: C_24  and  O_25
REMARK                            x       y       z     vdW  Elec       q    Type
REMARK                         _______ _______ _______ _____ _____    ______ ____
ROOT
ATOM      1  C   UNL     1      48.684   8.054  16.240  0.00  0.00    +0.000 A 
ATOM      2  C   UNL     1      48.128   9.138  15.547  0.00  0.00    +0.000 A 
ATOM      3  C   UNL     1      48.084   9.147  14.149  0.00  0.00    +0.000 A 
ATOM      4  C   UNL     1      48.576   8.058  13.409  0.00  0.00    +0.000 A 
ATOM      5  C   UNL     1      49.120   6.971  14.108  0.00  0.00    +0.000 A 
ATOM      6  C   UNL     1      49.172   6.966  15.507  0.00  0.00    +0.000 A 
ENDROOT
BRANCH   1   7
ATOM      7  C   UNL     1      48.732   8.047  17.752  0.00  0.00    +0.000 C 
BRANCH   7   8
ATOM      8  N   UNL     1      47.433   7.770  18.370  0.00  0.00    +0.000 NA
ATOM      9  H   UNL     1      47.128   8.596  18.883  0.00  0.00    +0.000 HD
BRANCH   8  10
ATOM     10  C   UNL     1      47.475   6.643  19.304  0.00  0.00    +0.000 C 
BRANCH  10  15
ATOM     11  C   UNL     1      49.567   1.900  16.620  0.00  0.00    +0.000 C 
ATOM     12  C   UNL     1      49.037   3.109  17.331  0.00  0.00    +0.000 A 
ATOM     13  C   UNL     1      49.846   3.839  18.207  0.00  0.00    +0.000 A 
ATOM     14  C   UNL     1      49.345   4.972  18.858  0.00  0.00    +0.000 A 
ATOM     15  C   UNL     1      48.030   5.406  18.632  0.00  0.00    +0.000 A 
ATOM     16  C   UNL     1      47.219   4.657  17.769  0.00  0.00    +0.000 A 
ATOM     17  C   UNL     1      47.716   3.522  17.126  0.00  0.00    +0.000 A 
ENDBRANCH  10  15
ENDBRANCH   8  10
ENDBRANCH   7   8
ENDBRANCH   1   7
BRANCH   4  18
ATOM     18  C   UNL     1      48.506   8.026  11.897  0.00  0.00    +0.000 C 
BRANCH  18  19
ATOM     19  N   UNL     1      47.715   6.936  11.395  0.00  0.00    +0.000 N 
ATOM     20  C   UNL     1      46.349   6.966  11.356  0.00  0.00    +0.000 C 
ATOM     21  O   UNL     1      45.680   7.900  11.811  0.00  0.00    +0.000 OA
ATOM     22  H   UNL     1      48.186   6.315  10.750  0.00  0.00    +0.000 HD
BRANCH  20  23
ATOM     23  C   UNL     1      45.719   5.794  10.744  0.00  0.00    +0.000 A 
ATOM     24  C   UNL     1      45.862   5.498   9.396  0.00  0.00    +0.000 A 
ATOM     25  S   UNL     1      45.033   4.074   8.935  0.00  0.00    +0.000 S 
ATOM     26  C   UNL     1      44.477   3.820  10.520  0.00  0.00    +0.000 A 
ATOM     27  N   UNL     1      43.718   2.751  10.825  0.00  0.00    +0.000 NA
ATOM     28  C   UNL     1      43.361   2.725  12.115  0.00  0.00    +0.000 A 
ATOM     29  N   UNL     1      43.659   3.613  13.070  0.00  0.00    +0.000 NA
ATOM     30  C   UNL     1      44.411   4.642  12.701  0.00  0.00    +0.000 A 
ATOM     31  C   UNL     1      44.881   4.810  11.400  0.00  0.00    +0.000 A 
BRANCH  30  32
ATOM     32  O   UNL     1      44.649   5.534  13.702  0.00  0.00    +0.000 OA
ATOM     33  H   UNL     1      44.899   4.948  14.445  0.00  0.00    +0.000 HD
ENDBRANCH  30  32
ENDBRANCH  20  23
ENDBRANCH  18  19
ENDBRANCH   4  18
TORSDOF 8
ENDMDL
MODEL 9
REMARK VINA RESULT:    -7.008      3.503      9.226
REMARK INTER + INTRA:         -11.216
REMARK INTER:                  -9.397
REMARK INTRA:                  -1.819
REMARK UNBOUND:                -1.135
REMARK  Name = 
REMARK  9 active torsions:
REMARK  status: ('A' for Active; 'I' for Inactive)
REMARK    1  A    between atoms: C_1  and  C_2
REMARK    2  A    between atoms: C_5  and  C_6
REMARK    3  A    between atoms: C_6  and  N_7
REMARK    4  A    between atoms: N_7  and  C_8
REMARK    5  A    between atoms: C_8  and  C_9
REMARK    6  A    between atoms: C_12  and  C_13
REMARK    7  A    between atoms: C_13  and  N_14
REMARK    8  A    between atoms: C_15  and  C_17
REMARK    9  A    between atoms: C_24  and  O_25
REMARK                            x       y       z     vdW  Elec       q    Type
REMARK                         _______ _______ _______ _____ _____    ______ ____
ROOT
ATOM      1  C   UNL     1      49.204   8.384  15.961  0.00  0.00    +0.000 A 
ATOM      2  C   UNL     1      48.137   9.133  15.444  0.00  0.00    +0.000 A 
ATOM      3  C   UNL     1      47.681   8.922  14.139  0.00  0.00    +0.000 A 
ATOM      4  C   UNL     1      48.266   7.937  13.325  0.00  0.00    +0.000 A 
ATOM      5  C   UNL     1      49.324   7.182  13.852  0.00  0.00    +0.000 A 
ATOM      6  C   UNL     1      49.787   7.400  15.155  0.00  0.00    +0.000 A 
ENDROOT
BRANCH   1   7
ATOM      7  C   UNL     1      49.696   8.615  17.373  0.00  0.00    +0.000 C 
BRANCH   7   8
ATOM      8  N   UNL     1      48.678   8.350  18.391  0.00  0.00    +0.000 NA
ATOM      9  H   UNL     1      48.533   9.195  18.941  0.00  0.00    +0.000 HD
BRANCH   8  10
ATOM     10  C   UNL     1      49.053   7.269  19.305  0.00  0.00    +0.000 C 
BRANCH  10  15
ATOM     11  C   UNL     1      48.878   2.148  16.510  0.00  0.00    +0.000 C 
ATOM     12  C   UNL     1      48.934   3.452  17.247  0.00  0.00    +0.000 A 
ATOM     13  C   UNL     1      50.142   3.935  17.761  0.00  0.00    +0.000 A 
ATOM     14  C   UNL     1      50.186   5.159  18.438  0.00  0.00    +0.000 A 
ATOM     15  C   UNL     1      49.025   5.931  18.600  0.00  0.00    +0.000 A 
ATOM     16  C   UNL     1      47.815   5.431  18.101  0.00  0.00    +0.000 A 
ATOM     17  C   UNL     1      47.771   4.206  17.433  0.00  0.00    +0.000 A 
ENDBRANCH  10  15
ENDBRANCH   8  10
ENDBRANCH   7   8
ENDBRANCH   1   7
BRANCH   4  18
ATOM     18  C   UNL     1      47.766   7.663  11.922  0.00  0.00    +0.000 C 
BRANCH  18  19
ATOM     19  N   UNL     1      46.977   6.465  11.832  0.00  0.00    +0.000 N 
ATOM     20  C   UNL     1      45.612   6.468  11.899  0.00  0.00    +0.000 C 
ATOM     21  O   UNL     1      44.948   7.489  12.111  0.00  0.00    +0.000 OA
ATOM     22  H   UNL     1      47.418   5.685  11.364  0.00  0.00    +0.000 HD
BRANCH  20  23
ATOM     23  C   UNL     1      44.978   5.161  11.716  0.00  0.00    +0.000 A 
ATOM     24  C   UNL     1      44.335   4.500  12.753  0.00  0.00    +0.000 A 
ATOM     25  S   UNL     1      43.674   2.996  12.276  0.00  0.00    +0.000 S 
ATOM     26  C   UNL     1      44.222   3.201  10.680  0.00  0.00    +0.000 A 
ATOM     27  N   UNL     1      43.971   2.272   9.738  0.00  0.00    +0.000 NA
ATOM     28  C   UNL     1      44.492   2.596   8.547  0.00  0.00    +0.000 A 
ATOM     29  N   UNL     1      45.205   3.681   8.228  0.00  0.00    +0.000 NA
ATOM     30  C   UNL     1      45.415   4.554   9.204  0.00  0.00    +0.000 A 
ATOM     31  C   UNL     1      44.926   4.378  10.498  0.00  0.00    +0.000 A 
BRANCH  30  32
ATOM     32  O   UNL     1      46.179   5.619   8.833  0.00  0.00    +0.000 OA
ATOM     33  H   UNL     1      46.496   5.347   7.948  0.00  0.00    +0.000 HD
ENDBRANCH  30  32
ENDBRANCH  20  23
ENDBRANCH  18  19
ENDBRANCH   4  18
TORSDOF 8
ENDMDL
