MODEL 1
REMARK VINA RESULT:    -8.451      0.000      0.000
REMARK INTER + INTRA:         -13.182
REMARK INTER:                 -12.157
REMARK INTRA:                  -1.025
REMARK UNBOUND:                -1.025
REMARK  Name = 
REMARK  8 active torsions:
REMARK  status: ('A' for Active; 'I' for Inactive)
REMARK    1  A    between atoms: C_2  and  C_4
REMARK    2  A    between atoms: C_7  and  C_8
REMARK    3  A    between atoms: C_8  and  C_9
REMARK    4  A    between atoms: C_8  and  C_11
REMARK    5  A    between atoms: C_9  and  O_10
REMARK    6  A    between atoms: C_11  and  N_12
REMARK    7  A    between atoms: N_12  and  C_13
REMARK    8  A    between atoms: C_17  and  C_18
REMARK                            x       y       z     vdW  Elec       q    Type
REMARK                         _______ _______ _______ _____ _____    ______ ____
ROOT
ATOM      1  C   UNL     1      43.759   3.756  10.375  0.00  0.00    +0.000 C 
ENDROOT
BRANCH   1   5
ATOM      2  C   UNL     1      46.634   2.394   7.400  0.00  0.00    +0.000 A 
ATOM      3  C   UNL     1      46.324   3.755   7.518  0.00  0.00    +0.000 A 
ATOM      4  C   UNL     1      45.391   4.183   8.470  0.00  0.00    +0.000 A 
ATOM      5  C   UNL     1      44.755   3.263   9.318  0.00  0.00    +0.000 A 
ATOM      6  C   UNL     1      45.045   1.896   9.152  0.00  0.00    +0.000 A 
ATOM      7  C   UNL     1      45.976   1.467   8.208  0.00  0.00    +0.000 A 
BRANCH   2   9
ATOM      8  N   UNL     1      48.789   2.612   6.294  0.00  0.00    +0.000 N 
ATOM      9  C   UNL     1      47.643   1.885   6.431  0.00  0.00    +0.000 C 
ATOM     10  O   UNL     1      47.480   0.833   5.826  0.00  0.00    +0.000 OA
ATOM     11  H   UNL     1      49.521   2.177   5.748  0.00  0.00    +0.000 HD
ATOM     12  H   UNL     1      49.064   3.314   6.966  0.00  0.00    +0.000 HD
ENDBRANCH   2   9
ENDBRANCH   1   5
BRANCH   1  13
ATOM     13  C   UNL     1      43.853   2.893  11.643  0.00  0.00    +0.000 C 
BRANCH  13  14
ATOM     14  O   UNL     1      42.809   1.929  11.716  0.00  0.00    +0.000 OA
ATOM     15  H   UNL     1      42.018   2.393  12.046  0.00  0.00    +0.000 HD
ENDBRANCH  13  14
ENDBRANCH   1  13
BRANCH   1  16
ATOM     16  C   UNL     1      43.934   5.267  10.649  0.00  0.00    +0.000 C 
BRANCH  16  17
ATOM     17  N   UNL     1      44.159   5.586  12.063  0.00  0.00    +0.000 N 
ATOM     18  H   UNL     1      43.785   4.856  12.670  0.00  0.00    +0.000 HD
BRANCH  17  19
ATOM     19  C   UNL     1      45.508   5.815  12.428  0.00  0.00    +0.000 A 
ATOM     20  C   UNL     1      46.354   6.689  11.737  0.00  0.00    +0.000 A 
ATOM     21  C   UNL     1      47.659   6.919  12.168  0.00  0.00    +0.000 A 
ATOM     22  C   UNL     1      48.123   6.318  13.334  0.00  0.00    +0.000 A 
ATOM     23  C   UNL     1      47.286   5.503  14.114  0.00  0.00    +0.000 A 
ATOM     24  C   UNL     1      45.983   5.261  13.630  0.00  0.00    +0.000 A 
BRANCH  23  25
ATOM     25  C   UNL     1      47.725   4.989  15.432  0.00  0.00    +0.000 A 
ATOM     26  C   UNL     1      48.516   5.785  16.283  0.00  0.00    +0.000 A 
ATOM     27  C   UNL     1      48.878   5.355  17.561  0.00  0.00    +0.000 A 
ATOM     28  C   UNL     1      48.449   4.117  18.024  0.00  0.00    +0.000 A 
ATOM     29  C   UNL     1      47.680   3.301  17.200  0.00  0.00    +0.000 A 
ATOM     30  C   UNL     1      47.330   3.729  15.914  0.00  0.00    +0.000 A 
ENDBRANCH  23  25
ENDBRANCH  17  19
ENDBRANCH  16  17
ENDBRANCH   1  16
TORSDOF 8
ENDMDL
MODEL 2
REMARK VINA RESULT:    -8.220      1.709      3.831
REMARK INTER + INTRA:         -12.848
REMARK INTER:                 -11.882
REMARK INTRA:                  -0.966
REMARK UNBOUND:                -1.025
REMARK  Name = 
REMARK  8 active torsions:
REMARK  status: ('A' for Active; 'I' for Inactive)
REMARK    1  A    between atoms: C_2  and  C_4
REMARK    2  A    between atoms: C_7  and  C_8
REMARK    3  A    between atoms: C_8  and  C_9
REMARK    4  A    between atoms: C_8  and  C_11
REMARK    5  A    between atoms: C_9  and  O_10
REMARK    6  A    between atoms: C_11  and  N_12
REMARK    7  A    between atoms: N_12  and  C_13
REMARK    8  A    between atoms: C_17  and  C_18
REMARK                            x       y       z     vdW  Elec       q    Type
REMARK                         _______ _______ _______ _____ _____    ______ ____
ROOT
ATOM      1  C   UNL     1      43.552   3.742  10.657  0.00  0.00    +0.000 C 
ENDROOT
BRANCH   1   5
ATOM      2  C   UNL     1      46.515   2.821   7.601  0.00  0.00    +0.000 A 
ATOM      3  C   UNL     1      46.162   4.149   7.871  0.00  0.00    +0.000 A 
ATOM      4  C   UNL     1      45.201   4.436   8.847  0.00  0.00    +0.000 A 
ATOM      5  C   UNL     1      44.579   3.405   9.570  0.00  0.00    +0.000 A 
ATOM      6  C   UNL     1      44.914   2.076   9.251  0.00  0.00    +0.000 A 
ATOM      7  C   UNL     1      45.872   1.787   8.282  0.00  0.00    +0.000 A 
BRANCH   2   9
ATOM      8  N   UNL     1      47.524   3.123   5.409  0.00  0.00    +0.000 N 
ATOM      9  C   UNL     1      47.555   2.457   6.599  0.00  0.00    +0.000 C 
ATOM     10  O   UNL     1      48.431   1.640   6.849  0.00  0.00    +0.000 OA
ATOM     11  H   UNL     1      48.320   2.972   4.802  0.00  0.00    +0.000 HD
ATOM     12  H   UNL     1      46.998   3.975   5.282  0.00  0.00    +0.000 HD
ENDBRANCH   2   9
ENDBRANCH   1   5
BRANCH   1  13
ATOM     13  C   UNL     1      43.702   2.786  11.851  0.00  0.00    +0.000 C 
BRANCH  13  14
ATOM     14  O   UNL     1      42.788   1.698  11.786  0.00  0.00    +0.000 OA
ATOM     15  H   UNL     1      41.891   2.079  11.831  0.00  0.00    +0.000 HD
ENDBRANCH  13  14
ENDBRANCH   1  13
BRANCH   1  16
ATOM     16  C   UNL     1      43.626   5.234  11.055  0.00  0.00    +0.000 C 
BRANCH  16  17
ATOM     17  N   UNL     1      43.769   5.451  12.499  0.00  0.00    +0.000 N 
ATOM     18  H   UNL     1      43.465   4.633  13.027  0.00  0.00    +0.000 HD
BRANCH  17  19
ATOM     19  C   UNL     1      45.071   5.798  12.935  0.00  0.00    +0.000 A 
ATOM     20  C   UNL     1      45.906   4.923  13.639  0.00  0.00    +0.000 A 
ATOM     21  C   UNL     1      47.199   5.295  13.999  0.00  0.00    +0.000 A 
ATOM     22  C   UNL     1      47.700   6.534  13.611  0.00  0.00    +0.000 A 
ATOM     23  C   UNL     1      46.936   7.414  12.827  0.00  0.00    +0.000 A 
ATOM     24  C   UNL     1      45.619   7.022  12.511  0.00  0.00    +0.000 A 
BRANCH  23  25
ATOM     25  C   UNL     1      47.520   8.662  12.282  0.00  0.00    +0.000 A 
ATOM     26  C   UNL     1      48.864   8.701  11.865  0.00  0.00    +0.000 A 
ATOM     27  C   UNL     1      49.416   9.841  11.276  0.00  0.00    +0.000 A 
ATOM     28  C   UNL     1      48.632  10.971  11.084  0.00  0.00    +0.000 A 
ATOM     29  C   UNL     1      47.303  10.969  11.500  0.00  0.00    +0.000 A 
ATOM     30  C   UNL     1      46.757   9.829  12.102  0.00  0.00    +0.000 A 
ENDBRANCH  23  25
ENDBRANCH  17  19
ENDBRANCH  16  17
ENDBRANCH   1  16
TORSDOF 8
ENDMDL
MODEL 3
REMARK VINA RESULT:    -7.716      2.925      3.900
REMARK INTER + INTRA:         -12.124
REMARK INTER:                 -11.235
REMARK INTRA:                  -0.889
REMARK UNBOUND:                -1.025
REMARK  Name = 
REMARK  8 active torsions:
REMARK  status: ('A' for Active; 'I' for Inactive)
REMARK    1  A    between atoms: C_2  and  C_4
REMARK    2  A    between atoms: C_7  and  C_8
REMARK    3  A    between atoms: C_8  and  C_9
REMARK    4  A    between atoms: C_8  and  C_11
REMARK    5  A    between atoms: C_9  and  O_10
REMARK    6  A    between atoms: C_11  and  N_12
REMARK    7  A    between atoms: N_12  and  C_13
REMARK    8  A    between atoms: C_17  and  C_18
REMARK                            x       y       z     vdW  Elec       q    Type
REMARK                         _______ _______ _______ _____ _____    ______ ____
ROOT
ATOM      1  C   UNL     1      43.957   3.799  10.482  0.00  0.00    +0.000 C 
ENDROOT
BRANCH   1   5
ATOM      2  C   UNL     1      46.588   2.500   7.265  0.00  0.00    +0.000 A 
ATOM      3  C   UNL     1      46.123   1.583   8.215  0.00  0.00    +0.000 A 
ATOM      4  C   UNL     1      45.286   2.011   9.252  0.00  0.00    +0.000 A 
ATOM      5  C   UNL     1      44.900   3.357   9.357  0.00  0.00    +0.000 A 
ATOM      6  C   UNL     1      45.416   4.270   8.419  0.00  0.00    +0.000 A 
ATOM      7  C   UNL     1      46.246   3.847   7.383  0.00  0.00    +0.000 A 
BRANCH   2   9
ATOM      8  N   UNL     1      48.791   2.320   6.249  0.00  0.00    +0.000 N 
ATOM      9  C   UNL     1      47.451   2.097   6.120  0.00  0.00    +0.000 C 
ATOM     10  O   UNL     1      46.991   1.540   5.131  0.00  0.00    +0.000 OA
ATOM     11  H   UNL     1      49.375   1.909   5.532  0.00  0.00    +0.000 HD
ATOM     12  H   UNL     1      49.220   2.518   7.142  0.00  0.00    +0.000 HD
ENDBRANCH   2   9
ENDBRANCH   1   5
BRANCH   1  13
ATOM     13  C   UNL     1      43.971   2.775  11.628  0.00  0.00    +0.000 C 
BRANCH  13  14
ATOM     14  O   UNL     1      42.780   2.000  11.670  0.00  0.00    +0.000 OA
ATOM     15  H   UNL     1      42.722   1.521  10.823  0.00  0.00    +0.000 HD
ENDBRANCH  13  14
ENDBRANCH   1  13
BRANCH   1  16
ATOM     16  C   UNL     1      44.274   5.240  10.945  0.00  0.00    +0.000 C 
BRANCH  16  17
ATOM     17  N   UNL     1      45.530   5.353  11.695  0.00  0.00    +0.000 N 
ATOM     18  H   UNL     1      46.287   4.857  11.224  0.00  0.00    +0.000 HD
BRANCH  17  19
ATOM     19  C   UNL     1      45.965   6.676  11.956  0.00  0.00    +0.000 A 
ATOM     20  C   UNL     1      45.188   7.621  12.634  0.00  0.00    +0.000 A 
ATOM     21  C   UNL     1      45.683   8.894  12.912  0.00  0.00    +0.000 A 
ATOM     22  C   UNL     1      46.989   9.225  12.562  0.00  0.00    +0.000 A 
ATOM     23  C   UNL     1      47.840   8.284  11.961  0.00  0.00    +0.000 A 
ATOM     24  C   UNL     1      47.296   7.017  11.660  0.00  0.00    +0.000 A 
BRANCH  23  25
ATOM     25  C   UNL     1      49.273   8.581  11.731  0.00  0.00    +0.000 A 
ATOM     26  C   UNL     1      49.796   9.855  12.024  0.00  0.00    +0.000 A 
ATOM     27  C   UNL     1      51.157  10.137  11.890  0.00  0.00    +0.000 A 
ATOM     28  C   UNL     1      52.032   9.146  11.464  0.00  0.00    +0.000 A 
ATOM     29  C   UNL     1      51.543   7.881  11.150  0.00  0.00    +0.000 A 
ATOM     30  C   UNL     1      50.176   7.605  11.274  0.00  0.00    +0.000 A 
ENDBRANCH  23  25
ENDBRANCH  17  19
ENDBRANCH  16  17
ENDBRANCH   1  16
TORSDOF 8
ENDMDL
MODEL 4
REMARK VINA RESULT:    -7.570      4.013      7.497
REMARK INTER + INTRA:         -11.914
REMARK INTER:                 -10.727
REMARK INTRA:                  -1.187
REMARK UNBOUND:                -1.025
REMARK  Name = 
REMARK  8 active torsions:
REMARK  status: ('A' for Active; 'I' for Inactive)
REMARK    1  A    between atoms: C_2  and  C_4
REMARK    2  A    between atoms: C_7  and  C_8
REMARK    3  A    between atoms: C_8  and  C_9
REMARK    4  A    between atoms: C_8  and  C_11
REMARK    5  A    between atoms: C_9  and  O_10
REMARK    6  A    between atoms: C_11  and  N_12
REMARK    7  A    between atoms: N_12  and  C_13
REMARK    8  A    between atoms: C_17  and  C_18
REMARK                            x       y       z     vdW  Elec       q    Type
REMARK                         _______ _______ _______ _____ _____    ______ ____
ROOT
ATOM      1  C   UNL     1      45.345   8.401  12.406  0.00  0.00    +0.000 C 
ENDROOT
BRANCH   1   5
ATOM      2  C   UNL     1      49.656   8.229  11.814  0.00  0.00    +0.000 A 
ATOM      3  C   UNL     1      48.934   7.070  12.122  0.00  0.00    +0.000 A 
ATOM      4  C   UNL     1      47.551   7.135  12.321  0.00  0.00    +0.000 A 
ATOM      5  C   UNL     1      46.865   8.356  12.215  0.00  0.00    +0.000 A 
ATOM      6  C   UNL     1      47.615   9.517  11.950  0.00  0.00    +0.000 A 
ATOM      7  C   UNL     1      48.992   9.455  11.748  0.00  0.00    +0.000 A 
BRANCH   2   9
ATOM      8  N   UNL     1      51.597   7.221  10.751  0.00  0.00    +0.000 N 
ATOM      9  C   UNL     1      51.122   8.215  11.556  0.00  0.00    +0.000 C 
ATOM     10  O   UNL     1      51.862   9.085  11.999  0.00  0.00    +0.000 OA
ATOM     11  H   UNL     1      52.565   7.312  10.468  0.00  0.00    +0.000 HD
ATOM     12  H   UNL     1      50.991   6.668  10.163  0.00  0.00    +0.000 HD
ENDBRANCH   2   9
ENDBRANCH   1   5
BRANCH   1  13
ATOM     13  C   UNL     1      44.703   9.344  11.376  0.00  0.00    +0.000 C 
BRANCH  13  14
ATOM     14  O   UNL     1      43.289   9.197  11.321  0.00  0.00    +0.000 OA
ATOM     15  H   UNL     1      43.084   8.738  10.485  0.00  0.00    +0.000 HD
ENDBRANCH  13  14
ENDBRANCH   1  13
BRANCH   1  16
ATOM     16  C   UNL     1      44.736   6.980  12.399  0.00  0.00    +0.000 C 
BRANCH  16  17
ATOM     17  N   UNL     1      44.277   6.544  11.075  0.00  0.00    +0.000 N 
ATOM     18  H   UNL     1      44.828   6.975  10.333  0.00  0.00    +0.000 HD
BRANCH  17  19
ATOM     19  C   UNL     1      44.271   5.144  10.865  0.00  0.00    +0.000 A 
ATOM     20  C   UNL     1      43.413   4.268  11.538  0.00  0.00    +0.000 A 
ATOM     21  C   UNL     1      43.411   2.904  11.256  0.00  0.00    +0.000 A 
ATOM     22  C   UNL     1      44.232   2.399  10.252  0.00  0.00    +0.000 A 
ATOM     23  C   UNL     1      45.046   3.247   9.485  0.00  0.00    +0.000 A 
ATOM     24  C   UNL     1      45.052   4.617   9.821  0.00  0.00    +0.000 A 
BRANCH  23  25
ATOM     25  C   UNL     1      45.801   2.737   8.317  0.00  0.00    +0.000 A 
ATOM     26  C   UNL     1      46.171   3.604   7.270  0.00  0.00    +0.000 A 
ATOM     27  C   UNL     1      46.949   3.166   6.196  0.00  0.00    +0.000 A 
ATOM     28  C   UNL     1      47.383   1.848   6.147  0.00  0.00    +0.000 A 
ATOM     29  C   UNL     1      47.021   0.963   7.158  0.00  0.00    +0.000 A 
ATOM     30  C   UNL     1      46.230   1.402   8.227  0.00  0.00    +0.000 A 
ENDBRANCH  23  25
ENDBRANCH  17  19
ENDBRANCH  16  17
ENDBRANCH   1  16
TORSDOF 8
ENDMDL
MODEL 5
REMARK VINA RESULT:    -7.510      3.027      7.715
REMARK INTER + INTRA:         -11.828
REMARK INTER:                 -10.664
REMARK INTRA:                  -1.164
REMARK UNBOUND:                -1.025
REMARK  Name = 
REMARK  8 active torsions:
REMARK  status: ('A' for Active; 'I' for Inactive)
REMARK    1  A    between atoms: C_2  and  C_4
REMARK    2  A    between atoms: C_7  and  C_8
REMARK    3  A    between atoms: C_8  and  C_9
REMARK    4  A    between atoms: C_8  and  C_11
REMARK    5  A    between atoms: C_9  and  O_10
REMARK    6  A    between atoms: C_11  and  N_12
REMARK    7  A    between atoms: N_12  and  C_13
REMARK    8  A    between atoms: C_17  and  C_18
REMARK                            x       y       z     vdW  Elec       q    Type
REMARK                         _______ _______ _______ _____ _____    ______ ____
ROOT
ATOM      1  C   UNL     1      47.477   7.606  13.320  0.00  0.00    +0.000 C 
ENDROOT
BRANCH   1   5
ATOM      2  C   UNL     1      47.834   4.206  16.018  0.00  0.00    +0.000 A 
ATOM      3  C   UNL     1      48.530   5.393  16.275  0.00  0.00    +0.000 A 
ATOM      4  C   UNL     1      48.419   6.478  15.398  0.00  0.00    +0.000 A 
ATOM      5  C   UNL     1      47.611   6.396  14.252  0.00  0.00    +0.000 A 
ATOM      6  C   UNL     1      46.957   5.179  13.987  0.00  0.00    +0.000 A 
ATOM      7  C   UNL     1      47.064   4.098  14.860  0.00  0.00    +0.000 A 
BRANCH   2   9
ATOM      8  N   UNL     1      46.772   2.784  17.681  0.00  0.00    +0.000 N 
ATOM      9  C   UNL     1      47.887   3.033  16.933  0.00  0.00    +0.000 C 
ATOM     10  O   UNL     1      48.860   2.292  16.975  0.00  0.00    +0.000 OA
ATOM     11  H   UNL     1      46.769   1.905  18.183  0.00  0.00    +0.000 HD
ATOM     12  H   UNL     1      45.878   3.202  17.470  0.00  0.00    +0.000 HD
ENDBRANCH   2   9
ENDBRANCH   1   5
BRANCH   1  13
ATOM     13  C   UNL     1      48.436   7.472  12.126  0.00  0.00    +0.000 C 
BRANCH  13  14
ATOM     14  O   UNL     1      49.609   6.739  12.459  0.00  0.00    +0.000 OA
ATOM     15  H   UNL     1      49.407   6.230  13.266  0.00  0.00    +0.000 HD
ENDBRANCH  13  14
ENDBRANCH   1  13
BRANCH   1  16
ATOM     16  C   UNL     1      46.006   7.831  12.900  0.00  0.00    +0.000 C 
BRANCH  16  17
ATOM     17  N   UNL     1      45.764   7.621  11.468  0.00  0.00    +0.000 N 
ATOM     18  H   UNL     1      46.637   7.636  10.940  0.00  0.00    +0.000 HD
BRANCH  17  19
ATOM     19  C   UNL     1      45.069   6.433  11.137  0.00  0.00    +0.000 A 
ATOM     20  C   UNL     1      43.752   6.177  11.534  0.00  0.00    +0.000 A 
ATOM     21  C   UNL     1      43.094   5.014  11.137  0.00  0.00    +0.000 A 
ATOM     22  C   UNL     1      43.726   4.112  10.287  0.00  0.00    +0.000 A 
ATOM     23  C   UNL     1      45.014   4.365   9.787  0.00  0.00    +0.000 A 
ATOM     24  C   UNL     1      45.666   5.533  10.238  0.00  0.00    +0.000 A 
BRANCH  23  25
ATOM     25  C   UNL     1      45.627   3.488   8.762  0.00  0.00    +0.000 A 
ATOM     26  C   UNL     1      46.274   4.042   7.641  0.00  0.00    +0.000 A 
ATOM     27  C   UNL     1      46.926   3.241   6.702  0.00  0.00    +0.000 A 
ATOM     28  C   UNL     1      46.954   1.862   6.866  0.00  0.00    +0.000 A 
ATOM     29  C   UNL     1      46.309   1.283   7.956  0.00  0.00    +0.000 A 
ATOM     30  C   UNL     1      45.645   2.089   8.889  0.00  0.00    +0.000 A 
ENDBRANCH  23  25
ENDBRANCH  17  19
ENDBRANCH  16  17
ENDBRANCH   1  16
TORSDOF 8
ENDMDL
MODEL 6
REMARK VINA RESULT:    -7.291      3.143      7.583
REMARK INTER + INTRA:         -11.512
REMARK INTER:                 -10.184
REMARK INTRA:                  -1.327
REMARK UNBOUND:                -1.025
REMARK  Name = 
REMARK  8 active torsions:
REMARK  status: ('A' for Active; 'I' for Inactive)
REMARK    1  A    between atoms: C_2  and  C_4
REMARK    2  A    between atoms: C_7  and  C_8
REMARK    3  A    between atoms: C_8  and  C_9
REMARK    4  A    between atoms: C_8  and  C_11
REMARK    5  A    between atoms: C_9  and  O_10
REMARK    6  A    between atoms: C_11  and  N_12
REMARK    7  A    between atoms: N_12  and  C_13
REMARK    8  A    between atoms: C_17  and  C_18
REMARK                            x       y       z     vdW  Elec       q    Type
REMARK                         _______ _______ _______ _____ _____    ______ ____
ROOT
ATOM      1  C   UNL     1      46.902   4.416  14.016  0.00  0.00    +0.000 C 
ENDROOT
BRANCH   1   5
ATOM      2  C   UNL     1      48.528   8.145  12.461  0.00  0.00    +0.000 A 
ATOM      3  C   UNL     1      48.881   7.694  13.739  0.00  0.00    +0.000 A 
ATOM      4  C   UNL     1      48.346   6.500  14.236  0.00  0.00    +0.000 A 
ATOM      5  C   UNL     1      47.453   5.737  13.467  0.00  0.00    +0.000 A 
ATOM      6  C   UNL     1      47.075   6.231  12.204  0.00  0.00    +0.000 A 
ATOM      7  C   UNL     1      47.608   7.418  11.706  0.00  0.00    +0.000 A 
BRANCH   2   9
ATOM      8  N   UNL     1      50.429   9.602  12.038  0.00  0.00    +0.000 N 
ATOM      9  C   UNL     1      49.092   9.388  11.867  0.00  0.00    +0.000 C 
ATOM     10  O   UNL     1      48.404  10.156  11.207  0.00  0.00    +0.000 OA
ATOM     11  H   UNL     1      50.821  10.368  11.506  0.00  0.00    +0.000 HD
ATOM     12  H   UNL     1      51.058   8.869  12.331  0.00  0.00    +0.000 HD
ENDBRANCH   2   9
ENDBRANCH   1   5
BRANCH   1  13
ATOM     13  C   UNL     1      47.212   4.288  15.516  0.00  0.00    +0.000 C 
BRANCH  13  14
ATOM     14  O   UNL     1      48.139   3.244  15.786  0.00  0.00    +0.000 OA
ATOM     15  H   UNL     1      47.838   2.462  15.287  0.00  0.00    +0.000 HD
ENDBRANCH  13  14
ENDBRANCH   1  13
BRANCH   1  16
ATOM     16  C   UNL     1      45.400   4.254  13.685  0.00  0.00    +0.000 C 
BRANCH  16  17
ATOM     17  N   UNL     1      45.117   3.142  12.770  0.00  0.00    +0.000 N 
ATOM     18  H   UNL     1      44.373   2.546  13.133  0.00  0.00    +0.000 HD
BRANCH  17  19
ATOM     19  C   UNL     1      44.777   3.516  11.448  0.00  0.00    +0.000 A 
ATOM     20  C   UNL     1      43.922   4.581  11.145  0.00  0.00    +0.000 A 
ATOM     21  C   UNL     1      43.661   4.942   9.825  0.00  0.00    +0.000 A 
ATOM     22  C   UNL     1      44.297   4.274   8.782  0.00  0.00    +0.000 A 
ATOM     23  C   UNL     1      45.232   3.258   9.033  0.00  0.00    +0.000 A 
ATOM     24  C   UNL     1      45.446   2.892  10.379  0.00  0.00    +0.000 A 
BRANCH  23  25
ATOM     25  C   UNL     1      46.025   2.654   7.937  0.00  0.00    +0.000 A 
ATOM     26  C   UNL     1      46.459   1.317   8.021  0.00  0.00    +0.000 A 
ATOM     27  C   UNL     1      47.140   0.701   6.968  0.00  0.00    +0.000 A 
ATOM     28  C   UNL     1      47.398   1.408   5.801  0.00  0.00    +0.000 A 
ATOM     29  C   UNL     1      46.995   2.736   5.694  0.00  0.00    +0.000 A 
ATOM     30  C   UNL     1      46.324   3.354   6.756  0.00  0.00    +0.000 A 
ENDBRANCH  23  25
ENDBRANCH  17  19
ENDBRANCH  16  17
ENDBRANCH   1  16
TORSDOF 8
ENDMDL
MODEL 7
REMARK VINA RESULT:    -7.185      2.750      4.845
REMARK INTER + INTRA:         -11.360
REMARK INTER:                  -9.996
REMARK INTRA:                  -1.364
REMARK UNBOUND:                -1.025
REMARK  Name = 
REMARK  8 active torsions:
REMARK  status: ('A' for Active; 'I' for Inactive)
REMARK    1  A    between atoms: C_2  and  C_4
REMARK    2  A    between atoms: C_7  and  C_8
REMARK    3  A    between atoms: C_8  and  C_9
REMARK    4  A    between atoms: C_8  and  C_11
REMARK    5  A    between atoms: C_9  and  O_10
REMARK    6  A    between atoms: C_11  and  N_12
REMARK    7  A    between atoms: N_12  and  C_13
REMARK    8  A    between atoms: C_17  and  C_18
REMARK                            x       y       z     vdW  Elec       q    Type
REMARK                         _______ _______ _______ _____ _____    ______ ____
ROOT
ATOM      1  C   UNL     1      44.307   5.090  11.809  0.00  0.00    +0.000 C 
ENDROOT
BRANCH   1   5
ATOM      2  C   UNL     1      45.938   3.352   8.164  0.00  0.00    +0.000 A 
ATOM      3  C   UNL     1      46.070   4.723   8.418  0.00  0.00    +0.000 A 
ATOM      4  C   UNL     1      45.534   5.276   9.587  0.00  0.00    +0.000 A 
ATOM      5  C   UNL     1      44.860   4.471  10.520  0.00  0.00    +0.000 A 
ATOM      6  C   UNL     1      44.697   3.105  10.223  0.00  0.00    +0.000 A 
ATOM      7  C   UNL     1      45.232   2.551   9.062  0.00  0.00    +0.000 A 
BRANCH   2   9
ATOM      8  N   UNL     1      46.987   1.430   7.105  0.00  0.00    +0.000 N 
ATOM      9  C   UNL     1      46.518   2.703   6.956  0.00  0.00    +0.000 C 
ATOM     10  O   UNL     1      46.525   3.260   5.866  0.00  0.00    +0.000 OA
ATOM     11  H   UNL     1      47.239   0.953   6.249  0.00  0.00    +0.000 HD
ATOM     12  H   UNL     1      46.749   0.859   7.903  0.00  0.00    +0.000 HD
ENDBRANCH   2   9
ENDBRANCH   1   5
BRANCH   1  13
ATOM     13  C   UNL     1      42.772   5.027  11.818  0.00  0.00    +0.000 C 
BRANCH  13  14
ATOM     14  O   UNL     1      42.180   6.307  11.628  0.00  0.00    +0.000 OA
ATOM     15  H   UNL     1      42.193   6.757  12.493  0.00  0.00    +0.000 HD
ENDBRANCH  13  14
ENDBRANCH   1  13
BRANCH   1  16
ATOM     16  C   UNL     1      44.953   4.451  13.060  0.00  0.00    +0.000 C 
BRANCH  16  17
ATOM     17  N   UNL     1      45.620   5.420  13.937  0.00  0.00    +0.000 N 
ATOM     18  H   UNL     1      46.180   4.951  14.648  0.00  0.00    +0.000 HD
BRANCH  17  19
ATOM     19  C   UNL     1      46.443   6.368  13.281  0.00  0.00    +0.000 A 
ATOM     20  C   UNL     1      47.719   6.069  12.792  0.00  0.00    +0.000 A 
ATOM     21  C   UNL     1      48.468   7.024  12.106  0.00  0.00    +0.000 A 
ATOM     22  C   UNL     1      47.928   8.280  11.850  0.00  0.00    +0.000 A 
ATOM     23  C   UNL     1      46.617   8.601  12.240  0.00  0.00    +0.000 A 
ATOM     24  C   UNL     1      45.900   7.625  12.964  0.00  0.00    +0.000 A 
BRANCH  23  25
ATOM     25  C   UNL     1      45.985   9.877  11.833  0.00  0.00    +0.000 A 
ATOM     26  C   UNL     1      44.584   9.978  11.723  0.00  0.00    +0.000 A 
ATOM     27  C   UNL     1      43.960  11.189  11.417  0.00  0.00    +0.000 A 
ATOM     28  C   UNL     1      44.722  12.333  11.220  0.00  0.00    +0.000 A 
ATOM     29  C   UNL     1      46.110  12.262  11.306  0.00  0.00    +0.000 A 
ATOM     30  C   UNL     1      46.734  11.043  11.600  0.00  0.00    +0.000 A 
ENDBRANCH  23  25
ENDBRANCH  17  19
ENDBRANCH  16  17
ENDBRANCH   1  16
TORSDOF 8
ENDMDL
MODEL 8
REMARK VINA RESULT:    -7.026      2.089      4.142
REMARK INTER + INTRA:         -11.132
REMARK INTER:                 -10.233
REMARK INTRA:                  -0.899
REMARK UNBOUND:                -1.025
REMARK  Name = 
REMARK  8 active torsions:
REMARK  status: ('A' for Active; 'I' for Inactive)
REMARK    1  A    between atoms: C_2  and  C_4
REMARK    2  A    between atoms: C_7  and  C_8
REMARK    3  A    between atoms: C_8  and  C_9
REMARK    4  A    between atoms: C_8  and  C_11
REMARK    5  A    between atoms: C_9  and  O_10
REMARK    6  A    between atoms: C_11  and  N_12
REMARK    7  A    between atoms: N_12  and  C_13
REMARK    8  A    between atoms: C_17  and  C_18
REMARK                            x       y       z     vdW  Elec       q    Type
REMARK                         _______ _______ _______ _____ _____    ______ ____
ROOT
ATOM      1  C   UNL     1      44.702   3.938   9.911  0.00  0.00    +0.000 C 
ENDROOT
BRANCH   1   5
ATOM      2  C   UNL     1      46.791   2.025   6.604  0.00  0.00    +0.000 A 
ATOM      3  C   UNL     1      46.407   1.282   7.727  0.00  0.00    +0.000 A 
ATOM      4  C   UNL     1      45.745   1.906   8.790  0.00  0.00    +0.000 A 
ATOM      5  C   UNL     1      45.455   3.279   8.750  0.00  0.00    +0.000 A 
ATOM      6  C   UNL     1      45.891   4.017   7.634  0.00  0.00    +0.000 A 
ATOM      7  C   UNL     1      46.548   3.398   6.573  0.00  0.00    +0.000 A 
BRANCH   2   9
ATOM      8  N   UNL     1      47.180   0.100   5.170  0.00  0.00    +0.000 N 
ATOM      9  C   UNL     1      47.466   1.409   5.429  0.00  0.00    +0.000 C 
ATOM     10  O   UNL     1      48.200   2.058   4.694  0.00  0.00    +0.000 OA
ATOM     11  H   UNL     1      47.528  -0.258   4.289  0.00  0.00    +0.000 HD
ATOM     12  H   UNL     1      46.387  -0.370   5.582  0.00  0.00    +0.000 HD
ENDBRANCH   2   9
ENDBRANCH   1   5
BRANCH   1  13
ATOM     13  C   UNL     1      44.595   2.970  11.100  0.00  0.00    +0.000 C 
BRANCH  13  14
ATOM     14  O   UNL     1      43.302   2.389  11.206  0.00  0.00    +0.000 OA
ATOM     15  H   UNL     1      43.192   1.800  10.436  0.00  0.00    +0.000 HD
ENDBRANCH  13  14
ENDBRANCH   1  13
BRANCH   1  16
ATOM     16  C   UNL     1      45.329   5.301  10.286  0.00  0.00    +0.000 C 
BRANCH  16  17
ATOM     17  N   UNL     1      45.043   5.722  11.662  0.00  0.00    +0.000 N 
ATOM     18  H   UNL     1      44.543   4.994  12.174  0.00  0.00    +0.000 HD
BRANCH  17  19
ATOM     19  C   UNL     1      46.171   6.104  12.428  0.00  0.00    +0.000 A 
ATOM     20  C   UNL     1      46.583   5.428  13.581  0.00  0.00    +0.000 A 
ATOM     21  C   UNL     1      47.732   5.813  14.269  0.00  0.00    +0.000 A 
ATOM     22  C   UNL     1      48.521   6.850  13.781  0.00  0.00    +0.000 A 
ATOM     23  C   UNL     1      48.202   7.502  12.579  0.00  0.00    +0.000 A 
ATOM     24  C   UNL     1      47.013   7.113  11.928  0.00  0.00    +0.000 A 
BRANCH  23  25
ATOM     25  C   UNL     1      49.120   8.496  11.977  0.00  0.00    +0.000 A 
ATOM     26  C   UNL     1      50.409   8.117  11.556  0.00  0.00    +0.000 A 
ATOM     27  C   UNL     1      51.265   9.016  10.915  0.00  0.00    +0.000 A 
ATOM     28  C   UNL     1      50.847  10.318  10.673  0.00  0.00    +0.000 A 
ATOM     29  C   UNL     1      49.585  10.728  11.092  0.00  0.00    +0.000 A 
ATOM     30  C   UNL     1      48.734   9.828  11.746  0.00  0.00    +0.000 A 
ENDBRANCH  23  25
ENDBRANCH  17  19
ENDBRANCH  16  17
ENDBRANCH   1  16
TORSDOF 8
ENDMDL
MODEL 9
REMARK VINA RESULT:    -6.989      3.740      6.260
REMARK INTER + INTRA:         -11.078
REMARK INTER:                  -9.765
REMARK INTRA:                  -1.313
REMARK UNBOUND:                -1.025
REMARK  Name = 
REMARK  8 active torsions:
REMARK  status: ('A' for Active; 'I' for Inactive)
REMARK    1  A    between atoms: C_2  and  C_4
REMARK    2  A    between atoms: C_7  and  C_8
REMARK    3  A    between atoms: C_8  and  C_9
REMARK    4  A    between atoms: C_8  and  C_11
REMARK    5  A    between atoms: C_9  and  O_10
REMARK    6  A    between atoms: C_11  and  N_12
REMARK    7  A    between atoms: N_12  and  C_13
REMARK    8  A    between atoms: C_17  and  C_18
REMARK                            x       y       z     vdW  Elec       q    Type
REMARK                         _______ _______ _______ _____ _____    ______ ____
ROOT
ATOM      1  C   UNL     1      48.237   7.363  13.778  0.00  0.00    +0.000 C 
ENDROOT
BRANCH   1   5
ATOM      2  C   UNL     1      44.921   4.773  12.655  0.00  0.00    +0.000 A 
ATOM      3  C   UNL     1      46.161   4.227  13.007  0.00  0.00    +0.000 A 
ATOM      4  C   UNL     1      47.225   5.066  13.357  0.00  0.00    +0.000 A 
ATOM      5  C   UNL     1      47.069   6.461  13.361  0.00  0.00    +0.000 A 
ATOM      6  C   UNL     1      45.829   6.992  12.959  0.00  0.00    +0.000 A 
ATOM      7  C   UNL     1      44.767   6.159  12.614  0.00  0.00    +0.000 A 
BRANCH   2   9
ATOM      8  N   UNL     1      43.828   2.601  12.606  0.00  0.00    +0.000 N 
ATOM      9  C   UNL     1      43.744   3.930  12.309  0.00  0.00    +0.000 C 
ATOM     10  O   UNL     1      42.724   4.411  11.831  0.00  0.00    +0.000 OA
ATOM     11  H   UNL     1      42.971   2.073  12.502  0.00  0.00    +0.000 HD
ATOM     12  H   UNL     1      44.527   2.234  13.236  0.00  0.00    +0.000 HD
ENDBRANCH   2   9
ENDBRANCH   1   5
BRANCH   1  13
ATOM     13  C   UNL     1      47.755   8.808  13.975  0.00  0.00    +0.000 C 
BRANCH  13  14
ATOM     14  O   UNL     1      47.398   9.077  15.325  0.00  0.00    +0.000 OA
ATOM     15  H   UNL     1      47.523  10.033  15.467  0.00  0.00    +0.000 HD
ENDBRANCH  13  14
ENDBRANCH   1  13
BRANCH   1  16
ATOM     16  C   UNL     1      48.976   6.790  15.009  0.00  0.00    +0.000 C 
BRANCH  16  17
ATOM     17  N   UNL     1      48.099   6.545  16.160  0.00  0.00    +0.000 N 
ATOM     18  H   UNL     1      47.121   6.716  15.922  0.00  0.00    +0.000 HD
BRANCH  17  19
ATOM     19  C   UNL     1      48.193   5.253  16.731  0.00  0.00    +0.000 A 
ATOM     20  C   UNL     1      47.093   4.407  16.908  0.00  0.00    +0.000 A 
ATOM     21  C   UNL     1      47.248   3.123  17.427  0.00  0.00    +0.000 A 
ATOM     22  C   UNL     1      48.518   2.643  17.728  0.00  0.00    +0.000 A 
ATOM     23  C   UNL     1      49.664   3.417  17.485  0.00  0.00    +0.000 A 
ATOM     24  C   UNL     1      49.470   4.725  16.994  0.00  0.00    +0.000 A 
BRANCH  23  25
ATOM     25  C   UNL     1      51.023   2.854  17.657  0.00  0.00    +0.000 A 
ATOM     26  C   UNL     1      51.277   1.498  17.371  0.00  0.00    +0.000 A 
ATOM     27  C   UNL     1      52.564   0.961  17.450  0.00  0.00    +0.000 A 
ATOM     28  C   UNL     1      53.633   1.772  17.810  0.00  0.00    +0.000 A 
ATOM     29  C   UNL     1      53.412   3.112  18.114  0.00  0.00    +0.000 A 
ATOM     30  C   UNL     1      52.118   3.644  18.047  0.00  0.00    +0.000 A 
ENDBRANCH  23  25
ENDBRANCH  17  19
ENDBRANCH  16  17
ENDBRANCH   1  16
TORSDOF 8
ENDMDL
