MODEL 1
REMARK VINA RESULT:    -6.010      0.000      0.000
REMARK INTER + INTRA:          -9.248
REMARK INTER:                  -8.118
REMARK INTRA:                  -1.130
REMARK UNBOUND:                -1.130
REMARK  Name = 
REMARK  8 active torsions:
REMARK  status: ('A' for Active; 'I' for Inactive)
REMARK    1  A    between atoms: C_1  and  O_2
REMARK    2  A    between atoms: O_2  and  C_3
REMARK    3  A    between atoms: C_5  and  C_6
REMARK    4  A    between atoms: C_9  and  O_10
REMARK    5  A    between atoms: O_10  and  C_11
REMARK    6  A    between atoms: C_12  and  C_13
REMARK    7  A    between atoms: C_14  and  C_15
REMARK    8  A    between atoms: C_19  and  C_20
REMARK                            x       y       z     vdW  Elec       q    Type
REMARK                         _______ _______ _______ _____ _____    ______ ____
ROOT
ATOM      1  C   UNL     1      49.247   7.478  14.624  0.00  0.00    +0.000 C 
ATOM      2  C   UNL     1      48.856   7.626  13.240  0.00  0.00    +0.000 C 
ATOM      3  C   UNL     1      49.734   7.236  12.075  0.00  0.00    +0.000 C 
ATOM      4  C   UNL     1      49.625   8.677  12.465  0.00  0.00    +0.000 C 
ENDROOT
BRANCH   1  10
ATOM      5  C   UNL     1      48.467   6.045  16.461  0.00  0.00    +0.000 A 
ATOM      6  C   UNL     1      48.290   5.832  17.830  0.00  0.00    +0.000 A 
ATOM      7  C   UNL     1      48.488   6.883  18.734  0.00  0.00    +0.000 A 
ATOM      8  C   UNL     1      48.869   8.149  18.274  0.00  0.00    +0.000 A 
ATOM      9  C   UNL     1      49.051   8.380  16.907  0.00  0.00    +0.000 A 
ATOM     10  C   UNL     1      48.821   7.333  15.994  0.00  0.00    +0.000 A 
BRANCH   5  12
ATOM     11  C   UNL     1      47.263   4.285  15.349  0.00  0.00    +0.000 C 
ATOM     12  O   UNL     1      48.454   5.037  15.526  0.00  0.00    +0.000 OA
ENDBRANCH   5  12
BRANCH   7  13
ATOM     13  C   UNL     1      48.353   6.649  20.141  0.00  0.00    +0.000 C 
ATOM     14  N   UNL     1      48.247   6.470  21.286  0.00  0.00    +0.000 NA
ENDBRANCH   7  13
BRANCH   9  15
ATOM     15  O   UNL     1      49.505   9.560  16.376  0.00  0.00    +0.000 OA
ATOM     16  C   UNL     1      48.860  10.762  16.770  0.00  0.00    +0.000 C 
ENDBRANCH   9  15
ENDBRANCH   1  10
BRANCH   2  17
ATOM     17  C   UNL     1      47.352   7.382  13.082  0.00  0.00    +0.000 A 
ATOM     18  N   UNL     1      46.538   8.439  13.341  0.00  0.00    +0.000 NA
ATOM     19  C   UNL     1      45.396   8.539  12.640  0.00  0.00    +0.000 A 
ATOM     20  C   UNL     1      44.975   7.594  11.724  0.00  0.00    +0.000 A 
ATOM     21  C   UNL     1      45.737   6.436  11.536  0.00  0.00    +0.000 A 
ATOM     22  C   UNL     1      46.931   6.331  12.263  0.00  0.00    +0.000 A 
BRANCH  21  23
ATOM     23  C   UNL     1      45.371   5.416  10.544  0.00  0.00    +0.000 A 
ATOM     24  C   UNL     1      45.847   5.405   9.242  0.00  0.00    +0.000 A 
ATOM     25  N   UNL     1      45.540   4.472   8.315  0.00  0.00    +0.000 NA
ATOM     26  C   UNL     1      44.716   3.498   8.725  0.00  0.00    +0.000 A 
ATOM     27  N   UNL     1      44.187   3.383   9.948  0.00  0.00    +0.000 NA
ATOM     28  C   UNL     1      44.536   4.346  10.829  0.00  0.00    +0.000 A 
ENDBRANCH  21  23
ENDBRANCH   2  17
TORSDOF 6
ENDMDL
MODEL 2
REMARK VINA RESULT:    -6.009      0.979      2.681
REMARK INTER + INTRA:          -9.247
REMARK INTER:                  -8.049
REMARK INTRA:                  -1.198
REMARK UNBOUND:                -1.130
REMARK  Name = 
REMARK  8 active torsions:
REMARK  status: ('A' for Active; 'I' for Inactive)
REMARK    1  A    between atoms: C_1  and  O_2
REMARK    2  A    between atoms: O_2  and  C_3
REMARK    3  A    between atoms: C_5  and  C_6
REMARK    4  A    between atoms: C_9  and  O_10
REMARK    5  A    between atoms: O_10  and  C_11
REMARK    6  A    between atoms: C_12  and  C_13
REMARK    7  A    between atoms: C_14  and  C_15
REMARK    8  A    between atoms: C_19  and  C_20
REMARK                            x       y       z     vdW  Elec       q    Type
REMARK                         _______ _______ _______ _____ _____    ______ ____
ROOT
ATOM      1  C   UNL     1      49.474   7.214  14.831  0.00  0.00    +0.000 C 
ATOM      2  C   UNL     1      48.926   7.480  13.520  0.00  0.00    +0.000 C 
ATOM      3  C   UNL     1      49.547   6.983  12.235  0.00  0.00    +0.000 C 
ATOM      4  C   UNL     1      49.754   8.406  12.653  0.00  0.00    +0.000 C 
ENDROOT
BRANCH   1  10
ATOM      5  C   UNL     1      49.295   8.263  17.046  0.00  0.00    +0.000 A 
ATOM      6  C   UNL     1      48.824   8.228  18.360  0.00  0.00    +0.000 A 
ATOM      7  C   UNL     1      48.265   7.051  18.873  0.00  0.00    +0.000 A 
ATOM      8  C   UNL     1      48.168   5.907  18.072  0.00  0.00    +0.000 A 
ATOM      9  C   UNL     1      48.634   5.924  16.753  0.00  0.00    +0.000 A 
ATOM     10  C   UNL     1      49.226   7.097  16.247  0.00  0.00    +0.000 A 
BRANCH   5  12
ATOM     11  C   UNL     1      48.812  10.516  16.358  0.00  0.00    +0.000 C 
ATOM     12  O   UNL     1      49.705   9.414  16.414  0.00  0.00    +0.000 OA
ENDBRANCH   5  12
BRANCH   7  13
ATOM     13  C   UNL     1      47.739   7.032  20.205  0.00  0.00    +0.000 C 
ATOM     14  N   UNL     1      47.315   7.026  21.289  0.00  0.00    +0.000 NA
ENDBRANCH   7  13
BRANCH   9  15
ATOM     15  O   UNL     1      48.502   4.881  15.873  0.00  0.00    +0.000 OA
ATOM     16  C   UNL     1      47.402   3.999  16.042  0.00  0.00    +0.000 C 
ENDBRANCH   9  15
ENDBRANCH   1  10
BRANCH   2  17
ATOM     17  C   UNL     1      47.395   7.510  13.579  0.00  0.00    +0.000 A 
ATOM     18  N   UNL     1      46.810   8.730  13.447  0.00  0.00    +0.000 NA
ATOM     19  C   UNL     1      45.609   8.790  12.846  0.00  0.00    +0.000 A 
ATOM     20  C   UNL     1      44.911   7.676  12.418  0.00  0.00    +0.000 A 
ATOM     21  C   UNL     1      45.439   6.404  12.660  0.00  0.00    +0.000 A 
ATOM     22  C   UNL     1      46.694   6.339  13.283  0.00  0.00    +0.000 A 
BRANCH  21  23
ATOM     23  C   UNL     1      44.772   5.182  12.190  0.00  0.00    +0.000 A 
ATOM     24  C   UNL     1      44.637   4.846  10.852  0.00  0.00    +0.000 A 
ATOM     25  N   UNL     1      44.042   3.724  10.393  0.00  0.00    +0.000 NA
ATOM     26  C   UNL     1      43.565   2.895  11.332  0.00  0.00    +0.000 A 
ATOM     27  N   UNL     1      43.629   3.092  12.654  0.00  0.00    +0.000 NA
ATOM     28  C   UNL     1      44.239   4.231  13.048  0.00  0.00    +0.000 A 
ENDBRANCH  21  23
ENDBRANCH   2  17
TORSDOF 6
ENDMDL
MODEL 3
REMARK VINA RESULT:    -5.453      2.828      4.504
REMARK INTER + INTRA:          -8.496
REMARK INTER:                  -6.992
REMARK INTRA:                  -1.505
REMARK UNBOUND:                -1.130
REMARK  Name = 
REMARK  8 active torsions:
REMARK  status: ('A' for Active; 'I' for Inactive)
REMARK    1  A    between atoms: C_1  and  O_2
REMARK    2  A    between atoms: O_2  and  C_3
REMARK    3  A    between atoms: C_5  and  C_6
REMARK    4  A    between atoms: C_9  and  O_10
REMARK    5  A    between atoms: O_10  and  C_11
REMARK    6  A    between atoms: C_12  and  C_13
REMARK    7  A    between atoms: C_14  and  C_15
REMARK    8  A    between atoms: C_19  and  C_20
REMARK                            x       y       z     vdW  Elec       q    Type
REMARK                         _______ _______ _______ _____ _____    ______ ____
ROOT
ATOM      1  C   UNL     1      49.622   7.433  17.519  0.00  0.00    +0.000 C 
ATOM      2  C   UNL     1      49.091   8.649  16.944  0.00  0.00    +0.000 C 
ATOM      3  C   UNL     1      49.371  10.028  17.493  0.00  0.00    +0.000 C 
ATOM      4  C   UNL     1      48.063   9.367  17.795  0.00  0.00    +0.000 C 
ENDROOT
BRANCH   1  10
ATOM      5  C   UNL     1      51.360   5.709  17.310  0.00  0.00    +0.000 A 
ATOM      6  C   UNL     1      51.733   4.363  17.358  0.00  0.00    +0.000 A 
ATOM      7  C   UNL     1      50.752   3.366  17.431  0.00  0.00    +0.000 A 
ATOM      8  C   UNL     1      49.395   3.710  17.463  0.00  0.00    +0.000 A 
ATOM      9  C   UNL     1      49.003   5.052  17.417  0.00  0.00    +0.000 A 
ATOM     10  C   UNL     1      49.987   6.054  17.311  0.00  0.00    +0.000 A 
BRANCH   5  12
ATOM     11  C   UNL     1      53.074   7.045  16.282  0.00  0.00    +0.000 C 
ATOM     12  O   UNL     1      52.252   6.750  17.402  0.00  0.00    +0.000 OA
ENDBRANCH   5  12
BRANCH   7  13
ATOM     13  C   UNL     1      51.139   1.990  17.529  0.00  0.00    +0.000 C 
ATOM     14  N   UNL     1      51.458   0.875  17.618  0.00  0.00    +0.000 NA
ENDBRANCH   7  13
BRANCH   9  15
ATOM     15  O   UNL     1      47.707   5.483  17.530  0.00  0.00    +0.000 OA
ATOM     16  C   UNL     1      47.080   5.391  18.801  0.00  0.00    +0.000 C 
ENDBRANCH   9  15
ENDBRANCH   1  10
BRANCH   2  17
ATOM     17  C   UNL     1      48.996   8.521  15.420  0.00  0.00    +0.000 A 
ATOM     18  N   UNL     1      50.129   8.791  14.720  0.00  0.00    +0.000 NA
ATOM     19  C   UNL     1      50.340   8.111  13.580  0.00  0.00    +0.000 A 
ATOM     20  C   UNL     1      49.439   7.206  13.050  0.00  0.00    +0.000 A 
ATOM     21  C   UNL     1      48.212   7.009  13.690  0.00  0.00    +0.000 A 
ATOM     22  C   UNL     1      47.991   7.714  14.882  0.00  0.00    +0.000 A 
BRANCH  21  23
ATOM     23  C   UNL     1      47.230   6.029  13.205  0.00  0.00    +0.000 A 
ATOM     24  C   UNL     1      46.879   4.885  13.905  0.00  0.00    +0.000 A 
ATOM     25  N   UNL     1      45.970   3.975  13.492  0.00  0.00    +0.000 NA
ATOM     26  C   UNL     1      45.381   4.237  12.316  0.00  0.00    +0.000 A 
ATOM     27  N   UNL     1      45.621   5.301  11.541  0.00  0.00    +0.000 NA
ATOM     28  C   UNL     1      46.538   6.173  12.012  0.00  0.00    +0.000 A 
ENDBRANCH  21  23
ENDBRANCH   2  17
TORSDOF 6
ENDMDL
MODEL 4
REMARK VINA RESULT:    -5.324      2.829      4.543
REMARK INTER + INTRA:          -8.322
REMARK INTER:                  -6.410
REMARK INTRA:                  -1.913
REMARK UNBOUND:                -1.130
REMARK  Name = 
REMARK  8 active torsions:
REMARK  status: ('A' for Active; 'I' for Inactive)
REMARK    1  A    between atoms: C_1  and  O_2
REMARK    2  A    between atoms: O_2  and  C_3
REMARK    3  A    between atoms: C_5  and  C_6
REMARK    4  A    between atoms: C_9  and  O_10
REMARK    5  A    between atoms: O_10  and  C_11
REMARK    6  A    between atoms: C_12  and  C_13
REMARK    7  A    between atoms: C_14  and  C_15
REMARK    8  A    between atoms: C_19  and  C_20
REMARK                            x       y       z     vdW  Elec       q    Type
REMARK                         _______ _______ _______ _____ _____    ______ ____
ROOT
ATOM      1  C   UNL     1      49.757   7.998  18.161  0.00  0.00    +0.000 C 
ATOM      2  C   UNL     1      49.343   9.176  17.432  0.00  0.00    +0.000 C 
ATOM      3  C   UNL     1      49.702  10.585  17.843  0.00  0.00    +0.000 C 
ATOM      4  C   UNL     1      48.336  10.054  18.147  0.00  0.00    +0.000 C 
ENDROOT
BRANCH   1  10
ATOM      5  C   UNL     1      48.946   5.682  18.281  0.00  0.00    +0.000 A 
ATOM      6  C   UNL     1      49.132   4.325  18.005  0.00  0.00    +0.000 A 
ATOM      7  C   UNL     1      50.374   3.867  17.551  0.00  0.00    +0.000 A 
ATOM      8  C   UNL     1      51.434   4.763  17.364  0.00  0.00    +0.000 A 
ATOM      9  C   UNL     1      51.266   6.125  17.634  0.00  0.00    +0.000 A 
ATOM     10  C   UNL     1      50.027   6.582  18.122  0.00  0.00    +0.000 A 
BRANCH   5  12
ATOM     11  C   UNL     1      47.209   6.108  19.889  0.00  0.00    +0.000 C 
ATOM     12  O   UNL     1      47.723   6.239  18.571  0.00  0.00    +0.000 OA
ENDBRANCH   5  12
BRANCH   7  13
ATOM     13  C   UNL     1      50.548   2.483  17.223  0.00  0.00    +0.000 C 
ATOM     14  N   UNL     1      50.698   1.361  16.950  0.00  0.00    +0.000 NA
ENDBRANCH   7  13
BRANCH   9  15
ATOM     15  O   UNL     1      52.217   7.083  17.399  0.00  0.00    +0.000 OA
ATOM     16  C   UNL     1      53.234   6.796  16.450  0.00  0.00    +0.000 C 
ENDBRANCH   9  15
ENDBRANCH   1  10
BRANCH   2  17
ATOM     17  C   UNL     1      49.304   8.886  15.928  0.00  0.00    +0.000 A 
ATOM     18  N   UNL     1      50.462   9.087  15.244  0.00  0.00    +0.000 NA
ATOM     19  C   UNL     1      50.716   8.292  14.192  0.00  0.00    +0.000 A 
ATOM     20  C   UNL     1      49.837   7.330  13.729  0.00  0.00    +0.000 A 
ATOM     21  C   UNL     1      48.588   7.194  14.342  0.00  0.00    +0.000 A 
ATOM     22  C   UNL     1      48.321   8.020  15.443  0.00  0.00    +0.000 A 
BRANCH  21  23
ATOM     23  C   UNL     1      47.627   6.161  13.929  0.00  0.00    +0.000 A 
ATOM     24  C   UNL     1      46.934   6.193  12.729  0.00  0.00    +0.000 A 
ATOM     25  N   UNL     1      46.058   5.251  12.318  0.00  0.00    +0.000 NA
ATOM     26  C   UNL     1      45.877   4.222  13.158  0.00  0.00    +0.000 A 
ATOM     27  N   UNL     1      46.480   4.063  14.341  0.00  0.00    +0.000 NA
ATOM     28  C   UNL     1      47.346   5.038  14.692  0.00  0.00    +0.000 A 
ENDBRANCH  21  23
ENDBRANCH   2  17
TORSDOF 6
ENDMDL
MODEL 5
REMARK VINA RESULT:    -5.259      3.101      6.423
REMARK INTER + INTRA:          -8.234
REMARK INTER:                  -7.436
REMARK INTRA:                  -0.798
REMARK UNBOUND:                -1.130
REMARK  Name = 
REMARK  8 active torsions:
REMARK  status: ('A' for Active; 'I' for Inactive)
REMARK    1  A    between atoms: C_1  and  O_2
REMARK    2  A    between atoms: O_2  and  C_3
REMARK    3  A    between atoms: C_5  and  C_6
REMARK    4  A    between atoms: C_9  and  O_10
REMARK    5  A    between atoms: O_10  and  C_11
REMARK    6  A    between atoms: C_12  and  C_13
REMARK    7  A    between atoms: C_14  and  C_15
REMARK    8  A    between atoms: C_19  and  C_20
REMARK                            x       y       z     vdW  Elec       q    Type
REMARK                         _______ _______ _______ _____ _____    ______ ____
ROOT
ATOM      1  C   UNL     1      47.517   6.691  14.255  0.00  0.00    +0.000 C 
ATOM      2  C   UNL     1      48.406   7.831  14.249  0.00  0.00    +0.000 C 
ATOM      3  C   UNL     1      49.433   8.100  15.323  0.00  0.00    +0.000 C 
ATOM      4  C   UNL     1      48.142   8.858  15.332  0.00  0.00    +0.000 C 
ENDROOT
BRANCH   1  10
ATOM      5  C   UNL     1      46.839   4.398  13.689  0.00  0.00    +0.000 A 
ATOM      6  C   UNL     1      45.898   3.521  13.146  0.00  0.00    +0.000 A 
ATOM      7  C   UNL     1      44.807   4.021  12.425  0.00  0.00    +0.000 A 
ATOM      8  C   UNL     1      44.649   5.401  12.249  0.00  0.00    +0.000 A 
ATOM      9  C   UNL     1      45.581   6.295  12.787  0.00  0.00    +0.000 A 
ATOM     10  C   UNL     1      46.695   5.792  13.484  0.00  0.00    +0.000 A 
BRANCH   5  12
ATOM     11  C   UNL     1      47.498   3.597  15.859  0.00  0.00    +0.000 C 
ATOM     12  O   UNL     1      47.843   4.006  14.543  0.00  0.00    +0.000 OA
ENDBRANCH   5  12
BRANCH   7  13
ATOM     13  C   UNL     1      43.818   3.122  11.910  0.00  0.00    +0.000 C 
ATOM     14  N   UNL     1      43.010   2.399  11.486  0.00  0.00    +0.000 NA
ENDBRANCH   7  13
BRANCH   9  15
ATOM     15  O   UNL     1      45.460   7.660  12.738  0.00  0.00    +0.000 OA
ATOM     16  C   UNL     1      44.878   8.238  11.579  0.00  0.00    +0.000 C 
ENDBRANCH   9  15
ENDBRANCH   1  10
BRANCH   2  17
ATOM     17  C   UNL     1      48.801   8.191  12.813  0.00  0.00    +0.000 A 
ATOM     18  N   UNL     1      48.290   9.349  12.318  0.00  0.00    +0.000 NA
ATOM     19  C   UNL     1      49.036  10.041  11.440  0.00  0.00    +0.000 A 
ATOM     20  C   UNL     1      50.259   9.605  10.964  0.00  0.00    +0.000 A 
ATOM     21  C   UNL     1      50.743   8.356  11.365  0.00  0.00    +0.000 A 
ATOM     22  C   UNL     1      49.968   7.634  12.284  0.00  0.00    +0.000 A 
BRANCH  21  23
ATOM     23  C   UNL     1      52.055   7.854  10.934  0.00  0.00    +0.000 A 
ATOM     24  C   UNL     1      52.243   7.062   9.811  0.00  0.00    +0.000 A 
ATOM     25  N   UNL     1      53.438   6.601   9.383  0.00  0.00    +0.000 NA
ATOM     26  C   UNL     1      54.497   6.962  10.122  0.00  0.00    +0.000 A 
ATOM     27  N   UNL     1      54.461   7.723  11.222  0.00  0.00    +0.000 NA
ATOM     28  C   UNL     1      53.237   8.154  11.595  0.00  0.00    +0.000 A 
ENDBRANCH  21  23
ENDBRANCH   2  17
TORSDOF 6
ENDMDL
MODEL 6
REMARK VINA RESULT:    -4.849      3.221      5.502
REMARK INTER + INTRA:          -7.680
REMARK INTER:                  -7.453
REMARK INTRA:                  -0.228
REMARK UNBOUND:                -1.130
REMARK  Name = 
REMARK  8 active torsions:
REMARK  status: ('A' for Active; 'I' for Inactive)
REMARK    1  A    between atoms: C_1  and  O_2
REMARK    2  A    between atoms: O_2  and  C_3
REMARK    3  A    between atoms: C_5  and  C_6
REMARK    4  A    between atoms: C_9  and  O_10
REMARK    5  A    between atoms: O_10  and  C_11
REMARK    6  A    between atoms: C_12  and  C_13
REMARK    7  A    between atoms: C_14  and  C_15
REMARK    8  A    between atoms: C_19  and  C_20
REMARK                            x       y       z     vdW  Elec       q    Type
REMARK                         _______ _______ _______ _____ _____    ______ ____
ROOT
ATOM      1  C   UNL     1      44.816   6.551  12.400  0.00  0.00    +0.000 C 
ATOM      2  C   UNL     1      43.746   5.634  12.079  0.00  0.00    +0.000 C 
ATOM      3  C   UNL     1      42.464   6.048  11.396  0.00  0.00    +0.000 C 
ATOM      4  C   UNL     1      42.472   5.828  12.876  0.00  0.00    +0.000 C 
ENDROOT
BRANCH   1  10
ATOM      5  C   UNL     1      46.821   7.972  12.364  0.00  0.00    +0.000 A 
ATOM      6  C   UNL     1      48.106   8.253  12.835  0.00  0.00    +0.000 A 
ATOM      7  C   UNL     1      48.784   7.316  13.624  0.00  0.00    +0.000 A 
ATOM      8  C   UNL     1      48.178   6.097  13.951  0.00  0.00    +0.000 A 
ATOM      9  C   UNL     1      46.892   5.798  13.489  0.00  0.00    +0.000 A 
ATOM     10  C   UNL     1      46.222   6.726  12.669  0.00  0.00    +0.000 A 
BRANCH   5  12
ATOM     11  C   UNL     1      46.361  10.270  11.824  0.00  0.00    +0.000 C 
ATOM     12  O   UNL     1      46.025   8.893  11.726  0.00  0.00    +0.000 OA
ENDBRANCH   5  12
BRANCH   7  13
ATOM     13  C   UNL     1      50.082   7.627  14.145  0.00  0.00    +0.000 C 
ATOM     14  N   UNL     1      51.133   7.890  14.570  0.00  0.00    +0.000 NA
ENDBRANCH   7  13
BRANCH   9  15
ATOM     15  O   UNL     1      46.191   4.670  13.829  0.00  0.00    +0.000 OA
ATOM     16  C   UNL     1      46.920   3.473  14.058  0.00  0.00    +0.000 C 
ENDBRANCH   9  15
ENDBRANCH   1  10
BRANCH   2  17
ATOM     17  C   UNL     1      44.315   4.262  11.703  0.00  0.00    +0.000 A 
ATOM     18  N   UNL     1      43.652   3.180  12.190  0.00  0.00    +0.000 NA
ATOM     19  C   UNL     1      43.637   2.063  11.442  0.00  0.00    +0.000 A 
ATOM     20  C   UNL     1      44.312   1.936  10.243  0.00  0.00    +0.000 A 
ATOM     21  C   UNL     1      45.103   2.996   9.788  0.00  0.00    +0.000 A 
ATOM     22  C   UNL     1      45.117   4.163  10.564  0.00  0.00    +0.000 A 
BRANCH  21  23
ATOM     23  C   UNL     1      45.808   2.943   8.500  0.00  0.00    +0.000 A 
ATOM     24  C   UNL     1      46.332   1.779   7.958  0.00  0.00    +0.000 A 
ATOM     25  N   UNL     1      46.971   1.698   6.771  0.00  0.00    +0.000 NA
ATOM     26  C   UNL     1      47.081   2.849   6.093  0.00  0.00    +0.000 A 
ATOM     27  N   UNL     1      46.621   4.040   6.493  0.00  0.00    +0.000 NA
ATOM     28  C   UNL     1      45.989   4.052   7.687  0.00  0.00    +0.000 A 
ENDBRANCH  21  23
ENDBRANCH   2  17
TORSDOF 6
ENDMDL
MODEL 7
REMARK VINA RESULT:    -4.790      2.426      7.336
REMARK INTER + INTRA:          -7.601
REMARK INTER:                  -6.288
REMARK INTRA:                  -1.313
REMARK UNBOUND:                -1.130
REMARK  Name = 
REMARK  8 active torsions:
REMARK  status: ('A' for Active; 'I' for Inactive)
REMARK    1  A    between atoms: C_1  and  O_2
REMARK    2  A    between atoms: O_2  and  C_3
REMARK    3  A    between atoms: C_5  and  C_6
REMARK    4  A    between atoms: C_9  and  O_10
REMARK    5  A    between atoms: O_10  and  C_11
REMARK    6  A    between atoms: C_12  and  C_13
REMARK    7  A    between atoms: C_14  and  C_15
REMARK    8  A    between atoms: C_19  and  C_20
REMARK                            x       y       z     vdW  Elec       q    Type
REMARK                         _______ _______ _______ _____ _____    ______ ____
ROOT
ATOM      1  C   UNL     1      49.775   7.284  14.583  0.00  0.00    +0.000 C 
ATOM      2  C   UNL     1      50.674   8.007  15.454  0.00  0.00    +0.000 C 
ATOM      3  C   UNL     1      51.837   8.835  14.959  0.00  0.00    +0.000 C 
ATOM      4  C   UNL     1      52.089   7.466  15.509  0.00  0.00    +0.000 C 
ENDROOT
BRANCH   1  10
ATOM      5  C   UNL     1      47.685   7.114  13.302  0.00  0.00    +0.000 A 
ATOM      6  C   UNL     1      46.534   6.398  12.966  0.00  0.00    +0.000 A 
ATOM      7  C   UNL     1      46.173   5.265  13.705  0.00  0.00    +0.000 A 
ATOM      8  C   UNL     1      46.965   4.839  14.778  0.00  0.00    +0.000 A 
ATOM      9  C   UNL     1      48.122   5.542  15.128  0.00  0.00    +0.000 A 
ATOM     10  C   UNL     1      48.468   6.701  14.406  0.00  0.00    +0.000 A 
BRANCH   5  12
ATOM     11  C   UNL     1      47.464   9.345  12.430  0.00  0.00    +0.000 C 
ATOM     12  O   UNL     1      48.199   8.134  12.535  0.00  0.00    +0.000 OA
ENDBRANCH   5  12
BRANCH   7  13
ATOM     13  C   UNL     1      45.018   4.505  13.328  0.00  0.00    +0.000 C 
ATOM     14  N   UNL     1      44.074   3.893  13.030  0.00  0.00    +0.000 NA
ENDBRANCH   7  13
BRANCH   9  15
ATOM     15  O   UNL     1      49.000   5.150  16.104  0.00  0.00    +0.000 OA
ATOM     16  C   UNL     1      48.565   4.175  17.041  0.00  0.00    +0.000 C 
ENDBRANCH   9  15
ENDBRANCH   1  10
BRANCH   2  17
ATOM     17  C   UNL     1      49.919   8.541  16.675  0.00  0.00    +0.000 A 
ATOM     18  N   UNL     1      48.977   9.492  16.434  0.00  0.00    +0.000 NA
ATOM     19  C   UNL     1      47.894   9.520  17.229  0.00  0.00    +0.000 A 
ATOM     20  C   UNL     1      47.720   8.682  18.315  0.00  0.00    +0.000 A 
ATOM     21  C   UNL     1      48.735   7.782  18.654  0.00  0.00    +0.000 A 
ATOM     22  C   UNL     1      49.864   7.748  17.824  0.00  0.00    +0.000 A 
BRANCH  21  23
ATOM     23  C   UNL     1      48.593   6.832  19.766  0.00  0.00    +0.000 A 
ATOM     24  C   UNL     1      49.602   5.975  20.177  0.00  0.00    +0.000 A 
ATOM     25  N   UNL     1      49.505   5.103  21.204  0.00  0.00    +0.000 NA
ATOM     26  C   UNL     1      48.333   5.102  21.854  0.00  0.00    +0.000 A 
ATOM     27  N   UNL     1      47.279   5.876  21.569  0.00  0.00    +0.000 NA
ATOM     28  C   UNL     1      47.442   6.727  20.533  0.00  0.00    +0.000 A 
ENDBRANCH  21  23
ENDBRANCH   2  17
TORSDOF 6
ENDMDL
MODEL 8
REMARK VINA RESULT:    -4.779      2.577      7.951
REMARK INTER + INTRA:          -7.586
REMARK INTER:                  -6.599
REMARK INTRA:                  -0.986
REMARK UNBOUND:                -1.130
REMARK  Name = 
REMARK  8 active torsions:
REMARK  status: ('A' for Active; 'I' for Inactive)
REMARK    1  A    between atoms: C_1  and  O_2
REMARK    2  A    between atoms: O_2  and  C_3
REMARK    3  A    between atoms: C_5  and  C_6
REMARK    4  A    between atoms: C_9  and  O_10
REMARK    5  A    between atoms: O_10  and  C_11
REMARK    6  A    between atoms: C_12  and  C_13
REMARK    7  A    between atoms: C_14  and  C_15
REMARK    8  A    between atoms: C_19  and  C_20
REMARK                            x       y       z     vdW  Elec       q    Type
REMARK                         _______ _______ _______ _____ _____    ______ ____
ROOT
ATOM      1  C   UNL     1      49.249   6.550  15.522  0.00  0.00    +0.000 C 
ATOM      2  C   UNL     1      49.803   6.885  16.815  0.00  0.00    +0.000 C 
ATOM      3  C   UNL     1      51.043   7.728  17.004  0.00  0.00    +0.000 C 
ATOM      4  C   UNL     1      51.137   6.239  17.130  0.00  0.00    +0.000 C 
ENDROOT
BRANCH   1  10
ATOM      5  C   UNL     1      47.693   6.960  13.666  0.00  0.00    +0.000 A 
ATOM      6  C   UNL     1      46.729   6.482  12.776  0.00  0.00    +0.000 A 
ATOM      7  C   UNL     1      46.172   5.211  12.961  0.00  0.00    +0.000 A 
ATOM      8  C   UNL     1      46.582   4.409  14.033  0.00  0.00    +0.000 A 
ATOM      9  C   UNL     1      47.548   4.870  14.935  0.00  0.00    +0.000 A 
ATOM     10  C   UNL     1      48.084   6.162  14.768  0.00  0.00    +0.000 A 
BRANCH   5  12
ATOM     11  C   UNL     1      49.145   8.268  12.264  0.00  0.00    +0.000 C 
ATOM     12  O   UNL     1      48.405   8.119  13.467  0.00  0.00    +0.000 OA
ENDBRANCH   5  12
BRANCH   7  13
ATOM     13  C   UNL     1      45.219   4.704  12.019  0.00  0.00    +0.000 C 
ATOM     14  N   UNL     1      44.452   4.292  11.247  0.00  0.00    +0.000 NA
ENDBRANCH   7  13
BRANCH   9  15
ATOM     15  O   UNL     1      48.069   4.124  15.958  0.00  0.00    +0.000 OA
ATOM     16  C   UNL     1      47.186   3.677  16.977  0.00  0.00    +0.000 C 
ENDBRANCH   9  15
ENDBRANCH   1  10
BRANCH   2  17
ATOM     17  C   UNL     1      48.682   7.069  17.843  0.00  0.00    +0.000 A 
ATOM     18  N   UNL     1      48.671   6.198  18.887  0.00  0.00    +0.000 NA
ATOM     19  C   UNL     1      48.222   6.644  20.073  0.00  0.00    +0.000 A 
ATOM     20  C   UNL     1      47.710   7.913  20.269  0.00  0.00    +0.000 A 
ATOM     21  C   UNL     1      47.596   8.780  19.179  0.00  0.00    +0.000 A 
ATOM     22  C   UNL     1      48.067   8.320  17.942  0.00  0.00    +0.000 A 
BRANCH  21  23
ATOM     23  C   UNL     1      47.104  10.157  19.328  0.00  0.00    +0.000 A 
ATOM     24  C   UNL     1      47.453  11.194  18.476  0.00  0.00    +0.000 A 
ATOM     25  N   UNL     1      47.005  12.464  18.580  0.00  0.00    +0.000 NA
ATOM     26  C   UNL     1      46.158  12.698  19.591  0.00  0.00    +0.000 A 
ATOM     27  N   UNL     1      45.735  11.794  20.483  0.00  0.00    +0.000 NA
ATOM     28  C   UNL     1      46.217  10.543  20.322  0.00  0.00    +0.000 A 
ENDBRANCH  21  23
ENDBRANCH   2  17
TORSDOF 6
ENDMDL
MODEL 9
REMARK VINA RESULT:    -4.757      1.677      3.284
REMARK INTER + INTRA:          -7.556
REMARK INTER:                  -6.411
REMARK INTRA:                  -1.145
REMARK UNBOUND:                -1.130
REMARK  Name = 
REMARK  8 active torsions:
REMARK  status: ('A' for Active; 'I' for Inactive)
REMARK    1  A    between atoms: C_1  and  O_2
REMARK    2  A    between atoms: O_2  and  C_3
REMARK    3  A    between atoms: C_5  and  C_6
REMARK    4  A    between atoms: C_9  and  O_10
REMARK    5  A    between atoms: O_10  and  C_11
REMARK    6  A    between atoms: C_12  and  C_13
REMARK    7  A    between atoms: C_14  and  C_15
REMARK    8  A    between atoms: C_19  and  C_20
REMARK                            x       y       z     vdW  Elec       q    Type
REMARK                         _______ _______ _______ _____ _____    ______ ____
ROOT
ATOM      1  C   UNL     1      49.745   8.879  15.166  0.00  0.00    +0.000 C 
ATOM      2  C   UNL     1      49.424   8.794  13.759  0.00  0.00    +0.000 C 
ATOM      3  C   UNL     1      50.331   8.162  12.729  0.00  0.00    +0.000 C 
ATOM      4  C   UNL     1      50.281   9.653  12.851  0.00  0.00    +0.000 C 
ENDROOT
BRANCH   1  10
ATOM      5  C   UNL     1      48.914  10.288  16.999  0.00  0.00    +0.000 A 
ATOM      6  C   UNL     1      48.211  10.410  18.200  0.00  0.00    +0.000 A 
ATOM      7  C   UNL     1      47.824   9.264  18.905  0.00  0.00    +0.000 A 
ATOM      8  C   UNL     1      48.132   7.991  18.410  0.00  0.00    +0.000 A 
ATOM      9  C   UNL     1      48.835   7.849  17.209  0.00  0.00    +0.000 A 
ATOM     10  C   UNL     1      49.253   9.001  16.515  0.00  0.00    +0.000 A 
BRANCH   5  12
ATOM     11  C   UNL     1      48.857  12.658  16.597  0.00  0.00    +0.000 C 
ATOM     12  O   UNL     1      49.187  11.346  16.165  0.00  0.00    +0.000 OA
ENDBRANCH   5  12
BRANCH   7  13
ATOM     13  C   UNL     1      47.061   9.391  20.111  0.00  0.00    +0.000 C 
ATOM     14  N   UNL     1      46.451   9.498  21.096  0.00  0.00    +0.000 NA
ENDBRANCH   7  13
BRANCH   9  15
ATOM     15  O   UNL     1      49.104   6.647  16.608  0.00  0.00    +0.000 OA
ATOM     16  C   UNL     1      48.589   5.469  17.210  0.00  0.00    +0.000 C 
ENDBRANCH   9  15
ENDBRANCH   1  10
BRANCH   2  17
ATOM     17  C   UNL     1      47.917   8.591  13.568  0.00  0.00    +0.000 A 
ATOM     18  N   UNL     1      47.231   9.634  13.031  0.00  0.00    +0.000 NA
ATOM     19  C   UNL     1      46.170   9.356  12.255  0.00  0.00    +0.000 A 
ATOM     20  C   UNL     1      45.700   8.075  12.032  0.00  0.00    +0.000 A 
ATOM     21  C   UNL     1      46.316   6.999  12.678  0.00  0.00    +0.000 A 
ATOM     22  C   UNL     1      47.427   7.286  13.484  0.00  0.00    +0.000 A 
BRANCH  21  23
ATOM     23  C   UNL     1      45.896   5.609  12.447  0.00  0.00    +0.000 A 
ATOM     24  C   UNL     1      46.277   4.549  13.255  0.00  0.00    +0.000 A 
ATOM     25  N   UNL     1      45.894   3.266  13.076  0.00  0.00    +0.000 NA
ATOM     26  C   UNL     1      45.082   3.043  12.033  0.00  0.00    +0.000 A 
ATOM     27  N   UNL     1      44.635   3.970  11.177  0.00  0.00    +0.000 NA
ATOM     28  C   UNL     1      45.052   5.233  11.414  0.00  0.00    +0.000 A 
ENDBRANCH  21  23
ENDBRANCH   2  17
TORSDOF 6
ENDMDL
