MODEL 1
REMARK VINA RESULT:    -8.203      0.000      0.000
REMARK INTER + INTRA:         -11.666
REMARK INTER:                 -10.601
REMARK INTRA:                  -1.065
REMARK UNBOUND:                -1.065
REMARK  Name = 
REMARK  6 active torsions:
REMARK  status: ('A' for Active; 'I' for Inactive)
REMARK    1  A    between atoms: C_1  and  C_2
REMARK    2  A    between atoms: C_6  and  C_7
REMARK    3  A    between atoms: C_7  and  N_8
REMARK    4  A    between atoms: C_12  and  C_13
REMARK    5  A    between atoms: C_13  and  N_14
REMARK    6  A    between atoms: C_15  and  C_17
REMARK                            x       y       z     vdW  Elec       q    Type
REMARK                         _______ _______ _______ _____ _____    ______ ____
ROOT
ATOM      1  N   UNL     1      44.052   4.122   9.933  0.00  0.00    +0.000 N 
ATOM      2  C   UNL     1      44.706   5.095  10.712  0.00  0.00    +0.000 A 
ATOM      3  C   UNL     1      44.178   5.393  11.966  0.00  0.00    +0.000 A 
ATOM      4  C   UNL     1      44.829   6.315  12.785  0.00  0.00    +0.000 A 
ATOM      5  C   UNL     1      46.032   6.873  12.365  0.00  0.00    +0.000 A 
ATOM      6  C   UNL     1      46.491   6.511  11.105  0.00  0.00    +0.000 A 
ATOM      7  N   UNL     1      45.855   5.648  10.281  0.00  0.00    +0.000 NA
ATOM      8  H   UNL     1      44.363   3.216  10.282  0.00  0.00    +0.000 HD
ENDROOT
BRANCH   1   9
ATOM      9  C   UNL     1      44.357   4.242   8.504  0.00  0.00    +0.000 C 
BRANCH   9  15
ATOM     10  C   UNL     1      47.538   2.624   5.178  0.00  0.00    +0.000 C 
ATOM     11  C   UNL     1      46.802   2.354   6.454  0.00  0.00    +0.000 A 
ATOM     12  C   UNL     1      46.940   1.140   7.119  0.00  0.00    +0.000 A 
ATOM     13  C   UNL     1      46.215   0.931   8.285  0.00  0.00    +0.000 A 
ATOM     14  C   UNL     1      45.369   1.935   8.757  0.00  0.00    +0.000 A 
ATOM     15  C   UNL     1      45.284   3.130   8.044  0.00  0.00    +0.000 A 
ATOM     16  N   UNL     1      45.991   3.343   6.906  0.00  0.00    +0.000 NA
ENDBRANCH   9  15
ENDBRANCH   1   9
BRANCH   5  17
ATOM     17  C   UNL     1      46.789   7.846  13.216  0.00  0.00    +0.000 C 
BRANCH  17  18
ATOM     18  N   UNL     1      47.323   7.211  14.391  0.00  0.00    +0.000 N 
ATOM     19  C   UNL     1      48.611   6.753  14.484  0.00  0.00    +0.000 C 
ATOM     20  O   UNL     1      49.417   6.860  13.565  0.00  0.00    +0.000 OA
ATOM     21  H   UNL     1      46.646   6.913  15.084  0.00  0.00    +0.000 HD
BRANCH  19  22
ATOM     22  C   UNL     1      48.996   6.206  15.792  0.00  0.00    +0.000 A 
ATOM     23  C   UNL     1      50.030   6.793  16.511  0.00  0.00    +0.000 A 
ATOM     24  S   UNL     1      50.278   6.091  18.045  0.00  0.00    +0.000 S 
ATOM     25  C   UNL     1      49.050   4.943  17.783  0.00  0.00    +0.000 A 
ATOM     26  N   UNL     1      48.744   4.016  18.728  0.00  0.00    +0.000 NA
ATOM     27  C   UNL     1      47.818   3.184  18.382  0.00  0.00    +0.000 A 
ATOM     28  N   UNL     1      47.170   3.198  17.177  0.00  0.00    +0.000 N 
ATOM     29  C   UNL     1      47.404   4.150  16.213  0.00  0.00    +0.000 A 
ATOM     30  O   UNL     1      46.734   4.193  15.188  0.00  0.00    +0.000 OA
ATOM     31  C   UNL     1      48.453   5.097  16.545  0.00  0.00    +0.000 A 
ATOM     32  H   UNL     1      46.442   2.529  16.969  0.00  0.00    +0.000 HD
ENDBRANCH  19  22
ENDBRANCH  17  18
ENDBRANCH   5  17
TORSDOF 5
ENDMDL
MODEL 2
REMARK VINA RESULT:    -7.964      1.006      1.412
REMARK INTER + INTRA:         -11.357
REMARK INTER:                 -10.915
REMARK INTRA:                  -0.442
REMARK UNBOUND:                -1.065
REMARK  Name = 
REMARK  6 active torsions:
REMARK  status: ('A' for Active; 'I' for Inactive)
REMARK    1  A    between atoms: C_1  and  C_2
REMARK    2  A    between atoms: C_6  and  C_7
REMARK    3  A    between atoms: C_7  and  N_8
REMARK    4  A    between atoms: C_12  and  C_13
REMARK    5  A    between atoms: C_13  and  N_14
REMARK    6  A    between atoms: C_15  and  C_17
REMARK                            x       y       z     vdW  Elec       q    Type
REMARK                         _______ _______ _______ _____ _____    ______ ____
ROOT
ATOM      1  N   UNL     1      43.636   4.257  10.524  0.00  0.00    +0.000 N 
ATOM      2  C   UNL     1      44.510   5.153  11.166  0.00  0.00    +0.000 A 
ATOM      3  C   UNL     1      44.306   6.518  10.977  0.00  0.00    +0.000 A 
ATOM      4  C   UNL     1      45.122   7.434  11.638  0.00  0.00    +0.000 A 
ATOM      5  C   UNL     1      46.086   6.973  12.530  0.00  0.00    +0.000 A 
ATOM      6  C   UNL     1      46.214   5.597  12.666  0.00  0.00    +0.000 A 
ATOM      7  N   UNL     1      45.457   4.692  12.005  0.00  0.00    +0.000 NA
ATOM      8  H   UNL     1      42.794   4.213  11.099  0.00  0.00    +0.000 HD
ENDROOT
BRANCH   1   9
ATOM      9  C   UNL     1      44.209   2.917  10.370  0.00  0.00    +0.000 C 
BRANCH   9  15
ATOM     10  C   UNL     1      47.004   0.175   7.459  0.00  0.00    +0.000 C 
ATOM     11  C   UNL     1      46.441   1.531   7.753  0.00  0.00    +0.000 A 
ATOM     12  C   UNL     1      46.775   2.632   6.971  0.00  0.00    +0.000 A 
ATOM     13  C   UNL     1      46.246   3.873   7.303  0.00  0.00    +0.000 A 
ATOM     14  C   UNL     1      45.401   3.985   8.408  0.00  0.00    +0.000 A 
ATOM     15  C   UNL     1      45.104   2.839   9.144  0.00  0.00    +0.000 A 
ATOM     16  N   UNL     1      45.614   1.624   8.824  0.00  0.00    +0.000 NA
ENDBRANCH   9  15
ENDBRANCH   1   9
BRANCH   5  17
ATOM     17  C   UNL     1      46.970   7.913  13.289  0.00  0.00    +0.000 C 
BRANCH  17  18
ATOM     18  N   UNL     1      47.448   7.316  14.508  0.00  0.00    +0.000 N 
ATOM     19  C   UNL     1      48.715   6.820  14.661  0.00  0.00    +0.000 C 
ATOM     20  O   UNL     1      49.552   6.857  13.763  0.00  0.00    +0.000 OA
ATOM     21  H   UNL     1      46.741   7.074  15.193  0.00  0.00    +0.000 HD
BRANCH  19  22
ATOM     22  C   UNL     1      49.043   6.323  16.004  0.00  0.00    +0.000 A 
ATOM     23  C   UNL     1      49.938   7.023  16.803  0.00  0.00    +0.000 A 
ATOM     24  S   UNL     1      50.128   6.356  18.361  0.00  0.00    +0.000 S 
ATOM     25  C   UNL     1      49.062   5.078  18.007  0.00  0.00    +0.000 A 
ATOM     26  N   UNL     1      48.779   4.124  18.933  0.00  0.00    +0.000 NA
ATOM     27  C   UNL     1      47.984   3.194  18.518  0.00  0.00    +0.000 A 
ATOM     28  N   UNL     1      47.447   3.133  17.261  0.00  0.00    +0.000 N 
ATOM     29  C   UNL     1      47.658   4.103  16.310  0.00  0.00    +0.000 A 
ATOM     30  O   UNL     1      47.079   4.069  15.230  0.00  0.00    +0.000 OA
ATOM     31  C   UNL     1      48.562   5.162  16.721  0.00  0.00    +0.000 A 
ATOM     32  H   UNL     1      46.818   2.387  17.000  0.00  0.00    +0.000 HD
ENDBRANCH  19  22
ENDBRANCH  17  18
ENDBRANCH   5  17
TORSDOF 5
ENDMDL
MODEL 3
REMARK VINA RESULT:    -7.649      1.978      2.603
REMARK INTER + INTRA:         -10.950
REMARK INTER:                 -10.284
REMARK INTRA:                  -0.666
REMARK UNBOUND:                -1.065
REMARK  Name = 
REMARK  6 active torsions:
REMARK  status: ('A' for Active; 'I' for Inactive)
REMARK    1  A    between atoms: C_1  and  C_2
REMARK    2  A    between atoms: C_6  and  C_7
REMARK    3  A    between atoms: C_7  and  N_8
REMARK    4  A    between atoms: C_12  and  C_13
REMARK    5  A    between atoms: C_13  and  N_14
REMARK    6  A    between atoms: C_15  and  C_17
REMARK                            x       y       z     vdW  Elec       q    Type
REMARK                         _______ _______ _______ _____ _____    ______ ____
ROOT
ATOM      1  N   UNL     1      44.117   4.697  10.153  0.00  0.00    +0.000 N 
ATOM      2  C   UNL     1      45.049   5.258  11.045  0.00  0.00    +0.000 A 
ATOM      3  C   UNL     1      45.324   6.619  10.937  0.00  0.00    +0.000 A 
ATOM      4  C   UNL     1      46.203   7.218  11.837  0.00  0.00    +0.000 A 
ATOM      5  C   UNL     1      46.742   6.461  12.873  0.00  0.00    +0.000 A 
ATOM      6  C   UNL     1      46.406   5.115  12.913  0.00  0.00    +0.000 A 
ATOM      7  N   UNL     1      45.585   4.507  12.026  0.00  0.00    +0.000 NA
ATOM      8  H   UNL     1      43.193   4.915  10.524  0.00  0.00    +0.000 HD
ENDROOT
BRANCH   1   9
ATOM      9  C   UNL     1      44.271   3.246  10.010  0.00  0.00    +0.000 C 
BRANCH   9  15
ATOM     10  C   UNL     1      46.864  -0.161   7.671  0.00  0.00    +0.000 C 
ATOM     11  C   UNL     1      46.451   1.276   7.749  0.00  0.00    +0.000 A 
ATOM     12  C   UNL     1      46.952   2.215   6.853  0.00  0.00    +0.000 A 
ATOM     13  C   UNL     1      46.557   3.541   6.985  0.00  0.00    +0.000 A 
ATOM     14  C   UNL     1      45.677   3.897   8.007  0.00  0.00    +0.000 A 
ATOM     15  C   UNL     1      45.210   2.903   8.866  0.00  0.00    +0.000 A 
ATOM     16  N   UNL     1      45.589   1.606   8.742  0.00  0.00    +0.000 NA
ENDBRANCH   9  15
ENDBRANCH   1   9
BRANCH   5  17
ATOM     17  C   UNL     1      47.669   7.059  13.886  0.00  0.00    +0.000 C 
BRANCH  17  18
ATOM     18  N   UNL     1      47.711   6.272  15.089  0.00  0.00    +0.000 N 
ATOM     19  C   UNL     1      48.850   6.075  15.824  0.00  0.00    +0.000 C 
ATOM     20  O   UNL     1      49.930   6.568  15.514  0.00  0.00    +0.000 OA
ATOM     21  H   UNL     1      46.907   5.680  15.263  0.00  0.00    +0.000 HD
BRANCH  19  22
ATOM     22  C   UNL     1      48.678   5.307  17.066  0.00  0.00    +0.000 A 
ATOM     23  C   UNL     1      48.629   3.920  17.021  0.00  0.00    +0.000 A 
ATOM     24  S   UNL     1      48.523   3.191  18.559  0.00  0.00    +0.000 S 
ATOM     25  C   UNL     1      48.485   4.704  19.337  0.00  0.00    +0.000 A 
ATOM     26  N   UNL     1      48.394   4.794  20.690  0.00  0.00    +0.000 NA
ATOM     27  C   UNL     1      48.337   6.002  21.144  0.00  0.00    +0.000 A 
ATOM     28  N   UNL     1      48.363   7.128  20.365  0.00  0.00    +0.000 N 
ATOM     29  C   UNL     1      48.511   7.088  18.999  0.00  0.00    +0.000 A 
ATOM     30  O   UNL     1      48.632   8.117  18.345  0.00  0.00    +0.000 OA
ATOM     31  C   UNL     1      48.559   5.751  18.437  0.00  0.00    +0.000 A 
ATOM     32  H   UNL     1      48.330   8.048  20.780  0.00  0.00    +0.000 HD
ENDBRANCH  19  22
ENDBRANCH  17  18
ENDBRANCH   5  17
TORSDOF 5
ENDMDL
MODEL 4
REMARK VINA RESULT:    -7.368      2.423      3.563
REMARK INTER + INTRA:         -10.587
REMARK INTER:                  -9.703
REMARK INTRA:                  -0.884
REMARK UNBOUND:                -1.065
REMARK  Name = 
REMARK  6 active torsions:
REMARK  status: ('A' for Active; 'I' for Inactive)
REMARK    1  A    between atoms: C_1  and  C_2
REMARK    2  A    between atoms: C_6  and  C_7
REMARK    3  A    between atoms: C_7  and  N_8
REMARK    4  A    between atoms: C_12  and  C_13
REMARK    5  A    between atoms: C_13  and  N_14
REMARK    6  A    between atoms: C_15  and  C_17
REMARK                            x       y       z     vdW  Elec       q    Type
REMARK                         _______ _______ _______ _____ _____    ______ ____
ROOT
ATOM      1  N   UNL     1      44.767   6.006  10.653  0.00  0.00    +0.000 N 
ATOM      2  C   UNL     1      45.429   5.529  11.799  0.00  0.00    +0.000 A 
ATOM      3  C   UNL     1      46.627   6.137  12.166  0.00  0.00    +0.000 A 
ATOM      4  C   UNL     1      47.282   5.724  13.324  0.00  0.00    +0.000 A 
ATOM      5  C   UNL     1      46.697   4.755  14.133  0.00  0.00    +0.000 A 
ATOM      6  C   UNL     1      45.497   4.209  13.697  0.00  0.00    +0.000 A 
ATOM      7  N   UNL     1      44.864   4.571  12.558  0.00  0.00    +0.000 NA
ATOM      8  H   UNL     1      44.258   6.841  10.940  0.00  0.00    +0.000 HD
ENDROOT
BRANCH   1   9
ATOM      9  C   UNL     1      43.842   5.024  10.082  0.00  0.00    +0.000 C 
BRANCH   9  15
ATOM     10  C   UNL     1      46.922   3.812   6.498  0.00  0.00    +0.000 C 
ATOM     11  C   UNL     1      46.060   3.346   7.629  0.00  0.00    +0.000 A 
ATOM     12  C   UNL     1      45.933   1.993   7.925  0.00  0.00    +0.000 A 
ATOM     13  C   UNL     1      45.099   1.612   8.969  0.00  0.00    +0.000 A 
ATOM     14  C   UNL     1      44.411   2.588   9.689  0.00  0.00    +0.000 A 
ATOM     15  C   UNL     1      44.590   3.927   9.343  0.00  0.00    +0.000 A 
ATOM     16  N   UNL     1      45.404   4.307   8.327  0.00  0.00    +0.000 NA
ENDBRANCH   9  15
ENDBRANCH   1   9
BRANCH   5  17
ATOM     17  C   UNL     1      47.342   4.294  15.403  0.00  0.00    +0.000 C 
BRANCH  17  18
ATOM     18  N   UNL     1      47.509   5.379  16.332  0.00  0.00    +0.000 N 
ATOM     19  C   UNL     1      48.705   5.695  16.919  0.00  0.00    +0.000 C 
ATOM     20  O   UNL     1      49.739   5.076  16.687  0.00  0.00    +0.000 OA
ATOM     21  H   UNL     1      46.657   5.775  16.712  0.00  0.00    +0.000 HD
BRANCH  19  22
ATOM     22  C   UNL     1      48.694   6.887  17.779  0.00  0.00    +0.000 A 
ATOM     23  C   UNL     1      48.855   6.752  19.152  0.00  0.00    +0.000 A 
ATOM     24  S   UNL     1      48.913   8.241  19.982  0.00  0.00    +0.000 S 
ATOM     25  C   UNL     1      48.672   9.118  18.543  0.00  0.00    +0.000 A 
ATOM     26  N   UNL     1      48.615  10.476  18.551  0.00  0.00    +0.000 NA
ATOM     27  C   UNL     1      48.391  11.009  17.397  0.00  0.00    +0.000 A 
ATOM     28  N   UNL     1      48.220  10.306  16.235  0.00  0.00    +0.000 N 
ATOM     29  C   UNL     1      48.324   8.937  16.167  0.00  0.00    +0.000 A 
ATOM     30  O   UNL     1      48.266   8.350  15.093  0.00  0.00    +0.000 OA
ATOM     31  C   UNL     1      48.556   8.287  17.444  0.00  0.00    +0.000 A 
ATOM     32  H   UNL     1      48.061  10.782  15.358  0.00  0.00    +0.000 HD
ENDBRANCH  19  22
ENDBRANCH  17  18
ENDBRANCH   5  17
TORSDOF 5
ENDMDL
MODEL 5
REMARK VINA RESULT:    -7.316      2.710      4.495
REMARK INTER + INTRA:         -10.519
REMARK INTER:                  -9.531
REMARK INTRA:                  -0.988
REMARK UNBOUND:                -1.065
REMARK  Name = 
REMARK  6 active torsions:
REMARK  status: ('A' for Active; 'I' for Inactive)
REMARK    1  A    between atoms: C_1  and  C_2
REMARK    2  A    between atoms: C_6  and  C_7
REMARK    3  A    between atoms: C_7  and  N_8
REMARK    4  A    between atoms: C_12  and  C_13
REMARK    5  A    between atoms: C_13  and  N_14
REMARK    6  A    between atoms: C_15  and  C_17
REMARK                            x       y       z     vdW  Elec       q    Type
REMARK                         _______ _______ _______ _____ _____    ______ ____
ROOT
ATOM      1  N   UNL     1      43.868   4.095  10.813  0.00  0.00    +0.000 N 
ATOM      2  C   UNL     1      44.843   4.427  11.771  0.00  0.00    +0.000 A 
ATOM      3  C   UNL     1      45.092   5.776  12.012  0.00  0.00    +0.000 A 
ATOM      4  C   UNL     1      46.015   6.141  12.990  0.00  0.00    +0.000 A 
ATOM      5  C   UNL     1      46.624   5.154  13.759  0.00  0.00    +0.000 A 
ATOM      6  C   UNL     1      46.309   3.835  13.458  0.00  0.00    +0.000 A 
ATOM      7  N   UNL     1      45.445   3.460  12.488  0.00  0.00    +0.000 NA
ATOM      8  H   UNL     1      42.964   4.181  11.277  0.00  0.00    +0.000 HD
ENDROOT
BRANCH   1   9
ATOM      9  C   UNL     1      44.032   2.738  10.283  0.00  0.00    +0.000 C 
BRANCH   9  15
ATOM     10  C   UNL     1      47.054   0.144   7.465  0.00  0.00    +0.000 C 
ATOM     11  C   UNL     1      46.450   1.480   7.769  0.00  0.00    +0.000 A 
ATOM     12  C   UNL     1      46.812   2.613   7.047  0.00  0.00    +0.000 A 
ATOM     13  C   UNL     1      46.241   3.832   7.387  0.00  0.00    +0.000 A 
ATOM     14  C   UNL     1      45.326   3.893   8.438  0.00  0.00    +0.000 A 
ATOM     15  C   UNL     1      45.004   2.717   9.114  0.00  0.00    +0.000 A 
ATOM     16  N   UNL     1      45.555   1.522   8.787  0.00  0.00    +0.000 NA
ENDBRANCH   9  15
ENDBRANCH   1   9
BRANCH   5  17
ATOM     17  C   UNL     1      47.601   5.490  14.843  0.00  0.00    +0.000 C 
BRANCH  17  18
ATOM     18  N   UNL     1      48.063   6.848  14.733  0.00  0.00    +0.000 N 
ATOM     19  C   UNL     1      49.319   7.252  15.099  0.00  0.00    +0.000 C 
ATOM     20  O   UNL     1      50.158   6.476  15.546  0.00  0.00    +0.000 OA
ATOM     21  H   UNL     1      47.349   7.550  14.575  0.00  0.00    +0.000 HD
BRANCH  19  22
ATOM     22  C   UNL     1      49.632   8.664  14.837  0.00  0.00    +0.000 A 
ATOM     23  C   UNL     1      50.035   9.488  15.880  0.00  0.00    +0.000 A 
ATOM     24  S   UNL     1      50.449  11.066  15.381  0.00  0.00    +0.000 S 
ATOM     25  C   UNL     1      50.055  10.719  13.762  0.00  0.00    +0.000 A 
ATOM     26  N   UNL     1      50.182  11.663  12.792  0.00  0.00    +0.000 NA
ATOM     27  C   UNL     1      49.813  11.276  11.617  0.00  0.00    +0.000 A 
ATOM     28  N   UNL     1      49.329  10.029  11.324  0.00  0.00    +0.000 N 
ATOM     29  C   UNL     1      49.236   9.025  12.258  0.00  0.00    +0.000 A 
ATOM     30  O   UNL     1      48.894   7.892  11.940  0.00  0.00    +0.000 OA
ATOM     31  C   UNL     1      49.620   9.416  13.603  0.00  0.00    +0.000 A 
ATOM     32  H   UNL     1      49.070   9.780  10.380  0.00  0.00    +0.000 HD
ENDBRANCH  19  22
ENDBRANCH  17  18
ENDBRANCH   5  17
TORSDOF 5
ENDMDL
MODEL 6
REMARK VINA RESULT:    -7.133      3.821      4.994
REMARK INTER + INTRA:         -10.283
REMARK INTER:                  -9.494
REMARK INTRA:                  -0.789
REMARK UNBOUND:                -1.065
REMARK  Name = 
REMARK  6 active torsions:
REMARK  status: ('A' for Active; 'I' for Inactive)
REMARK    1  A    between atoms: C_1  and  C_2
REMARK    2  A    between atoms: C_6  and  C_7
REMARK    3  A    between atoms: C_7  and  N_8
REMARK    4  A    between atoms: C_12  and  C_13
REMARK    5  A    between atoms: C_13  and  N_14
REMARK    6  A    between atoms: C_15  and  C_17
REMARK                            x       y       z     vdW  Elec       q    Type
REMARK                         _______ _______ _______ _____ _____    ______ ____
ROOT
ATOM      1  N   UNL     1      44.988   3.070  11.147  0.00  0.00    +0.000 N 
ATOM      2  C   UNL     1      45.011   4.417  11.553  0.00  0.00    +0.000 A 
ATOM      3  C   UNL     1      45.190   4.691  12.907  0.00  0.00    +0.000 A 
ATOM      4  C   UNL     1      45.269   6.015  13.336  0.00  0.00    +0.000 A 
ATOM      5  C   UNL     1      45.234   7.042  12.398  0.00  0.00    +0.000 A 
ATOM      6  C   UNL     1      45.064   6.678  11.069  0.00  0.00    +0.000 A 
ATOM      7  N   UNL     1      44.948   5.402  10.637  0.00  0.00    +0.000 NA
ATOM      8  H   UNL     1      45.960   2.771  11.081  0.00  0.00    +0.000 HD
ENDROOT
BRANCH   1   9
ATOM      9  C   UNL     1      44.314   2.877   9.860  0.00  0.00    +0.000 C 
BRANCH   9  15
ATOM     10  C   UNL     1      46.950  -0.521   7.556  0.00  0.00    +0.000 C 
ATOM     11  C   UNL     1      46.573   0.924   7.661  0.00  0.00    +0.000 A 
ATOM     12  C   UNL     1      47.151   1.879   6.831  0.00  0.00    +0.000 A 
ATOM     13  C   UNL     1      46.785   3.210   6.988  0.00  0.00    +0.000 A 
ATOM     14  C   UNL     1      45.855   3.556   7.969  0.00  0.00    +0.000 A 
ATOM     15  C   UNL     1      45.311   2.546   8.761  0.00  0.00    +0.000 A 
ATOM     16  N   UNL     1      45.661   1.244   8.613  0.00  0.00    +0.000 NA
ENDBRANCH   9  15
ENDBRANCH   1   9
BRANCH   5  17
ATOM     17  C   UNL     1      45.344   8.481  12.801  0.00  0.00    +0.000 C 
BRANCH  17  18
ATOM     18  N   UNL     1      46.520   9.094  12.244  0.00  0.00    +0.000 N 
ATOM     19  C   UNL     1      47.682   9.279  12.946  0.00  0.00    +0.000 C 
ATOM     20  O   UNL     1      47.811   8.923  14.113  0.00  0.00    +0.000 OA
ATOM     21  H   UNL     1      46.393   9.588  11.368  0.00  0.00    +0.000 HD
BRANCH  19  22
ATOM     22  C   UNL     1      48.800   9.850  12.182  0.00  0.00    +0.000 A 
ATOM     23  C   UNL     1      48.832  11.212  11.916  0.00  0.00    +0.000 A 
ATOM     24  S   UNL     1      50.246  11.716  11.105  0.00  0.00    +0.000 S 
ATOM     25  C   UNL     1      50.841  10.123  11.034  0.00  0.00    +0.000 A 
ATOM     26  N   UNL     1      52.037   9.847  10.450  0.00  0.00    +0.000 NA
ATOM     27  C   UNL     1      52.349   8.594  10.433  0.00  0.00    +0.000 A 
ATOM     28  N   UNL     1      51.572   7.592  10.949  0.00  0.00    +0.000 N 
ATOM     29  C   UNL     1      50.383   7.827  11.599  0.00  0.00    +0.000 A 
ATOM     30  O   UNL     1      49.765   6.917  12.137  0.00  0.00    +0.000 OA
ATOM     31  C   UNL     1      49.977   9.220  11.626  0.00  0.00    +0.000 A 
ATOM     32  H   UNL     1      51.877   6.629  10.920  0.00  0.00    +0.000 HD
ENDBRANCH  19  22
ENDBRANCH  17  18
ENDBRANCH   5  17
TORSDOF 5
ENDMDL
MODEL 7
REMARK VINA RESULT:    -6.969      3.233      8.741
REMARK INTER + INTRA:         -10.070
REMARK INTER:                  -9.220
REMARK INTRA:                  -0.850
REMARK UNBOUND:                -1.065
REMARK  Name = 
REMARK  6 active torsions:
REMARK  status: ('A' for Active; 'I' for Inactive)
REMARK    1  A    between atoms: C_1  and  C_2
REMARK    2  A    between atoms: C_6  and  C_7
REMARK    3  A    between atoms: C_7  and  N_8
REMARK    4  A    between atoms: C_12  and  C_13
REMARK    5  A    between atoms: C_13  and  N_14
REMARK    6  A    between atoms: C_15  and  C_17
REMARK                            x       y       z     vdW  Elec       q    Type
REMARK                         _______ _______ _______ _____ _____    ______ ____
ROOT
ATOM      1  N   UNL     1      51.772   7.395  15.605  0.00  0.00    +0.000 N 
ATOM      2  C   UNL     1      50.724   7.549  14.679  0.00  0.00    +0.000 A 
ATOM      3  C   UNL     1      50.952   8.342  13.557  0.00  0.00    +0.000 A 
ATOM      4  C   UNL     1      49.954   8.476  12.594  0.00  0.00    +0.000 A 
ATOM      5  C   UNL     1      48.768   7.762  12.734  0.00  0.00    +0.000 A 
ATOM      6  C   UNL     1      48.629   6.987  13.877  0.00  0.00    +0.000 A 
ATOM      7  N   UNL     1      49.571   6.874  14.841  0.00  0.00    +0.000 NA
ATOM      8  H   UNL     1      52.391   6.680  15.224  0.00  0.00    +0.000 HD
ENDROOT
BRANCH   1   9
ATOM      9  C   UNL     1      51.299   6.993  16.933  0.00  0.00    +0.000 C 
BRANCH   9  15
ATOM     10  C   UNL     1      50.145   2.273  17.363  0.00  0.00    +0.000 C 
ATOM     11  C   UNL     1      51.200   3.328  17.483  0.00  0.00    +0.000 A 
ATOM     12  C   UNL     1      52.480   3.015  17.930  0.00  0.00    +0.000 A 
ATOM     13  C   UNL     1      53.415   4.036  18.048  0.00  0.00    +0.000 A 
ATOM     14  C   UNL     1      53.049   5.342  17.722  0.00  0.00    +0.000 A 
ATOM     15  C   UNL     1      51.751   5.583  17.275  0.00  0.00    +0.000 A 
ATOM     16  N   UNL     1      50.834   4.591  17.154  0.00  0.00    +0.000 NA
ENDBRANCH   9  15
ENDBRANCH   1   9
BRANCH   5  17
ATOM     17  C   UNL     1      47.673   7.845  11.715  0.00  0.00    +0.000 C 
BRANCH  17  18
ATOM     18  N   UNL     1      46.927   6.618  11.644  0.00  0.00    +0.000 N 
ATOM     19  C   UNL     1      45.560   6.566  11.576  0.00  0.00    +0.000 C 
ATOM     20  O   UNL     1      44.861   7.576  11.561  0.00  0.00    +0.000 OA
ATOM     21  H   UNL     1      47.438   5.772  11.868  0.00  0.00    +0.000 HD
BRANCH  19  22
ATOM     22  C   UNL     1      44.982   5.223  11.430  0.00  0.00    +0.000 A 
ATOM     23  C   UNL     1      44.294   4.646  12.489  0.00  0.00    +0.000 A 
ATOM     24  S   UNL     1      43.610   3.130  12.113  0.00  0.00    +0.000 S 
ATOM     25  C   UNL     1      44.253   3.165  10.538  0.00  0.00    +0.000 A 
ATOM     26  N   UNL     1      44.039   2.142   9.669  0.00  0.00    +0.000 NA
ATOM     27  C   UNL     1      44.616   2.284   8.522  0.00  0.00    +0.000 A 
ATOM     28  N   UNL     1      45.387   3.357   8.166  0.00  0.00    +0.000 N 
ATOM     29  C   UNL     1      45.586   4.440   8.988  0.00  0.00    +0.000 A 
ATOM     30  O   UNL     1      46.198   5.428   8.598  0.00  0.00    +0.000 OA
ATOM     31  C   UNL     1      44.975   4.321  10.300  0.00  0.00    +0.000 A 
ATOM     32  H   UNL     1      45.801   3.417   7.247  0.00  0.00    +0.000 HD
ENDBRANCH  19  22
ENDBRANCH  17  18
ENDBRANCH   5  17
TORSDOF 5
ENDMDL
MODEL 8
REMARK VINA RESULT:    -6.889      2.181      2.868
REMARK INTER + INTRA:          -9.968
REMARK INTER:                  -9.510
REMARK INTRA:                  -0.458
REMARK UNBOUND:                -1.065
REMARK  Name = 
REMARK  6 active torsions:
REMARK  status: ('A' for Active; 'I' for Inactive)
REMARK    1  A    between atoms: C_1  and  C_2
REMARK    2  A    between atoms: C_6  and  C_7
REMARK    3  A    between atoms: C_7  and  N_8
REMARK    4  A    between atoms: C_12  and  C_13
REMARK    5  A    between atoms: C_13  and  N_14
REMARK    6  A    between atoms: C_15  and  C_17
REMARK                            x       y       z     vdW  Elec       q    Type
REMARK                         _______ _______ _______ _____ _____    ______ ____
ROOT
ATOM      1  N   UNL     1      43.859   4.460  12.202  0.00  0.00    +0.000 N 
ATOM      2  C   UNL     1      45.041   5.082  12.646  0.00  0.00    +0.000 A 
ATOM      3  C   UNL     1      45.060   6.472  12.727  0.00  0.00    +0.000 A 
ATOM      4  C   UNL     1      46.196   7.117  13.211  0.00  0.00    +0.000 A 
ATOM      5  C   UNL     1      47.271   6.361  13.669  0.00  0.00    +0.000 A 
ATOM      6  C   UNL     1      47.162   4.980  13.561  0.00  0.00    +0.000 A 
ATOM      7  N   UNL     1      46.084   4.337  13.060  0.00  0.00    +0.000 NA
ATOM      8  H   UNL     1      43.232   4.424  13.005  0.00  0.00    +0.000 HD
ENDROOT
BRANCH   1   9
ATOM      9  C   UNL     1      44.090   3.109  11.683  0.00  0.00    +0.000 C 
BRANCH   9  15
ATOM     10  C   UNL     1      46.395   0.863   8.017  0.00  0.00    +0.000 C 
ATOM     11  C   UNL     1      45.651   2.075   8.482  0.00  0.00    +0.000 A 
ATOM     12  C   UNL     1      45.454   3.164   7.639  0.00  0.00    +0.000 A 
ATOM     13  C   UNL     1      44.779   4.275   8.129  0.00  0.00    +0.000 A 
ATOM     14  C   UNL     1      44.320   4.274   9.447  0.00  0.00    +0.000 A 
ATOM     15  C   UNL     1      44.547   3.146  10.234  0.00  0.00    +0.000 A 
ATOM     16  N   UNL     1      45.203   2.057   9.762  0.00  0.00    +0.000 NA
ENDBRANCH   9  15
ENDBRANCH   1   9
BRANCH   5  17
ATOM     17  C   UNL     1      48.505   7.000  14.226  0.00  0.00    +0.000 C 
BRANCH  17  18
ATOM     18  N   UNL     1      48.406   7.181  15.650  0.00  0.00    +0.000 N 
ATOM     19  C   UNL     1      49.009   6.355  16.561  0.00  0.00    +0.000 C 
ATOM     20  O   UNL     1      49.694   5.392  16.227  0.00  0.00    +0.000 OA
ATOM     21  H   UNL     1      47.688   7.822  15.969  0.00  0.00    +0.000 HD
BRANCH  19  22
ATOM     22  C   UNL     1      48.860   6.747  17.969  0.00  0.00    +0.000 A 
ATOM     23  C   UNL     1      48.837   8.092  18.314  0.00  0.00    +0.000 A 
ATOM     24  S   UNL     1      48.561   8.365  19.975  0.00  0.00    +0.000 S 
ATOM     25  C   UNL     1      48.514   6.696  20.301  0.00  0.00    +0.000 A 
ATOM     26  N   UNL     1      48.311   6.233  21.563  0.00  0.00    +0.000 NA
ATOM     27  C   UNL     1      48.336   4.946  21.672  0.00  0.00    +0.000 A 
ATOM     28  N   UNL     1      48.546   4.081  20.633  0.00  0.00    +0.000 N 
ATOM     29  C   UNL     1      48.700   4.498  19.332  0.00  0.00    +0.000 A 
ATOM     30  O   UNL     1      48.784   3.692  18.413  0.00  0.00    +0.000 OA
ATOM     31  C   UNL     1      48.700   5.940  19.158  0.00  0.00    +0.000 A 
ATOM     32  H   UNL     1      48.540   3.082  20.778  0.00  0.00    +0.000 HD
ENDBRANCH  19  22
ENDBRANCH  17  18
ENDBRANCH   5  17
TORSDOF 5
ENDMDL
MODEL 9
REMARK VINA RESULT:    -6.844      3.669      5.734
REMARK INTER + INTRA:          -9.909
REMARK INTER:                  -9.052
REMARK INTRA:                  -0.857
REMARK UNBOUND:                -1.065
REMARK  Name = 
REMARK  6 active torsions:
REMARK  status: ('A' for Active; 'I' for Inactive)
REMARK    1  A    between atoms: C_1  and  C_2
REMARK    2  A    between atoms: C_6  and  C_7
REMARK    3  A    between atoms: C_7  and  N_8
REMARK    4  A    between atoms: C_12  and  C_13
REMARK    5  A    between atoms: C_13  and  N_14
REMARK    6  A    between atoms: C_15  and  C_17
REMARK                            x       y       z     vdW  Elec       q    Type
REMARK                         _______ _______ _______ _____ _____    ______ ____
ROOT
ATOM      1  N   UNL     1      45.006   2.993  11.092  0.00  0.00    +0.000 N 
ATOM      2  C   UNL     1      45.093   4.324  11.538  0.00  0.00    +0.000 A 
ATOM      3  C   UNL     1      45.275   4.549  12.900  0.00  0.00    +0.000 A 
ATOM      4  C   UNL     1      45.417   5.854  13.369  0.00  0.00    +0.000 A 
ATOM      5  C   UNL     1      45.442   6.908  12.462  0.00  0.00    +0.000 A 
ATOM      6  C   UNL     1      45.266   6.593  11.122  0.00  0.00    +0.000 A 
ATOM      7  N   UNL     1      45.089   5.337  10.651  0.00  0.00    +0.000 NA
ATOM      8  H   UNL     1      45.962   2.647  11.024  0.00  0.00    +0.000 HD
ENDROOT
BRANCH   1   9
ATOM      9  C   UNL     1      44.334   2.872   9.795  0.00  0.00    +0.000 C 
BRANCH   9  15
ATOM     10  C   UNL     1      46.957  -0.599   7.587  0.00  0.00    +0.000 C 
ATOM     11  C   UNL     1      46.574   0.847   7.643  0.00  0.00    +0.000 A 
ATOM     12  C   UNL     1      47.139   1.773   6.771  0.00  0.00    +0.000 A 
ATOM     13  C   UNL     1      46.769   3.107   6.883  0.00  0.00    +0.000 A 
ATOM     14  C   UNL     1      45.849   3.486   7.861  0.00  0.00    +0.000 A 
ATOM     15  C   UNL     1      45.319   2.504   8.697  0.00  0.00    +0.000 A 
ATOM     16  N   UNL     1      45.673   1.199   8.593  0.00  0.00    +0.000 NA
ENDBRANCH   9  15
ENDBRANCH   1   9
BRANCH   5  17
ATOM     17  C   UNL     1      45.622   8.327  12.908  0.00  0.00    +0.000 C 
BRANCH  17  18
ATOM     18  N   UNL     1      46.785   8.924  12.307  0.00  0.00    +0.000 N 
ATOM     19  C   UNL     1      48.010   8.974  12.917  0.00  0.00    +0.000 C 
ATOM     20  O   UNL     1      48.213   8.500  14.031  0.00  0.00    +0.000 OA
ATOM     21  H   UNL     1      46.617   9.507  11.495  0.00  0.00    +0.000 HD
BRANCH  19  22
ATOM     22  C   UNL     1      49.095   9.552  12.112  0.00  0.00    +0.000 A 
ATOM     23  C   UNL     1      50.297   8.869  11.979  0.00  0.00    +0.000 A 
ATOM     24  S   UNL     1      51.407   9.637  10.936  0.00  0.00    +0.000 S 
ATOM     25  C   UNL     1      50.342  10.937  10.667  0.00  0.00    +0.000 A 
ATOM     26  N   UNL     1      50.686  11.969   9.852  0.00  0.00    +0.000 NA
ATOM     27  C   UNL     1      49.799  12.904   9.768  0.00  0.00    +0.000 A 
ATOM     28  N   UNL     1      48.599  12.899  10.425  0.00  0.00    +0.000 N 
ATOM     29  C   UNL     1      48.182  11.853  11.214  0.00  0.00    +0.000 A 
ATOM     30  O   UNL     1      47.059  11.837  11.704  0.00  0.00    +0.000 OA
ATOM     31  C   UNL     1      49.153  10.784  11.358  0.00  0.00    +0.000 A 
ATOM     32  H   UNL     1      47.938  13.655  10.308  0.00  0.00    +0.000 HD
ENDBRANCH  19  22
ENDBRANCH  17  18
ENDBRANCH   5  17
TORSDOF 5
ENDMDL
