MODEL 1
REMARK VINA RESULT:    -7.586      0.000      0.000
REMARK INTER + INTRA:         -10.713
REMARK INTER:                  -9.803
REMARK INTRA:                  -0.910
REMARK UNBOUND:                -0.910
REMARK  Name = 
REMARK  5 active torsions:
REMARK  status: ('A' for Active; 'I' for Inactive)
REMARK    1  A    between atoms: C_2  and  C_4
REMARK    2  A    between atoms: C_8  and  C_9
REMARK    3  A    between atoms: C_9  and  C_10
REMARK    4  A    between atoms: C_10  and  C_11
REMARK    5  A    between atoms: C_15  and  N_16
REMARK                            x       y       z     vdW  Elec       q    Type
REMARK                         _______ _______ _______ _____ _____    ______ ____
ROOT
ATOM      1  C   UNL     1      43.727   4.036  11.484  0.00  0.00    +0.000 C 
ENDROOT
BRANCH   1   2
ATOM      2  C   UNL     1      44.926   4.475  12.305  0.00  0.00    +0.000 A 
ATOM      3  C   UNL     1      45.733   3.493  12.893  0.00  0.00    +0.000 A 
ATOM      4  C   UNL     1      46.871   3.846  13.610  0.00  0.00    +0.000 A 
ATOM      5  C   UNL     1      47.225   5.190  13.739  0.00  0.00    +0.000 A 
ATOM      6  C   UNL     1      46.446   6.207  13.179  0.00  0.00    +0.000 A 
ATOM      7  C   UNL     1      45.271   5.825  12.505  0.00  0.00    +0.000 A 
BRANCH   6   8
ATOM      8  N   UNL     1      46.839   7.532  13.244  0.00  0.00    +0.000 N 
ATOM      9  C   UNL     1      45.863   8.619  13.151  0.00  0.00    +0.000 C 
ATOM     10  C   UNL     1      46.144   9.489  11.927  0.00  0.00    +0.000 C 
ATOM     11  C   UNL     1      47.605   9.931  11.881  0.00  0.00    +0.000 C 
ATOM     12  C   UNL     1      48.539   8.726  11.977  0.00  0.00    +0.000 C 
ATOM     13  C   UNL     1      48.253   7.902  13.233  0.00  0.00    +0.000 C 
ENDBRANCH   6   8
ENDBRANCH   1   2
BRANCH   1  14
ATOM     14  C   UNL     1      43.938   2.776  10.635  0.00  0.00    +0.000 C 
BRANCH  14  19
ATOM     15  C   UNL     1      46.322   2.074   7.906  0.00  0.00    +0.000 A 
ATOM     16  C   UNL     1      46.583   3.309   7.332  0.00  0.00    +0.000 A 
ATOM     17  C   UNL     1      45.963   4.427   7.878  0.00  0.00    +0.000 A 
ATOM     18  C   UNL     1      45.106   4.273   8.969  0.00  0.00    +0.000 A 
ATOM     19  C   UNL     1      44.887   2.995   9.484  0.00  0.00    +0.000 A 
ATOM     20  N   UNL     1      45.486   1.890   8.971  0.00  0.00    +0.000 NA
BRANCH  15  22
ATOM     21  N   UNL     1      47.787   1.050   6.268  0.00  0.00    +0.000 N 
ATOM     22  C   UNL     1      46.967   0.849   7.345  0.00  0.00    +0.000 C 
ATOM     23  O   UNL     1      46.792  -0.271   7.815  0.00  0.00    +0.000 OA
ATOM     24  H   UNL     1      48.290   0.270   5.872  0.00  0.00    +0.000 HD
ATOM     25  H   UNL     1      47.971   1.998   5.952  0.00  0.00    +0.000 HD
ENDBRANCH  15  22
ENDBRANCH  14  19
ENDBRANCH   1  14
TORSDOF 5
ENDMDL
MODEL 2
REMARK VINA RESULT:    -7.468      3.059      7.217
REMARK INTER + INTRA:         -10.560
REMARK INTER:                  -9.742
REMARK INTRA:                  -0.818
REMARK UNBOUND:                -0.910
REMARK  Name = 
REMARK  5 active torsions:
REMARK  status: ('A' for Active; 'I' for Inactive)
REMARK    1  A    between atoms: C_2  and  C_4
REMARK    2  A    between atoms: C_8  and  C_9
REMARK    3  A    between atoms: C_9  and  C_10
REMARK    4  A    between atoms: C_10  and  C_11
REMARK    5  A    between atoms: C_15  and  N_16
REMARK                            x       y       z     vdW  Elec       q    Type
REMARK                         _______ _______ _______ _____ _____    ______ ____
ROOT
ATOM      1  C   UNL     1      45.952   6.415  12.615  0.00  0.00    +0.000 C 
ENDROOT
BRANCH   1   2
ATOM      2  C   UNL     1      45.220   5.179  12.127  0.00  0.00    +0.000 A 
ATOM      3  C   UNL     1      44.268   4.588  12.966  0.00  0.00    +0.000 A 
ATOM      4  C   UNL     1      43.534   3.485  12.540  0.00  0.00    +0.000 A 
ATOM      5  C   UNL     1      43.737   2.965  11.261  0.00  0.00    +0.000 A 
ATOM      6  C   UNL     1      44.683   3.514  10.391  0.00  0.00    +0.000 A 
ATOM      7  C   UNL     1      45.448   4.595  10.866  0.00  0.00    +0.000 A 
BRANCH   6   8
ATOM      8  N   UNL     1      44.828   3.044   9.097  0.00  0.00    +0.000 N 
ATOM      9  C   UNL     1      45.012   1.618   8.824  0.00  0.00    +0.000 C 
ATOM     10  C   UNL     1      46.361   1.370   8.150  0.00  0.00    +0.000 C 
ATOM     11  C   UNL     1      46.559   2.288   6.945  0.00  0.00    +0.000 C 
ATOM     12  C   UNL     1      46.353   3.750   7.337  0.00  0.00    +0.000 C 
ATOM     13  C   UNL     1      44.978   3.964   7.972  0.00  0.00    +0.000 C 
ENDBRANCH   6   8
ENDBRANCH   1   2
BRANCH   1  14
ATOM     14  C   UNL     1      47.463   6.245  12.819  0.00  0.00    +0.000 C 
BRANCH  14  19
ATOM     15  C   UNL     1      47.908   4.707  16.145  0.00  0.00    +0.000 A 
ATOM     16  C   UNL     1      48.571   5.665  16.897  0.00  0.00    +0.000 A 
ATOM     17  C   UNL     1      48.870   6.879  16.290  0.00  0.00    +0.000 A 
ATOM     18  C   UNL     1      48.502   7.092  14.962  0.00  0.00    +0.000 A 
ATOM     19  C   UNL     1      47.844   6.075  14.268  0.00  0.00    +0.000 A 
ATOM     20  N   UNL     1      47.537   4.883  14.843  0.00  0.00    +0.000 NA
BRANCH  15  22
ATOM     21  N   UNL     1      48.491   2.392  16.572  0.00  0.00    +0.000 N 
ATOM     22  C   UNL     1      47.572   3.388  16.762  0.00  0.00    +0.000 C 
ATOM     23  O   UNL     1      46.547   3.197  17.410  0.00  0.00    +0.000 OA
ATOM     24  H   UNL     1      48.347   1.491  17.002  0.00  0.00    +0.000 HD
ATOM     25  H   UNL     1      49.364   2.604  16.096  0.00  0.00    +0.000 HD
ENDBRANCH  15  22
ENDBRANCH  14  19
ENDBRANCH   1  14
TORSDOF 5
ENDMDL
MODEL 3
REMARK VINA RESULT:    -7.034      2.793      6.906
REMARK INTER + INTRA:         -10.000
REMARK INTER:                  -8.871
REMARK INTRA:                  -1.130
REMARK UNBOUND:                -0.910
REMARK  Name = 
REMARK  5 active torsions:
REMARK  status: ('A' for Active; 'I' for Inactive)
REMARK    1  A    between atoms: C_2  and  C_4
REMARK    2  A    between atoms: C_8  and  C_9
REMARK    3  A    between atoms: C_9  and  C_10
REMARK    4  A    between atoms: C_10  and  C_11
REMARK    5  A    between atoms: C_15  and  N_16
REMARK                            x       y       z     vdW  Elec       q    Type
REMARK                         _______ _______ _______ _____ _____    ______ ____
ROOT
ATOM      1  C   UNL     1      46.701   4.153  13.793  0.00  0.00    +0.000 C 
ENDROOT
BRANCH   1   2
ATOM      2  C   UNL     1      45.514   4.112  12.849  0.00  0.00    +0.000 A 
ATOM      3  C   UNL     1      44.294   4.645  13.281  0.00  0.00    +0.000 A 
ATOM      4  C   UNL     1      43.193   4.677  12.430  0.00  0.00    +0.000 A 
ATOM      5  C   UNL     1      43.303   4.184  11.129  0.00  0.00    +0.000 A 
ATOM      6  C   UNL     1      44.497   3.632  10.655  0.00  0.00    +0.000 A 
ATOM      7  C   UNL     1      45.578   3.564  11.554  0.00  0.00    +0.000 A 
BRANCH   6   8
ATOM      8  N   UNL     1      44.625   3.213   9.343  0.00  0.00    +0.000 N 
ATOM      9  C   UNL     1      44.734   1.793   9.007  0.00  0.00    +0.000 C 
ATOM     10  C   UNL     1      46.071   1.504   8.327  0.00  0.00    +0.000 C 
ATOM     11  C   UNL     1      46.325   2.462   7.165  0.00  0.00    +0.000 C 
ATOM     12  C   UNL     1      46.195   3.914   7.621  0.00  0.00    +0.000 C 
ATOM     13  C   UNL     1      44.830   4.173   8.261  0.00  0.00    +0.000 C 
ENDBRANCH   6   8
ENDBRANCH   1   2
BRANCH   1  14
ATOM     14  C   UNL     1      46.965   5.510  14.458  0.00  0.00    +0.000 C 
BRANCH  14  19
ATOM     15  C   UNL     1      46.929   8.567  12.389  0.00  0.00    +0.000 A 
ATOM     16  C   UNL     1      48.160   8.581  11.750  0.00  0.00    +0.000 A 
ATOM     17  C   UNL     1      49.035   7.529  11.995  0.00  0.00    +0.000 A 
ATOM     18  C   UNL     1      48.655   6.508  12.866  0.00  0.00    +0.000 A 
ATOM     19  C   UNL     1      47.402   6.569  13.478  0.00  0.00    +0.000 A 
ATOM     20  N   UNL     1      46.529   7.585  13.249  0.00  0.00    +0.000 NA
BRANCH  15  22
ATOM     21  N   UNL     1      44.764   9.576  12.803  0.00  0.00    +0.000 N 
ATOM     22  C   UNL     1      45.963   9.682  12.153  0.00  0.00    +0.000 C 
ATOM     23  O   UNL     1      46.219  10.644  11.435  0.00  0.00    +0.000 OA
ATOM     24  H   UNL     1      44.086  10.319  12.724  0.00  0.00    +0.000 HD
ATOM     25  H   UNL     1      44.614   8.807  13.450  0.00  0.00    +0.000 HD
ENDBRANCH  15  22
ENDBRANCH  14  19
ENDBRANCH   1  14
TORSDOF 5
ENDMDL
MODEL 4
REMARK VINA RESULT:    -7.031      2.982      5.289
REMARK INTER + INTRA:          -9.996
REMARK INTER:                  -9.179
REMARK INTRA:                  -0.816
REMARK UNBOUND:                -0.910
REMARK  Name = 
REMARK  5 active torsions:
REMARK  status: ('A' for Active; 'I' for Inactive)
REMARK    1  A    between atoms: C_2  and  C_4
REMARK    2  A    between atoms: C_8  and  C_9
REMARK    3  A    between atoms: C_9  and  C_10
REMARK    4  A    between atoms: C_10  and  C_11
REMARK    5  A    between atoms: C_15  and  N_16
REMARK                            x       y       z     vdW  Elec       q    Type
REMARK                         _______ _______ _______ _____ _____    ______ ____
ROOT
ATOM      1  C   UNL     1      46.911   3.108   6.205  0.00  0.00    +0.000 C 
ENDROOT
BRANCH   1   2
ATOM      2  C   UNL     1      46.087   3.007   7.475  0.00  0.00    +0.000 A 
ATOM      3  C   UNL     1      45.680   1.741   7.913  0.00  0.00    +0.000 A 
ATOM      4  C   UNL     1      44.968   1.595   9.099  0.00  0.00    +0.000 A 
ATOM      5  C   UNL     1      44.664   2.717   9.872  0.00  0.00    +0.000 A 
ATOM      6  C   UNL     1      45.040   4.003   9.472  0.00  0.00    +0.000 A 
ATOM      7  C   UNL     1      45.711   4.127   8.241  0.00  0.00    +0.000 A 
BRANCH   6   8
ATOM      8  N   UNL     1      44.803   5.104  10.275  0.00  0.00    +0.000 N 
ATOM      9  C   UNL     1      45.874   6.041  10.617  0.00  0.00    +0.000 C 
ATOM     10  C   UNL     1      46.106   6.064  12.126  0.00  0.00    +0.000 C 
ATOM     11  C   UNL     1      44.799   6.277  12.887  0.00  0.00    +0.000 C 
ATOM     12  C   UNL     1      43.752   5.248  12.466  0.00  0.00    +0.000 C 
ATOM     13  C   UNL     1      43.521   5.281  10.954  0.00  0.00    +0.000 C 
ENDBRANCH   6   8
ENDBRANCH   1   2
BRANCH   1  14
ATOM     14  C   UNL     1      47.688   1.841   5.823  0.00  0.00    +0.000 C 
BRANCH  14  19
ATOM     15  C   UNL     1      46.711  -0.931   3.591  0.00  0.00    +0.000 A 
ATOM     16  C   UNL     1      45.903  -0.347   2.627  0.00  0.00    +0.000 A 
ATOM     17  C   UNL     1      45.683   1.023   2.702  0.00  0.00    +0.000 A 
ATOM     18  C   UNL     1      46.272   1.758   3.732  0.00  0.00    +0.000 A 
ATOM     19  C   UNL     1      47.065   1.096   4.670  0.00  0.00    +0.000 A 
ATOM     20  N   UNL     1      47.298  -0.241   4.613  0.00  0.00    +0.000 NA
BRANCH  15  22
ATOM     21  N   UNL     1      46.204  -3.165   4.388  0.00  0.00    +0.000 N 
ATOM     22  C   UNL     1      46.967  -2.403   3.546  0.00  0.00    +0.000 C 
ATOM     23  O   UNL     1      47.797  -2.911   2.798  0.00  0.00    +0.000 OA
ATOM     24  H   UNL     1      46.296  -4.169   4.372  0.00  0.00    +0.000 HD
ATOM     25  H   UNL     1      45.474  -2.721   4.938  0.00  0.00    +0.000 HD
ENDBRANCH  15  22
ENDBRANCH  14  19
ENDBRANCH   1  14
TORSDOF 5
ENDMDL
MODEL 5
REMARK VINA RESULT:    -6.788      3.314      7.381
REMARK INTER + INTRA:          -9.681
REMARK INTER:                  -8.665
REMARK INTRA:                  -1.017
REMARK UNBOUND:                -0.910
REMARK  Name = 
REMARK  5 active torsions:
REMARK  status: ('A' for Active; 'I' for Inactive)
REMARK    1  A    between atoms: C_2  and  C_4
REMARK    2  A    between atoms: C_8  and  C_9
REMARK    3  A    between atoms: C_9  and  C_10
REMARK    4  A    between atoms: C_10  and  C_11
REMARK    5  A    between atoms: C_15  and  N_16
REMARK                            x       y       z     vdW  Elec       q    Type
REMARK                         _______ _______ _______ _____ _____    ______ ____
ROOT
ATOM      1  C   UNL     1      48.809   6.876  13.120  0.00  0.00    +0.000 C 
ENDROOT
BRANCH   1   2
ATOM      2  C   UNL     1      47.389   7.188  12.686  0.00  0.00    +0.000 A 
ATOM      3  C   UNL     1      47.007   8.528  12.552  0.00  0.00    +0.000 A 
ATOM      4  C   UNL     1      45.731   8.861  12.107  0.00  0.00    +0.000 A 
ATOM      5  C   UNL     1      44.823   7.854  11.778  0.00  0.00    +0.000 A 
ATOM      6  C   UNL     1      45.153   6.502  11.906  0.00  0.00    +0.000 A 
ATOM      7  C   UNL     1      46.431   6.194  12.410  0.00  0.00    +0.000 A 
BRANCH   6   8
ATOM      8  N   UNL     1      44.277   5.507  11.510  0.00  0.00    +0.000 N 
ATOM      9  C   UNL     1      43.235   5.010  12.409  0.00  0.00    +0.000 C 
ATOM     10  C   UNL     1      43.439   3.525  12.700  0.00  0.00    +0.000 C 
ATOM     11  C   UNL     1      43.613   2.723  11.411  0.00  0.00    +0.000 C 
ATOM     12  C   UNL     1      44.726   3.316  10.550  0.00  0.00    +0.000 C 
ATOM     13  C   UNL     1      44.466   4.793  10.249  0.00  0.00    +0.000 C 
ENDBRANCH   6   8
ENDBRANCH   1   2
BRANCH   1  14
ATOM     14  C   UNL     1      49.276   7.581  14.399  0.00  0.00    +0.000 C 
BRANCH  14  19
ATOM     15  C   UNL     1      48.146   4.889  16.657  0.00  0.00    +0.000 A 
ATOM     16  C   UNL     1      48.123   5.465  17.919  0.00  0.00    +0.000 A 
ATOM     17  C   UNL     1      48.477   6.805  18.031  0.00  0.00    +0.000 A 
ATOM     18  C   UNL     1      48.842   7.517  16.888  0.00  0.00    +0.000 A 
ATOM     19  C   UNL     1      48.849   6.864  15.655  0.00  0.00    +0.000 A 
ATOM     20  N   UNL     1      48.502   5.557  15.521  0.00  0.00    +0.000 NA
BRANCH  15  22
ATOM     21  N   UNL     1      46.996   2.923  17.490  0.00  0.00    +0.000 N 
ATOM     22  C   UNL     1      47.776   3.450  16.497  0.00  0.00    +0.000 C 
ATOM     23  O   UNL     1      48.132   2.774  15.537  0.00  0.00    +0.000 OA
ATOM     24  H   UNL     1      46.672   1.970  17.418  0.00  0.00    +0.000 HD
ATOM     25  H   UNL     1      46.656   3.530  18.231  0.00  0.00    +0.000 HD
ENDBRANCH  15  22
ENDBRANCH  14  19
ENDBRANCH   1  14
TORSDOF 5
ENDMDL
MODEL 6
REMARK VINA RESULT:    -6.760      3.968      7.758
REMARK INTER + INTRA:          -9.646
REMARK INTER:                  -8.728
REMARK INTRA:                  -0.918
REMARK UNBOUND:                -0.910
REMARK  Name = 
REMARK  5 active torsions:
REMARK  status: ('A' for Active; 'I' for Inactive)
REMARK    1  A    between atoms: C_2  and  C_4
REMARK    2  A    between atoms: C_8  and  C_9
REMARK    3  A    between atoms: C_9  and  C_10
REMARK    4  A    between atoms: C_10  and  C_11
REMARK    5  A    between atoms: C_15  and  N_16
REMARK                            x       y       z     vdW  Elec       q    Type
REMARK                         _______ _______ _______ _____ _____    ______ ____
ROOT
ATOM      1  C   UNL     1      49.493   6.778  14.966  0.00  0.00    +0.000 C 
ENDROOT
BRANCH   1   2
ATOM      2  C   UNL     1      48.492   6.726  13.826  0.00  0.00    +0.000 A 
ATOM      3  C   UNL     1      48.765   7.448  12.658  0.00  0.00    +0.000 A 
ATOM      4  C   UNL     1      47.902   7.388  11.569  0.00  0.00    +0.000 A 
ATOM      5  C   UNL     1      46.757   6.592  11.630  0.00  0.00    +0.000 A 
ATOM      6  C   UNL     1      46.436   5.861  12.777  0.00  0.00    +0.000 A 
ATOM      7  C   UNL     1      47.298   5.983  13.883  0.00  0.00    +0.000 A 
BRANCH   6   8
ATOM      8  N   UNL     1      45.342   5.015  12.808  0.00  0.00    +0.000 N 
ATOM      9  C   UNL     1      45.479   3.584  12.534  0.00  0.00    +0.000 C 
ATOM     10  C   UNL     1      44.665   3.192  11.302  0.00  0.00    +0.000 C 
ATOM     11  C   UNL     1      43.226   3.693  11.403  0.00  0.00    +0.000 C 
ATOM     12  C   UNL     1      43.191   5.194  11.682  0.00  0.00    +0.000 C 
ATOM     13  C   UNL     1      43.985   5.541  12.943  0.00  0.00    +0.000 C 
ENDBRANCH   6   8
ENDBRANCH   1   2
BRANCH   1  14
ATOM     14  C   UNL     1      48.903   7.107  16.343  0.00  0.00    +0.000 C 
BRANCH  14  19
ATOM     15  C   UNL     1      49.292   3.654  17.587  0.00  0.00    +0.000 A 
ATOM     16  C   UNL     1      48.811   3.686  18.888  0.00  0.00    +0.000 A 
ATOM     17  C   UNL     1      48.320   4.892  19.373  0.00  0.00    +0.000 A 
ATOM     18  C   UNL     1      48.328   6.018  18.550  0.00  0.00    +0.000 A 
ATOM     19  C   UNL     1      48.837   5.908  17.255  0.00  0.00    +0.000 A 
ATOM     20  N   UNL     1      49.316   4.738  16.758  0.00  0.00    +0.000 NA
BRANCH  15  22
ATOM     21  N   UNL     1      50.815   1.776  17.770  0.00  0.00    +0.000 N 
ATOM     22  C   UNL     1      49.831   2.376  17.032  0.00  0.00    +0.000 C 
ATOM     23  O   UNL     1      49.420   1.878  15.988  0.00  0.00    +0.000 OA
ATOM     24  H   UNL     1      51.189   0.887  17.473  0.00  0.00    +0.000 HD
ATOM     25  H   UNL     1      51.078   2.175  18.667  0.00  0.00    +0.000 HD
ENDBRANCH  15  22
ENDBRANCH  14  19
ENDBRANCH   1  14
TORSDOF 5
ENDMDL
MODEL 7
REMARK VINA RESULT:    -6.725      3.919      7.580
REMARK INTER + INTRA:          -9.600
REMARK INTER:                  -8.617
REMARK INTRA:                  -0.983
REMARK UNBOUND:                -0.910
REMARK  Name = 
REMARK  5 active torsions:
REMARK  status: ('A' for Active; 'I' for Inactive)
REMARK    1  A    between atoms: C_2  and  C_4
REMARK    2  A    between atoms: C_8  and  C_9
REMARK    3  A    between atoms: C_9  and  C_10
REMARK    4  A    between atoms: C_10  and  C_11
REMARK    5  A    between atoms: C_15  and  N_16
REMARK                            x       y       z     vdW  Elec       q    Type
REMARK                         _______ _______ _______ _____ _____    ______ ____
ROOT
ATOM      1  C   UNL     1      49.161   6.903  14.803  0.00  0.00    +0.000 C 
ENDROOT
BRANCH   1   2
ATOM      2  C   UNL     1      47.888   6.986  13.982  0.00  0.00    +0.000 A 
ATOM      3  C   UNL     1      47.293   8.238  13.789  0.00  0.00    +0.000 A 
ATOM      4  C   UNL     1      46.154   8.369  13.001  0.00  0.00    +0.000 A 
ATOM      5  C   UNL     1      45.601   7.246  12.384  0.00  0.00    +0.000 A 
ATOM      6  C   UNL     1      46.152   5.973  12.555  0.00  0.00    +0.000 A 
ATOM      7  C   UNL     1      47.271   5.861  13.401  0.00  0.00    +0.000 A 
BRANCH   6   8
ATOM      8  N   UNL     1      45.646   4.874  11.884  0.00  0.00    +0.000 N 
ATOM      9  C   UNL     1      45.103   4.995  10.530  0.00  0.00    +0.000 C 
ATOM     10  C   UNL     1      43.624   4.612  10.508  0.00  0.00    +0.000 C 
ATOM     11  C   UNL     1      43.390   3.259  11.177  0.00  0.00    +0.000 C 
ATOM     12  C   UNL     1      43.985   3.238  12.584  0.00  0.00    +0.000 C 
ATOM     13  C   UNL     1      45.473   3.590  12.559  0.00  0.00    +0.000 C 
ENDBRANCH   6   8
ENDBRANCH   1   2
BRANCH   1  14
ATOM     14  C   UNL     1      48.959   6.746  16.315  0.00  0.00    +0.000 C 
BRANCH  14  19
ATOM     15  C   UNL     1      49.603   3.243  17.284  0.00  0.00    +0.000 A 
ATOM     16  C   UNL     1      48.351   2.710  17.552  0.00  0.00    +0.000 A 
ATOM     17  C   UNL     1      47.242   3.532  17.390  0.00  0.00    +0.000 A 
ATOM     18  C   UNL     1      47.421   4.851  16.971  0.00  0.00    +0.000 A 
ATOM     19  C   UNL     1      48.715   5.317  16.730  0.00  0.00    +0.000 A 
ATOM     20  N   UNL     1      49.811   4.529  16.877  0.00  0.00    +0.000 NA
BRANCH  15  22
ATOM     21  N   UNL     1      51.795   2.901  18.263  0.00  0.00    +0.000 N 
ATOM     22  C   UNL     1      50.818   2.390  17.451  0.00  0.00    +0.000 C 
ATOM     23  O   UNL     1      50.943   1.295  16.912  0.00  0.00    +0.000 OA
ATOM     24  H   UNL     1      52.621   2.353  18.454  0.00  0.00    +0.000 HD
ATOM     25  H   UNL     1      51.628   3.774  18.755  0.00  0.00    +0.000 HD
ENDBRANCH  15  22
ENDBRANCH  14  19
ENDBRANCH   1  14
TORSDOF 5
ENDMDL
MODEL 8
REMARK VINA RESULT:    -6.621      2.666      5.082
REMARK INTER + INTRA:          -9.466
REMARK INTER:                  -8.535
REMARK INTRA:                  -0.932
REMARK UNBOUND:                -0.910
REMARK  Name = 
REMARK  5 active torsions:
REMARK  status: ('A' for Active; 'I' for Inactive)
REMARK    1  A    between atoms: C_2  and  C_4
REMARK    2  A    between atoms: C_8  and  C_9
REMARK    3  A    between atoms: C_9  and  C_10
REMARK    4  A    between atoms: C_10  and  C_11
REMARK    5  A    between atoms: C_15  and  N_16
REMARK                            x       y       z     vdW  Elec       q    Type
REMARK                         _______ _______ _______ _____ _____    ______ ____
ROOT
ATOM      1  C   UNL     1      47.026   6.831  11.689  0.00  0.00    +0.000 C 
ENDROOT
BRANCH   1   2
ATOM      2  C   UNL     1      47.904   6.821  12.927  0.00  0.00    +0.000 A 
ATOM      3  C   UNL     1      49.003   7.687  12.977  0.00  0.00    +0.000 A 
ATOM      4  C   UNL     1      49.805   7.751  14.112  0.00  0.00    +0.000 A 
ATOM      5  C   UNL     1      49.510   6.954  15.220  0.00  0.00    +0.000 A 
ATOM      6  C   UNL     1      48.429   6.067  15.214  0.00  0.00    +0.000 A 
ATOM      7  C   UNL     1      47.668   5.983  14.034  0.00  0.00    +0.000 A 
BRANCH   6   8
ATOM      8  N   UNL     1      48.094   5.334  16.339  0.00  0.00    +0.000 N 
ATOM      9  C   UNL     1      48.649   5.663  17.653  0.00  0.00    +0.000 C 
ATOM     10  C   UNL     1      49.477   4.498  18.193  0.00  0.00    +0.000 C 
ATOM     11  C   UNL     1      48.697   3.186  18.133  0.00  0.00    +0.000 C 
ATOM     12  C   UNL     1      48.169   2.932  16.723  0.00  0.00    +0.000 C 
ATOM     13  C   UNL     1      47.315   4.103  16.233  0.00  0.00    +0.000 C 
ENDBRANCH   6   8
ENDBRANCH   1   2
BRANCH   1  14
ATOM     14  C   UNL     1      45.519   6.935  11.954  0.00  0.00    +0.000 C 
BRANCH  14  19
ATOM     15  C   UNL     1      44.345   3.749  10.506  0.00  0.00    +0.000 A 
ATOM     16  C   UNL     1      43.585   3.160  11.505  0.00  0.00    +0.000 A 
ATOM     17  C   UNL     1      43.436   3.848  12.703  0.00  0.00    +0.000 A 
ATOM     18  C   UNL     1      44.049   5.091  12.862  0.00  0.00    +0.000 A 
ATOM     19  C   UNL     1      44.805   5.614  11.813  0.00  0.00    +0.000 A 
ATOM     20  N   UNL     1      44.960   4.962  10.631  0.00  0.00    +0.000 NA
BRANCH  15  22
ATOM     21  N   UNL     1      44.605   1.673   9.279  0.00  0.00    +0.000 N 
ATOM     22  C   UNL     1      44.532   3.038   9.205  0.00  0.00    +0.000 C 
ATOM     23  O   UNL     1      44.605   3.625   8.130  0.00  0.00    +0.000 OA
ATOM     24  H   UNL     1      44.683   1.132   8.432  0.00  0.00    +0.000 HD
ATOM     25  H   UNL     1      44.464   1.215  10.175  0.00  0.00    +0.000 HD
ENDBRANCH  15  22
ENDBRANCH  14  19
ENDBRANCH   1  14
TORSDOF 5
ENDMDL
MODEL 9
REMARK VINA RESULT:    -6.336      1.662      2.384
REMARK INTER + INTRA:          -9.098
REMARK INTER:                  -8.252
REMARK INTRA:                  -0.846
REMARK UNBOUND:                -0.910
REMARK  Name = 
REMARK  5 active torsions:
REMARK  status: ('A' for Active; 'I' for Inactive)
REMARK    1  A    between atoms: C_2  and  C_4
REMARK    2  A    between atoms: C_8  and  C_9
REMARK    3  A    between atoms: C_9  and  C_10
REMARK    4  A    between atoms: C_10  and  C_11
REMARK    5  A    between atoms: C_15  and  N_16
REMARK                            x       y       z     vdW  Elec       q    Type
REMARK                         _______ _______ _______ _____ _____    ______ ____
ROOT
ATOM      1  C   UNL     1      45.693   5.130   9.038  0.00  0.00    +0.000 C 
ENDROOT
BRANCH   1   2
ATOM      2  C   UNL     1      45.520   5.362  10.527  0.00  0.00    +0.000 A 
ATOM      3  C   UNL     1      44.563   4.609  11.217  0.00  0.00    +0.000 A 
ATOM      4  C   UNL     1      44.405   4.751  12.592  0.00  0.00    +0.000 A 
ATOM      5  C   UNL     1      45.214   5.643  13.298  0.00  0.00    +0.000 A 
ATOM      6  C   UNL     1      46.176   6.424  12.653  0.00  0.00    +0.000 A 
ATOM      7  C   UNL     1      46.277   6.300  11.254  0.00  0.00    +0.000 A 
BRANCH   6   8
ATOM      8  N   UNL     1      47.027   7.252  13.364  0.00  0.00    +0.000 N 
ATOM      9  C   UNL     1      46.843   8.704  13.372  0.00  0.00    +0.000 C 
ATOM     10  C   UNL     1      48.060   9.402  12.769  0.00  0.00    +0.000 C 
ATOM     11  C   UNL     1      49.358   8.914  13.411  0.00  0.00    +0.000 C 
ATOM     12  C   UNL     1      49.456   7.391  13.345  0.00  0.00    +0.000 C 
ATOM     13  C   UNL     1      48.239   6.729  13.991  0.00  0.00    +0.000 C 
ENDBRANCH   6   8
ENDBRANCH   1   2
BRANCH   1  14
ATOM     14  C   UNL     1      44.764   4.075   8.425  0.00  0.00    +0.000 C 
BRANCH  14  19
ATOM     15  C   UNL     1      46.860   1.812   6.397  0.00  0.00    +0.000 A 
ATOM     16  C   UNL     1      46.918   0.631   7.123  0.00  0.00    +0.000 A 
ATOM     17  C   UNL     1      46.223   0.569   8.324  0.00  0.00    +0.000 A 
ATOM     18  C   UNL     1      45.500   1.681   8.759  0.00  0.00    +0.000 A 
ATOM     19  C   UNL     1      45.497   2.836   7.976  0.00  0.00    +0.000 A 
ATOM     20  N   UNL     1      46.165   2.918   6.796  0.00  0.00    +0.000 NA
BRANCH  15  22
ATOM     21  N   UNL     1      48.305   3.075   4.915  0.00  0.00    +0.000 N 
ATOM     22  C   UNL     1      47.598   1.919   5.102  0.00  0.00    +0.000 C 
ATOM     23  O   UNL     1      47.589   1.030   4.256  0.00  0.00    +0.000 OA
ATOM     24  H   UNL     1      48.863   3.189   4.082  0.00  0.00    +0.000 HD
ATOM     25  H   UNL     1      48.354   3.756   5.668  0.00  0.00    +0.000 HD
ENDBRANCH  15  22
ENDBRANCH  14  19
ENDBRANCH   1  14
TORSDOF 5
ENDMDL
