MODEL 1
REMARK VINA RESULT:    -7.894      0.000      0.000
REMARK INTER + INTRA:         -11.855
REMARK INTER:                 -11.125
REMARK INTRA:                  -0.731
REMARK UNBOUND:                -0.731
REMARK  Name = 
REMARK  7 active torsions:
REMARK  status: ('A' for Active; 'I' for Inactive)
REMARK    1  A    between atoms: C_2  and  C_4
REMARK    2  A    between atoms: C_7  and  N_8
REMARK    3  A    between atoms: N_8  and  C_9
REMARK    4  A    between atoms: C_9  and  C_10
REMARK    5  A    between atoms: C_10  and  C_11
REMARK    6  A    between atoms: C_15  and  N_16
REMARK    7  A    between atoms: N_16  and  C_17
REMARK                            x       y       z     vdW  Elec       q    Type
REMARK                         _______ _______ _______ _____ _____    ______ ____
ROOT
ATOM      1  C   UNL     1      43.422   4.652  10.885  0.00  0.00    +0.000 C 
ENDROOT
BRANCH   1   2
ATOM      2  N   UNL     1      43.937   4.999   9.556  0.00  0.00    +0.000 N 
ATOM      3  H   UNL     1      44.454   5.875   9.561  0.00  0.00    +0.000 HD
BRANCH   2   7
ATOM      4  C   UNL     1      46.234   1.987   7.951  0.00  0.00    +0.000 A 
ATOM      5  C   UNL     1      46.324   3.280   7.461  0.00  0.00    +0.000 A 
ATOM      6  N   UNL     1      45.573   4.301   7.954  0.00  0.00    +0.000 NA
ATOM      7  C   UNL     1      44.721   3.999   8.956  0.00  0.00    +0.000 A 
ATOM      8  C   UNL     1      44.647   2.684   9.437  0.00  0.00    +0.000 A 
ATOM      9  N   UNL     1      45.381   1.645   8.954  0.00  0.00    +0.000 NA
BRANCH   4  11
ATOM     10  N   UNL     1      47.998   1.326   6.434  0.00  0.00    +0.000 N 
ATOM     11  C   UNL     1      47.101   0.918   7.386  0.00  0.00    +0.000 C 
ATOM     12  O   UNL     1      47.019  -0.250   7.739  0.00  0.00    +0.000 OA
ATOM     13  H   UNL     1      48.598   0.646   5.990  0.00  0.00    +0.000 HD
ATOM     14  H   UNL     1      48.028   2.299   6.151  0.00  0.00    +0.000 HD
ENDBRANCH   4  11
ENDBRANCH   2   7
ENDBRANCH   1   2
BRANCH   1  15
ATOM     15  C   UNL     1      43.663   5.819  11.849  0.00  0.00    +0.000 C 
BRANCH  15  16
ATOM     16  C   UNL     1      45.042   5.784  12.459  0.00  0.00    +0.000 A 
ATOM     17  C   UNL     1      46.055   6.619  11.982  0.00  0.00    +0.000 A 
ATOM     18  C   UNL     1      47.334   6.562  12.536  0.00  0.00    +0.000 A 
ATOM     19  C   UNL     1      47.615   5.666  13.571  0.00  0.00    +0.000 A 
ATOM     20  C   UNL     1      46.613   4.835  14.075  0.00  0.00    +0.000 A 
ATOM     21  C   UNL     1      45.328   4.911  13.520  0.00  0.00    +0.000 A 
BRANCH  20  22
ATOM     22  N   UNL     1      46.830   3.919  15.127  0.00  0.00    +0.000 N 
ATOM     23  H   UNL     1      45.930   3.608  15.489  0.00  0.00    +0.000 HD
BRANCH  22  24
ATOM     24  C   UNL     1      47.821   4.047  16.155  0.00  0.00    +0.000 C 
ATOM     25  C   UNL     1      48.395   2.680  16.590  0.00  0.00    +0.000 C 
ATOM     26  C   UNL     1      48.103   3.055  18.051  0.00  0.00    +0.000 C 
ATOM     27  C   UNL     1      47.165   4.163  17.548  0.00  0.00    +0.000 C 
ENDBRANCH  22  24
ENDBRANCH  20  22
ENDBRANCH  15  16
ENDBRANCH   1  15
TORSDOF 7
ENDMDL
MODEL 2
REMARK VINA RESULT:    -7.266      2.022      3.625
REMARK INTER + INTRA:         -10.970
REMARK INTER:                 -10.132
REMARK INTRA:                  -0.838
REMARK UNBOUND:                -0.731
REMARK  Name = 
REMARK  7 active torsions:
REMARK  status: ('A' for Active; 'I' for Inactive)
REMARK    1  A    between atoms: C_2  and  C_4
REMARK    2  A    between atoms: C_7  and  N_8
REMARK    3  A    between atoms: N_8  and  C_9
REMARK    4  A    between atoms: C_9  and  C_10
REMARK    5  A    between atoms: C_10  and  C_11
REMARK    6  A    between atoms: C_15  and  N_16
REMARK    7  A    between atoms: N_16  and  C_17
REMARK                            x       y       z     vdW  Elec       q    Type
REMARK                         _______ _______ _______ _____ _____    ______ ____
ROOT
ATOM      1  C   UNL     1      43.341   3.932  11.030  0.00  0.00    +0.000 C 
ENDROOT
BRANCH   1   2
ATOM      2  N   UNL     1      43.881   4.699   9.901  0.00  0.00    +0.000 N 
ATOM      3  H   UNL     1      44.327   5.562  10.202  0.00  0.00    +0.000 HD
BRANCH   2   7
ATOM      4  C   UNL     1      46.499   2.483   7.629  0.00  0.00    +0.000 A 
ATOM      5  C   UNL     1      46.363   3.846   7.420  0.00  0.00    +0.000 A 
ATOM      6  N   UNL     1      45.500   4.612   8.139  0.00  0.00    +0.000 NA
ATOM      7  C   UNL     1      44.767   3.981   9.080  0.00  0.00    +0.000 A 
ATOM      8  C   UNL     1      44.922   2.600   9.275  0.00  0.00    +0.000 A 
ATOM      9  N   UNL     1      45.772   1.813   8.562  0.00  0.00    +0.000 NA
BRANCH   4  11
ATOM     10  N   UNL     1      48.592   2.393   6.419  0.00  0.00    +0.000 N 
ATOM     11  C   UNL     1      47.479   1.705   6.824  0.00  0.00    +0.000 C 
ATOM     12  O   UNL     1      47.305   0.528   6.536  0.00  0.00    +0.000 OA
ATOM     13  H   UNL     1      49.284   1.930   5.848  0.00  0.00    +0.000 HD
ATOM     14  H   UNL     1      48.697   3.372   6.661  0.00  0.00    +0.000 HD
ENDBRANCH   4  11
ENDBRANCH   2   7
ENDBRANCH   1   2
BRANCH   1  15
ATOM     15  C   UNL     1      43.365   4.796  12.296  0.00  0.00    +0.000 C 
BRANCH  15  16
ATOM     16  C   UNL     1      44.768   5.137  12.731  0.00  0.00    +0.000 A 
ATOM     17  C   UNL     1      45.620   4.149  13.232  0.00  0.00    +0.000 A 
ATOM     18  C   UNL     1      46.907   4.478  13.655  0.00  0.00    +0.000 A 
ATOM     19  C   UNL     1      47.356   5.800  13.586  0.00  0.00    +0.000 A 
ATOM     20  C   UNL     1      46.529   6.799  13.072  0.00  0.00    +0.000 A 
ATOM     21  C   UNL     1      45.241   6.455  12.636  0.00  0.00    +0.000 A 
BRANCH  20  22
ATOM     22  N   UNL     1      46.928   8.149  12.963  0.00  0.00    +0.000 N 
ATOM     23  H   UNL     1      46.341   8.616  12.274  0.00  0.00    +0.000 HD
BRANCH  22  24
ATOM     24  C   UNL     1      48.281   8.620  12.941  0.00  0.00    +0.000 C 
ATOM     25  C   UNL     1      48.370  10.137  12.658  0.00  0.00    +0.000 C 
ATOM     26  C   UNL     1      49.387   9.840  11.545  0.00  0.00    +0.000 C 
ATOM     27  C   UNL     1      48.935   8.371  11.565  0.00  0.00    +0.000 C 
ENDBRANCH  22  24
ENDBRANCH  20  22
ENDBRANCH  15  16
ENDBRANCH   1  15
TORSDOF 7
ENDMDL
MODEL 3
REMARK VINA RESULT:    -7.028      3.110      5.049
REMARK INTER + INTRA:         -10.635
REMARK INTER:                 -10.066
REMARK INTRA:                  -0.569
REMARK UNBOUND:                -0.731
REMARK  Name = 
REMARK  7 active torsions:
REMARK  status: ('A' for Active; 'I' for Inactive)
REMARK    1  A    between atoms: C_2  and  C_4
REMARK    2  A    between atoms: C_7  and  N_8
REMARK    3  A    between atoms: N_8  and  C_9
REMARK    4  A    between atoms: C_9  and  C_10
REMARK    5  A    between atoms: C_10  and  C_11
REMARK    6  A    between atoms: C_15  and  N_16
REMARK    7  A    between atoms: N_16  and  C_17
REMARK                            x       y       z     vdW  Elec       q    Type
REMARK                         _______ _______ _______ _____ _____    ______ ____
ROOT
ATOM      1  C   UNL     1      44.015   4.933  10.856  0.00  0.00    +0.000 C 
ENDROOT
BRANCH   1   2
ATOM      2  N   UNL     1      43.912   3.558  10.353  0.00  0.00    +0.000 N 
ATOM      3  H   UNL     1      42.967   3.328  10.055  0.00  0.00    +0.000 HD
BRANCH   2   7
ATOM      4  C   UNL     1      46.477   2.768   7.236  0.00  0.00    +0.000 A 
ATOM      5  C   UNL     1      46.130   1.771   8.133  0.00  0.00    +0.000 A 
ATOM      6  N   UNL     1      45.296   1.993   9.184  0.00  0.00    +0.000 NA
ATOM      7  C   UNL     1      44.814   3.246   9.322  0.00  0.00    +0.000 A 
ATOM      8  C   UNL     1      45.179   4.240   8.402  0.00  0.00    +0.000 A 
ATOM      9  N   UNL     1      46.017   4.043   7.348  0.00  0.00    +0.000 NA
BRANCH   4  11
ATOM     10  N   UNL     1      48.717   2.570   6.343  0.00  0.00    +0.000 N 
ATOM     11  C   UNL     1      47.375   2.455   6.091  0.00  0.00    +0.000 C 
ATOM     12  O   UNL     1      46.949   2.124   4.993  0.00  0.00    +0.000 OA
ATOM     13  H   UNL     1      49.380   2.397   5.602  0.00  0.00    +0.000 HD
ATOM     14  H   UNL     1      49.036   2.864   7.259  0.00  0.00    +0.000 HD
ENDBRANCH   4  11
ENDBRANCH   2   7
ENDBRANCH   1   2
BRANCH   1  15
ATOM     15  C   UNL     1      45.136   5.016  11.897  0.00  0.00    +0.000 C 
BRANCH  15  16
ATOM     16  C   UNL     1      45.723   6.401  11.998  0.00  0.00    +0.000 A 
ATOM     17  C   UNL     1      47.098   6.607  11.854  0.00  0.00    +0.000 A 
ATOM     18  C   UNL     1      47.634   7.888  11.973  0.00  0.00    +0.000 A 
ATOM     19  C   UNL     1      46.803   8.979  12.243  0.00  0.00    +0.000 A 
ATOM     20  C   UNL     1      45.425   8.800  12.372  0.00  0.00    +0.000 A 
ATOM     21  C   UNL     1      44.895   7.508  12.236  0.00  0.00    +0.000 A 
BRANCH  20  22
ATOM     22  N   UNL     1      44.532   9.862  12.631  0.00  0.00    +0.000 N 
ATOM     23  H   UNL     1      43.952   9.621  13.434  0.00  0.00    +0.000 HD
BRANCH  22  24
ATOM     24  C   UNL     1      43.815  10.610  11.641  0.00  0.00    +0.000 C 
ATOM     25  C   UNL     1      43.150   9.699  10.584  0.00  0.00    +0.000 C 
ATOM     26  C   UNL     1      43.801  10.551   9.483  0.00  0.00    +0.000 C 
ATOM     27  C   UNL     1      44.763  11.123  10.536  0.00  0.00    +0.000 C 
ENDBRANCH  22  24
ENDBRANCH  20  22
ENDBRANCH  15  16
ENDBRANCH   1  15
TORSDOF 7
ENDMDL
MODEL 4
REMARK VINA RESULT:    -6.967      3.365      8.124
REMARK INTER + INTRA:         -10.549
REMARK INTER:                  -9.944
REMARK INTRA:                  -0.606
REMARK UNBOUND:                -0.731
REMARK  Name = 
REMARK  7 active torsions:
REMARK  status: ('A' for Active; 'I' for Inactive)
REMARK    1  A    between atoms: C_2  and  C_4
REMARK    2  A    between atoms: C_7  and  N_8
REMARK    3  A    between atoms: N_8  and  C_9
REMARK    4  A    between atoms: C_9  and  C_10
REMARK    5  A    between atoms: C_10  and  C_11
REMARK    6  A    between atoms: C_15  and  N_16
REMARK    7  A    between atoms: N_16  and  C_17
REMARK                            x       y       z     vdW  Elec       q    Type
REMARK                         _______ _______ _______ _____ _____    ______ ____
ROOT
ATOM      1  C   UNL     1      46.807   4.154  14.761  0.00  0.00    +0.000 C 
ENDROOT
BRANCH   1   2
ATOM      2  N   UNL     1      47.363   4.618  16.037  0.00  0.00    +0.000 N 
ATOM      3  H   UNL     1      46.656   4.675  16.766  0.00  0.00    +0.000 HD
BRANCH   2   7
ATOM      4  C   UNL     1      50.652   2.554  17.398  0.00  0.00    +0.000 A 
ATOM      5  C   UNL     1      49.656   1.904  16.688  0.00  0.00    +0.000 A 
ATOM      6  N   UNL     1      48.547   2.545  16.232  0.00  0.00    +0.000 NA
ATOM      7  C   UNL     1      48.453   3.864  16.506  0.00  0.00    +0.000 A 
ATOM      8  C   UNL     1      49.474   4.502  17.225  0.00  0.00    +0.000 A 
ATOM      9  N   UNL     1      50.587   3.880  17.698  0.00  0.00    +0.000 NA
BRANCH   4  11
ATOM     10  N   UNL     1      51.673   0.456  18.032  0.00  0.00    +0.000 N 
ATOM     11  C   UNL     1      51.853   1.801  17.848  0.00  0.00    +0.000 C 
ATOM     12  O   UNL     1      52.932   2.343  18.049  0.00  0.00    +0.000 OA
ATOM     13  H   UNL     1      52.442  -0.110  18.362  0.00  0.00    +0.000 HD
ATOM     14  H   UNL     1      50.762   0.041  17.874  0.00  0.00    +0.000 HD
ENDBRANCH   4  11
ENDBRANCH   2   7
ENDBRANCH   1   2
BRANCH   1  15
ATOM     15  C   UNL     1      46.399   5.361  13.910  0.00  0.00    +0.000 C 
BRANCH  15  16
ATOM     16  C   UNL     1      45.284   5.035  12.949  0.00  0.00    +0.000 A 
ATOM     17  C   UNL     1      44.114   5.799  12.926  0.00  0.00    +0.000 A 
ATOM     18  C   UNL     1      43.079   5.475  12.050  0.00  0.00    +0.000 A 
ATOM     19  C   UNL     1      43.199   4.380  11.190  0.00  0.00    +0.000 A 
ATOM     20  C   UNL     1      44.365   3.614  11.183  0.00  0.00    +0.000 A 
ATOM     21  C   UNL     1      45.406   3.958  12.058  0.00  0.00    +0.000 A 
BRANCH  20  22
ATOM     22  N   UNL     1      44.553   2.506  10.330  0.00  0.00    +0.000 N 
ATOM     23  H   UNL     1      45.249   1.884  10.739  0.00  0.00    +0.000 HD
BRANCH  22  24
ATOM     24  C   UNL     1      44.638   2.557   8.900  0.00  0.00    +0.000 C 
ATOM     25  C   UNL     1      45.858   1.780   8.356  0.00  0.00    +0.000 C 
ATOM     26  C   UNL     1      46.249   3.023   7.541  0.00  0.00    +0.000 C 
ATOM     27  C   UNL     1      45.316   3.862   8.429  0.00  0.00    +0.000 C 
ENDBRANCH  22  24
ENDBRANCH  20  22
ENDBRANCH  15  16
ENDBRANCH   1  15
TORSDOF 7
ENDMDL
MODEL 5
REMARK VINA RESULT:    -6.896      3.431      8.474
REMARK INTER + INTRA:         -10.449
REMARK INTER:                  -9.748
REMARK INTRA:                  -0.702
REMARK UNBOUND:                -0.731
REMARK  Name = 
REMARK  7 active torsions:
REMARK  status: ('A' for Active; 'I' for Inactive)
REMARK    1  A    between atoms: C_2  and  C_4
REMARK    2  A    between atoms: C_7  and  N_8
REMARK    3  A    between atoms: N_8  and  C_9
REMARK    4  A    between atoms: C_9  and  C_10
REMARK    5  A    between atoms: C_10  and  C_11
REMARK    6  A    between atoms: C_15  and  N_16
REMARK    7  A    between atoms: N_16  and  C_17
REMARK                            x       y       z     vdW  Elec       q    Type
REMARK                         _______ _______ _______ _____ _____    ______ ____
ROOT
ATOM      1  C   UNL     1      47.228   5.040  13.749  0.00  0.00    +0.000 C 
ENDROOT
BRANCH   1   2
ATOM      2  N   UNL     1      46.687   4.409  14.959  0.00  0.00    +0.000 N 
ATOM      3  H   UNL     1      46.429   3.438  14.802  0.00  0.00    +0.000 HD
BRANCH   2   7
ATOM      4  C   UNL     1      49.006   4.608  18.351  0.00  0.00    +0.000 A 
ATOM      5  C   UNL     1      49.295   5.401  17.252  0.00  0.00    +0.000 A 
ATOM      6  N   UNL     1      48.562   5.357  16.107  0.00  0.00    +0.000 NA
ATOM      7  C   UNL     1      47.526   4.492  16.083  0.00  0.00    +0.000 A 
ATOM      8  C   UNL     1      47.251   3.700  17.208  0.00  0.00    +0.000 A 
ATOM      9  N   UNL     1      47.975   3.722  18.360  0.00  0.00    +0.000 NA
BRANCH   4  11
ATOM     10  N   UNL     1      49.263   4.220  20.725  0.00  0.00    +0.000 N 
ATOM     11  C   UNL     1      49.832   4.722  19.584  0.00  0.00    +0.000 C 
ATOM     12  O   UNL     1      50.942   5.235  19.586  0.00  0.00    +0.000 OA
ATOM     13  H   UNL     1      49.760   4.289  21.601  0.00  0.00    +0.000 HD
ATOM     14  H   UNL     1      48.334   3.818  20.692  0.00  0.00    +0.000 HD
ENDBRANCH   4  11
ENDBRANCH   2   7
ENDBRANCH   1   2
BRANCH   1  15
ATOM     15  C   UNL     1      46.283   6.154  13.285  0.00  0.00    +0.000 C 
BRANCH  15  16
ATOM     16  C   UNL     1      45.176   5.637  12.402  0.00  0.00    +0.000 A 
ATOM     17  C   UNL     1      43.900   5.402  12.921  0.00  0.00    +0.000 A 
ATOM     18  C   UNL     1      42.889   4.900  12.102  0.00  0.00    +0.000 A 
ATOM     19  C   UNL     1      43.143   4.623  10.756  0.00  0.00    +0.000 A 
ATOM     20  C   UNL     1      44.405   4.867  10.212  0.00  0.00    +0.000 A 
ATOM     21  C   UNL     1      45.411   5.385  11.042  0.00  0.00    +0.000 A 
BRANCH  20  22
ATOM     22  N   UNL     1      44.721   4.620   8.859  0.00  0.00    +0.000 N 
ATOM     23  H   UNL     1      44.284   5.335   8.280  0.00  0.00    +0.000 HD
BRANCH  22  24
ATOM     24  C   UNL     1      44.739   3.335   8.226  0.00  0.00    +0.000 C 
ATOM     25  C   UNL     1      45.237   2.221   9.173  0.00  0.00    +0.000 C 
ATOM     26  C   UNL     1      46.237   1.787   8.090  0.00  0.00    +0.000 C 
ATOM     27  C   UNL     1      46.026   3.141   7.395  0.00  0.00    +0.000 C 
ENDBRANCH  22  24
ENDBRANCH  20  22
ENDBRANCH  15  16
ENDBRANCH   1  15
TORSDOF 7
ENDMDL
MODEL 6
REMARK VINA RESULT:    -6.859      2.725      7.955
REMARK INTER + INTRA:         -10.397
REMARK INTER:                  -9.676
REMARK INTRA:                  -0.720
REMARK UNBOUND:                -0.731
REMARK  Name = 
REMARK  7 active torsions:
REMARK  status: ('A' for Active; 'I' for Inactive)
REMARK    1  A    between atoms: C_2  and  C_4
REMARK    2  A    between atoms: C_7  and  N_8
REMARK    3  A    between atoms: N_8  and  C_9
REMARK    4  A    between atoms: C_9  and  C_10
REMARK    5  A    between atoms: C_10  and  C_11
REMARK    6  A    between atoms: C_15  and  N_16
REMARK    7  A    between atoms: N_16  and  C_17
REMARK                            x       y       z     vdW  Elec       q    Type
REMARK                         _______ _______ _______ _____ _____    ______ ____
ROOT
ATOM      1  C   UNL     1      45.754   6.639  12.657  0.00  0.00    +0.000 C 
ENDROOT
BRANCH   1   2
ATOM      2  N   UNL     1      47.151   6.696  13.105  0.00  0.00    +0.000 N 
ATOM      3  H   UNL     1      47.459   7.649  13.278  0.00  0.00    +0.000 HD
BRANCH   2   7
ATOM      4  C   UNL     1      48.144   4.436  16.395  0.00  0.00    +0.000 A 
ATOM      5  C   UNL     1      47.162   4.008  15.517  0.00  0.00    +0.000 A 
ATOM      6  N   UNL     1      46.794   4.731  14.425  0.00  0.00    +0.000 NA
ATOM      7  C   UNL     1      47.434   5.903  14.229  0.00  0.00    +0.000 A 
ATOM      8  C   UNL     1      48.426   6.316  15.132  0.00  0.00    +0.000 A 
ATOM      9  N   UNL     1      48.804   5.614  16.234  0.00  0.00    +0.000 NA
BRANCH   4  11
ATOM     10  N   UNL     1      47.969   3.953  18.759  0.00  0.00    +0.000 N 
ATOM     11  C   UNL     1      48.518   3.587  17.559  0.00  0.00    +0.000 C 
ATOM     12  O   UNL     1      49.270   2.627  17.457  0.00  0.00    +0.000 OA
ATOM     13  H   UNL     1      48.203   3.434  19.593  0.00  0.00    +0.000 HD
ATOM     14  H   UNL     1      47.363   4.764  18.812  0.00  0.00    +0.000 HD
ENDBRANCH   4  11
ENDBRANCH   2   7
ENDBRANCH   1   2
BRANCH   1  15
ATOM     15  C   UNL     1      45.706   6.639  11.125  0.00  0.00    +0.000 C 
BRANCH  15  16
ATOM     16  C   UNL     1      45.274   5.308  10.565  0.00  0.00    +0.000 A 
ATOM     17  C   UNL     1      44.569   4.396  11.355  0.00  0.00    +0.000 A 
ATOM     18  C   UNL     1      44.195   3.157  10.836  0.00  0.00    +0.000 A 
ATOM     19  C   UNL     1      44.526   2.813   9.522  0.00  0.00    +0.000 A 
ATOM     20  C   UNL     1      45.214   3.715   8.710  0.00  0.00    +0.000 A 
ATOM     21  C   UNL     1      45.573   4.964   9.238  0.00  0.00    +0.000 A 
BRANCH  20  22
ATOM     22  N   UNL     1      45.566   3.433   7.372  0.00  0.00    +0.000 N 
ATOM     23  H   UNL     1      44.831   2.870   6.946  0.00  0.00    +0.000 HD
BRANCH  22  24
ATOM     24  C   UNL     1      46.873   3.070   6.911  0.00  0.00    +0.000 C 
ATOM     25  C   UNL     1      46.881   2.683   5.415  0.00  0.00    +0.000 C 
ATOM     26  C   UNL     1      47.615   1.385   5.785  0.00  0.00    +0.000 C 
ATOM     27  C   UNL     1      47.192   1.597   7.247  0.00  0.00    +0.000 C 
ENDBRANCH  22  24
ENDBRANCH  20  22
ENDBRANCH  15  16
ENDBRANCH   1  15
TORSDOF 7
ENDMDL
MODEL 7
REMARK VINA RESULT:    -6.550      2.787      3.623
REMARK INTER + INTRA:          -9.960
REMARK INTER:                  -9.239
REMARK INTRA:                  -0.721
REMARK UNBOUND:                -0.731
REMARK  Name = 
REMARK  7 active torsions:
REMARK  status: ('A' for Active; 'I' for Inactive)
REMARK    1  A    between atoms: C_2  and  C_4
REMARK    2  A    between atoms: C_7  and  N_8
REMARK    3  A    between atoms: N_8  and  C_9
REMARK    4  A    between atoms: C_9  and  C_10
REMARK    5  A    between atoms: C_10  and  C_11
REMARK    6  A    between atoms: C_15  and  N_16
REMARK    7  A    between atoms: N_16  and  C_17
REMARK                            x       y       z     vdW  Elec       q    Type
REMARK                         _______ _______ _______ _____ _____    ______ ____
ROOT
ATOM      1  C   UNL     1      43.515   4.733  10.866  0.00  0.00    +0.000 C 
ENDROOT
BRANCH   1   2
ATOM      2  N   UNL     1      43.835   3.330  10.582  0.00  0.00    +0.000 N 
ATOM      3  H   UNL     1      43.001   2.771  10.423  0.00  0.00    +0.000 HD
BRANCH   2   7
ATOM      4  C   UNL     1      46.391   2.920   7.385  0.00  0.00    +0.000 A 
ATOM      5  C   UNL     1      45.978   1.810   8.103  0.00  0.00    +0.000 A 
ATOM      6  N   UNL     1      45.145   1.903   9.174  0.00  0.00    +0.000 NA
ATOM      7  C   UNL     1      44.731   3.141   9.516  0.00  0.00    +0.000 A 
ATOM      8  C   UNL     1      45.162   4.251   8.774  0.00  0.00    +0.000 A 
ATOM      9  N   UNL     1      46.001   4.183   7.705  0.00  0.00    +0.000 NA
BRANCH   4  11
ATOM     10  N   UNL     1      48.614   2.589   6.491  0.00  0.00    +0.000 N 
ATOM     11  C   UNL     1      47.285   2.750   6.207  0.00  0.00    +0.000 C 
ATOM     12  O   UNL     1      46.865   2.758   5.057  0.00  0.00    +0.000 OA
ATOM     13  H   UNL     1      49.278   2.494   5.736  0.00  0.00    +0.000 HD
ATOM     14  H   UNL     1      48.931   2.604   7.454  0.00  0.00    +0.000 HD
ENDBRANCH   4  11
ENDBRANCH   2   7
ENDBRANCH   1   2
BRANCH   1  15
ATOM     15  C   UNL     1      44.004   5.096  12.273  0.00  0.00    +0.000 C 
BRANCH  15  16
ATOM     16  C   UNL     1      44.801   6.376  12.290  0.00  0.00    +0.000 A 
ATOM     17  C   UNL     1      44.329   7.520  11.642  0.00  0.00    +0.000 A 
ATOM     18  C   UNL     1      45.085   8.692  11.643  0.00  0.00    +0.000 A 
ATOM     19  C   UNL     1      46.324   8.732  12.288  0.00  0.00    +0.000 A 
ATOM     20  C   UNL     1      46.807   7.607  12.958  0.00  0.00    +0.000 A 
ATOM     21  C   UNL     1      46.032   6.438  12.962  0.00  0.00    +0.000 A 
BRANCH  20  22
ATOM     22  N   UNL     1      48.043   7.587  13.639  0.00  0.00    +0.000 N 
ATOM     23  H   UNL     1      48.108   8.413  14.233  0.00  0.00    +0.000 HD
BRANCH  22  24
ATOM     24  C   UNL     1      49.305   7.220  13.069  0.00  0.00    +0.000 C 
ATOM     25  C   UNL     1      50.381   8.310  13.272  0.00  0.00    +0.000 C 
ATOM     26  C   UNL     1      50.683   8.252  11.767  0.00  0.00    +0.000 C 
ATOM     27  C   UNL     1      49.344   7.528  11.556  0.00  0.00    +0.000 C 
ENDBRANCH  22  24
ENDBRANCH  20  22
ENDBRANCH  15  16
ENDBRANCH   1  15
TORSDOF 7
ENDMDL
MODEL 8
REMARK VINA RESULT:    -6.440      3.436      8.287
REMARK INTER + INTRA:          -9.806
REMARK INTER:                  -9.176
REMARK INTRA:                  -0.630
REMARK UNBOUND:                -0.731
REMARK  Name = 
REMARK  7 active torsions:
REMARK  status: ('A' for Active; 'I' for Inactive)
REMARK    1  A    between atoms: C_2  and  C_4
REMARK    2  A    between atoms: C_7  and  N_8
REMARK    3  A    between atoms: N_8  and  C_9
REMARK    4  A    between atoms: C_9  and  C_10
REMARK    5  A    between atoms: C_10  and  C_11
REMARK    6  A    between atoms: C_15  and  N_16
REMARK    7  A    between atoms: N_16  and  C_17
REMARK                            x       y       z     vdW  Elec       q    Type
REMARK                         _______ _______ _______ _____ _____    ______ ____
ROOT
ATOM      1  C   UNL     1      47.754   6.259  13.002  0.00  0.00    +0.000 C 
ENDROOT
BRANCH   1   2
ATOM      2  N   UNL     1      48.622   6.853  14.026  0.00  0.00    +0.000 N 
ATOM      3  H   UNL     1      48.478   7.856  14.116  0.00  0.00    +0.000 HD
BRANCH   2   7
ATOM      4  C   UNL     1      48.458   5.202  17.790  0.00  0.00    +0.000 A 
ATOM      5  C   UNL     1      48.120   4.452  16.676  0.00  0.00    +0.000 A 
ATOM      6  N   UNL     1      48.148   4.962  15.416  0.00  0.00    +0.000 NA
ATOM      7  C   UNL     1      48.522   6.253  15.292  0.00  0.00    +0.000 A 
ATOM      8  C   UNL     1      48.861   6.994  16.434  0.00  0.00    +0.000 A 
ATOM      9  N   UNL     1      48.833   6.507  17.704  0.00  0.00    +0.000 NA
BRANCH   4  11
ATOM     10  N   UNL     1      48.426   3.208  19.159  0.00  0.00    +0.000 N 
ATOM     11  C   UNL     1      48.431   4.577  19.140  0.00  0.00    +0.000 C 
ATOM     12  O   UNL     1      48.408   5.238  20.170  0.00  0.00    +0.000 OA
ATOM     13  H   UNL     1      48.382   2.721  20.042  0.00  0.00    +0.000 HD
ATOM     14  H   UNL     1      48.428   2.690  18.287  0.00  0.00    +0.000 HD
ENDBRANCH   4  11
ENDBRANCH   2   7
ENDBRANCH   1   2
BRANCH   1  15
ATOM     15  C   UNL     1      46.362   6.898  13.075  0.00  0.00    +0.000 C 
BRANCH  15  16
ATOM     16  C   UNL     1      45.347   6.158  12.242  0.00  0.00    +0.000 A 
ATOM     17  C   UNL     1      44.106   5.804  12.777  0.00  0.00    +0.000 A 
ATOM     18  C   UNL     1      43.183   5.098  12.007  0.00  0.00    +0.000 A 
ATOM     19  C   UNL     1      43.491   4.734  10.693  0.00  0.00    +0.000 A 
ATOM     20  C   UNL     1      44.718   5.093  10.132  0.00  0.00    +0.000 A 
ATOM     21  C   UNL     1      45.633   5.815  10.912  0.00  0.00    +0.000 A 
BRANCH  20  22
ATOM     22  N   UNL     1      45.083   4.767   8.809  0.00  0.00    +0.000 N 
ATOM     23  H   UNL     1      44.791   5.520   8.187  0.00  0.00    +0.000 HD
BRANCH  22  24
ATOM     24  C   UNL     1      44.959   3.475   8.202  0.00  0.00    +0.000 C 
ATOM     25  C   UNL     1      45.449   2.341   9.130  0.00  0.00    +0.000 C 
ATOM     26  C   UNL     1      46.327   1.820   7.982  0.00  0.00    +0.000 C 
ATOM     27  C   UNL     1      46.160   3.176   7.278  0.00  0.00    +0.000 C 
ENDBRANCH  22  24
ENDBRANCH  20  22
ENDBRANCH  15  16
ENDBRANCH   1  15
TORSDOF 7
ENDMDL
MODEL 9
REMARK VINA RESULT:    -5.928      3.494      7.419
REMARK INTER + INTRA:          -9.084
REMARK INTER:                  -8.123
REMARK INTRA:                  -0.962
REMARK UNBOUND:                -0.731
REMARK  Name = 
REMARK  7 active torsions:
REMARK  status: ('A' for Active; 'I' for Inactive)
REMARK    1  A    between atoms: C_2  and  C_4
REMARK    2  A    between atoms: C_7  and  N_8
REMARK    3  A    between atoms: N_8  and  C_9
REMARK    4  A    between atoms: C_9  and  C_10
REMARK    5  A    between atoms: C_10  and  C_11
REMARK    6  A    between atoms: C_15  and  N_16
REMARK    7  A    between atoms: N_16  and  C_17
REMARK                            x       y       z     vdW  Elec       q    Type
REMARK                         _______ _______ _______ _____ _____    ______ ____
ROOT
ATOM      1  C   UNL     1      49.193   8.489  13.704  0.00  0.00    +0.000 C 
ENDROOT
BRANCH   1   2
ATOM      2  N   UNL     1      50.009   7.398  14.250  0.00  0.00    +0.000 N 
ATOM      3  H   UNL     1      50.836   7.742  14.732  0.00  0.00    +0.000 HD
BRANCH   2   7
ATOM      4  C   UNL     1      48.117   4.788  16.806  0.00  0.00    +0.000 A 
ATOM      5  C   UNL     1      47.677   4.941  15.501  0.00  0.00    +0.000 A 
ATOM      6  N   UNL     1      48.265   5.801  14.628  0.00  0.00    +0.000 NA
ATOM      7  C   UNL     1      49.312   6.516  15.093  0.00  0.00    +0.000 A 
ATOM      8  C   UNL     1      49.741   6.345  16.417  0.00  0.00    +0.000 A 
ATOM      9  N   UNL     1      49.163   5.497  17.310  0.00  0.00    +0.000 NA
BRANCH   4  11
ATOM     10  N   UNL     1      47.944   3.738  18.978  0.00  0.00    +0.000 N 
ATOM     11  C   UNL     1      47.445   3.811  17.705  0.00  0.00    +0.000 C 
ATOM     12  O   UNL     1      46.512   3.111  17.335  0.00  0.00    +0.000 OA
ATOM     13  H   UNL     1      47.551   3.076  19.631  0.00  0.00    +0.000 HD
ATOM     14  H   UNL     1      48.730   4.320  19.247  0.00  0.00    +0.000 HD
ENDBRANCH   4  11
ENDBRANCH   2   7
ENDBRANCH   1   2
BRANCH   1  15
ATOM     15  C   UNL     1      48.873   8.204  12.232  0.00  0.00    +0.000 C 
BRANCH  15  16
ATOM     16  C   UNL     1      47.392   8.075  11.982  0.00  0.00    +0.000 A 
ATOM     17  C   UNL     1      46.515   9.103  12.337  0.00  0.00    +0.000 A 
ATOM     18  C   UNL     1      45.144   8.964  12.124  0.00  0.00    +0.000 A 
ATOM     19  C   UNL     1      44.633   7.793  11.557  0.00  0.00    +0.000 A 
ATOM     20  C   UNL     1      45.492   6.760  11.178  0.00  0.00    +0.000 A 
ATOM     21  C   UNL     1      46.871   6.917  11.384  0.00  0.00    +0.000 A 
BRANCH  20  22
ATOM     22  N   UNL     1      45.040   5.560  10.590  0.00  0.00    +0.000 N 
ATOM     23  H   UNL     1      44.183   5.745  10.071  0.00  0.00    +0.000 HD
BRANCH  22  24
ATOM     24  C   UNL     1      45.033   4.272  11.219  0.00  0.00    +0.000 C 
ATOM     25  C   UNL     1      43.738   3.482  10.925  0.00  0.00    +0.000 C 
ATOM     26  C   UNL     1      43.578   3.241  12.434  0.00  0.00    +0.000 C 
ATOM     27  C   UNL     1      44.583   4.374  12.692  0.00  0.00    +0.000 C 
ENDBRANCH  22  24
ENDBRANCH  20  22
ENDBRANCH  15  16
ENDBRANCH   1  15
TORSDOF 7
ENDMDL
