MODEL 1
REMARK VINA RESULT:    -8.071      0.000      0.000
REMARK INTER + INTRA:         -13.127
REMARK INTER:                 -11.846
REMARK INTRA:                  -1.281
REMARK UNBOUND:                -1.281
REMARK  Name = 
REMARK  11 active torsions:
REMARK  status: ('A' for Active; 'I' for Inactive)
REMARK    1  A    between atoms: C_1  and  C_2
REMARK    2  A    between atoms: C_6  and  C_7
REMARK    3  A    between atoms: C_7  and  O_8
REMARK    4  A    between atoms: O_8  and  C_9
REMARK    5  A    between atoms: C_9  and  C_10
REMARK    6  A    between atoms: C_13  and  C_14
REMARK    7  A    between atoms: C_14  and  N_15
REMARK    8  A    between atoms: C_16  and  C_18
REMARK    9  A    between atoms: C_19  and  C_20
REMARK   10  A    between atoms: C_24  and  O_25
REMARK   11  A    between atoms: C_27  and  O_28
REMARK                            x       y       z     vdW  Elec       q    Type
REMARK                         _______ _______ _______ _____ _____    ______ ____
ROOT
ATOM      1  N   UNL     1      48.167   7.006  14.770  0.00  0.00    +0.000 N 
ATOM      2  C   UNL     1      49.390   7.198  15.342  0.00  0.00    +0.000 C 
ATOM      3  O   UNL     1      50.411   7.444  14.687  0.00  0.00    +0.000 OA
ATOM      4  H   UNL     1      47.443   6.588  15.344  0.00  0.00    +0.000 HD
ENDROOT
BRANCH   2   5
ATOM      5  C   UNL     1      49.394   7.131  16.805  0.00  0.00    +0.000 A 
ATOM      6  C   UNL     1      49.726   8.191  17.645  0.00  0.00    +0.000 A 
ATOM      7  C   UNL     1      50.122   9.588  17.319  0.00  0.00    +0.000 C 
ATOM      8  N   UNL     1      49.619   7.751  18.945  0.00  0.00    +0.000 N 
ATOM      9  C   UNL     1      49.211   6.445  18.965  0.00  0.00    +0.000 A 
ATOM     10  N   UNL     1      49.016   5.701  20.069  0.00  0.00    +0.000 NA
ATOM     11  C   UNL     1      48.620   4.457  19.751  0.00  0.00    +0.000 A 
ATOM     12  N   UNL     1      48.403   3.917  18.546  0.00  0.00    +0.000 NA
ATOM     13  C   UNL     1      48.616   4.718  17.504  0.00  0.00    +0.000 A 
ATOM     14  C   UNL     1      49.041   6.035  17.654  0.00  0.00    +0.000 A 
ATOM     15  H   UNL     1      49.807   8.297  19.775  0.00  0.00    +0.000 HD
BRANCH  11  16
ATOM     16  O   UNL     1      48.417   3.639  20.819  0.00  0.00    +0.000 OA
ATOM     17  H   UNL     1      47.556   3.264  20.579  0.00  0.00    +0.000 HD
ENDBRANCH  11  16
BRANCH  13  18
ATOM     18  O   UNL     1      48.370   4.152  16.287  0.00  0.00    +0.000 OA
ATOM     19  H   UNL     1      49.179   4.406  15.804  0.00  0.00    +0.000 HD
ENDBRANCH  13  18
ENDBRANCH   2   5
BRANCH   1  20
ATOM     20  C   UNL     1      47.964   7.079  13.345  0.00  0.00    +0.000 C 
BRANCH  20  24
ATOM     21  C   UNL     1      44.300   5.157  11.993  0.00  0.00    +0.000 A 
ATOM     22  C   UNL     1      44.778   6.306  11.353  0.00  0.00    +0.000 A 
ATOM     23  C   UNL     1      45.947   6.942  11.786  0.00  0.00    +0.000 A 
ATOM     24  C   UNL     1      46.678   6.442  12.874  0.00  0.00    +0.000 A 
ATOM     25  C   UNL     1      46.193   5.295  13.518  0.00  0.00    +0.000 A 
ATOM     26  C   UNL     1      45.023   4.656  13.082  0.00  0.00    +0.000 A 
BRANCH  21  27
ATOM     27  C   UNL     1      43.027   4.492  11.531  0.00  0.00    +0.000 C 
BRANCH  27  28
ATOM     28  O   UNL     1      43.269   3.908  10.255  0.00  0.00    +0.000 OA
BRANCH  28  29
ATOM     29  C   UNL     1      44.113   2.756  10.319  0.00  0.00    +0.000 C 
BRANCH  29  35
ATOM     30  C   UNL     1      47.040   0.186   7.405  0.00  0.00    +0.000 C 
ATOM     31  C   UNL     1      46.507   1.534   7.781  0.00  0.00    +0.000 A 
ATOM     32  C   UNL     1      46.921   2.679   7.110  0.00  0.00    +0.000 A 
ATOM     33  C   UNL     1      46.402   3.905   7.501  0.00  0.00    +0.000 A 
ATOM     34  C   UNL     1      45.489   3.953   8.549  0.00  0.00    +0.000 A 
ATOM     35  C   UNL     1      45.103   2.766   9.172  0.00  0.00    +0.000 A 
ATOM     36  N   UNL     1      45.617   1.564   8.803  0.00  0.00    +0.000 NA
ENDBRANCH  29  35
ENDBRANCH  28  29
ENDBRANCH  27  28
ENDBRANCH  21  27
ENDBRANCH  20  24
ENDBRANCH   1  20
TORSDOF 9
ENDMDL
MODEL 2
REMARK VINA RESULT:    -7.497      2.896      8.142
REMARK INTER + INTRA:         -12.284
REMARK INTER:                 -10.529
REMARK INTRA:                  -1.755
REMARK UNBOUND:                -1.281
REMARK  Name = 
REMARK  11 active torsions:
REMARK  status: ('A' for Active; 'I' for Inactive)
REMARK    1  A    between atoms: C_1  and  C_2
REMARK    2  A    between atoms: C_6  and  C_7
REMARK    3  A    between atoms: C_7  and  O_8
REMARK    4  A    between atoms: O_8  and  C_9
REMARK    5  A    between atoms: C_9  and  C_10
REMARK    6  A    between atoms: C_13  and  C_14
REMARK    7  A    between atoms: C_14  and  N_15
REMARK    8  A    between atoms: C_16  and  C_18
REMARK    9  A    between atoms: C_19  and  C_20
REMARK   10  A    between atoms: C_24  and  O_25
REMARK   11  A    between atoms: C_27  and  O_28
REMARK                            x       y       z     vdW  Elec       q    Type
REMARK                         _______ _______ _______ _____ _____    ______ ____
ROOT
ATOM      1  N   UNL     1      46.863   8.446  13.629  0.00  0.00    +0.000 N 
ATOM      2  C   UNL     1      47.010   7.444  12.717  0.00  0.00    +0.000 C 
ATOM      3  O   UNL     1      48.113   7.063  12.303  0.00  0.00    +0.000 OA
ATOM      4  H   UNL     1      45.938   8.846  13.739  0.00  0.00    +0.000 HD
ENDROOT
BRANCH   2   5
ATOM      5  C   UNL     1      45.755   6.821  12.290  0.00  0.00    +0.000 A 
ATOM      6  C   UNL     1      44.702   7.500  11.679  0.00  0.00    +0.000 A 
ATOM      7  C   UNL     1      44.573   8.934  11.302  0.00  0.00    +0.000 C 
ATOM      8  N   UNL     1      43.700   6.590  11.428  0.00  0.00    +0.000 N 
ATOM      9  C   UNL     1      44.085   5.344  11.844  0.00  0.00    +0.000 A 
ATOM     10  N   UNL     1      43.342   4.225  11.759  0.00  0.00    +0.000 NA
ATOM     11  C   UNL     1      44.003   3.166  12.256  0.00  0.00    +0.000 A 
ATOM     12  N   UNL     1      45.233   3.102  12.779  0.00  0.00    +0.000 NA
ATOM     13  C   UNL     1      45.905   4.251  12.825  0.00  0.00    +0.000 A 
ATOM     14  C   UNL     1      45.364   5.447  12.363  0.00  0.00    +0.000 A 
ATOM     15  H   UNL     1      42.807   6.792  11.001  0.00  0.00    +0.000 HD
BRANCH  11  16
ATOM     16  O   UNL     1      43.308   1.998  12.218  0.00  0.00    +0.000 OA
ATOM     17  H   UNL     1      42.403   2.341  12.270  0.00  0.00    +0.000 HD
ENDBRANCH  11  16
BRANCH  13  18
ATOM     18  O   UNL     1      47.163   4.158  13.345  0.00  0.00    +0.000 OA
ATOM     19  H   UNL     1      47.613   3.660  12.636  0.00  0.00    +0.000 HD
ENDBRANCH  13  18
ENDBRANCH   2   5
BRANCH   1  20
ATOM     20  C   UNL     1      47.990   9.145  14.194  0.00  0.00    +0.000 C 
BRANCH  20  24
ATOM     21  C   UNL     1      49.344   7.650  18.050  0.00  0.00    +0.000 A 
ATOM     22  C   UNL     1      49.757   7.033  16.864  0.00  0.00    +0.000 A 
ATOM     23  C   UNL     1      49.318   7.494  15.618  0.00  0.00    +0.000 A 
ATOM     24  C   UNL     1      48.453   8.595  15.521  0.00  0.00    +0.000 A 
ATOM     25  C   UNL     1      48.035   9.207  16.712  0.00  0.00    +0.000 A 
ATOM     26  C   UNL     1      48.477   8.745  17.960  0.00  0.00    +0.000 A 
BRANCH  21  27
ATOM     27  C   UNL     1      49.806   7.131  19.389  0.00  0.00    +0.000 C 
BRANCH  27  28
ATOM     28  O   UNL     1      48.675   6.607  20.078  0.00  0.00    +0.000 OA
BRANCH  28  29
ATOM     29  C   UNL     1      48.760   5.199  20.302  0.00  0.00    +0.000 C 
BRANCH  29  35
ATOM     30  C   UNL     1      50.443   1.988  17.059  0.00  0.00    +0.000 C 
ATOM     31  C   UNL     1      49.333   2.911  17.455  0.00  0.00    +0.000 A 
ATOM     32  C   UNL     1      48.196   3.042  16.666  0.00  0.00    +0.000 A 
ATOM     33  C   UNL     1      47.198   3.916  17.075  0.00  0.00    +0.000 A 
ATOM     34  C   UNL     1      47.365   4.634  18.255  0.00  0.00    +0.000 A 
ATOM     35  C   UNL     1      48.523   4.446  19.009  0.00  0.00    +0.000 A 
ATOM     36  N   UNL     1      49.509   3.601  18.609  0.00  0.00    +0.000 NA
ENDBRANCH  29  35
ENDBRANCH  28  29
ENDBRANCH  27  28
ENDBRANCH  21  27
ENDBRANCH  20  24
ENDBRANCH   1  20
TORSDOF 9
ENDMDL
MODEL 3
REMARK VINA RESULT:    -7.314      2.127      2.507
REMARK INTER + INTRA:         -12.016
REMARK INTER:                 -11.023
REMARK INTRA:                  -0.993
REMARK UNBOUND:                -1.281
REMARK  Name = 
REMARK  11 active torsions:
REMARK  status: ('A' for Active; 'I' for Inactive)
REMARK    1  A    between atoms: C_1  and  C_2
REMARK    2  A    between atoms: C_6  and  C_7
REMARK    3  A    between atoms: C_7  and  O_8
REMARK    4  A    between atoms: O_8  and  C_9
REMARK    5  A    between atoms: C_9  and  C_10
REMARK    6  A    between atoms: C_13  and  C_14
REMARK    7  A    between atoms: C_14  and  N_15
REMARK    8  A    between atoms: C_16  and  C_18
REMARK    9  A    between atoms: C_19  and  C_20
REMARK   10  A    between atoms: C_24  and  O_25
REMARK   11  A    between atoms: C_27  and  O_28
REMARK                            x       y       z     vdW  Elec       q    Type
REMARK                         _______ _______ _______ _____ _____    ______ ____
ROOT
ATOM      1  N   UNL     1      49.686   6.896  15.208  0.00  0.00    +0.000 N 
ATOM      2  C   UNL     1      49.665   6.689  16.555  0.00  0.00    +0.000 C 
ATOM      3  O   UNL     1      48.837   7.217  17.308  0.00  0.00    +0.000 OA
ATOM      4  H   UNL     1      50.521   6.617  14.704  0.00  0.00    +0.000 HD
ENDROOT
BRANCH   2   5
ATOM      5  C   UNL     1      50.684   5.755  17.042  0.00  0.00    +0.000 A 
ATOM      6  C   UNL     1      51.948   6.128  17.493  0.00  0.00    +0.000 A 
ATOM      7  C   UNL     1      52.567   7.476  17.615  0.00  0.00    +0.000 C 
ATOM      8  N   UNL     1      52.619   4.985  17.864  0.00  0.00    +0.000 N 
ATOM      9  C   UNL     1      51.818   3.891  17.681  0.00  0.00    +0.000 A 
ATOM     10  N   UNL     1      52.162   2.615  17.933  0.00  0.00    +0.000 NA
ATOM     11  C   UNL     1      51.153   1.775  17.645  0.00  0.00    +0.000 A 
ATOM     12  N   UNL     1      49.928   2.047  17.180  0.00  0.00    +0.000 NA
ATOM     13  C   UNL     1      49.663   3.333  16.959  0.00  0.00    +0.000 A 
ATOM     14  C   UNL     1      50.601   4.335  17.192  0.00  0.00    +0.000 A 
ATOM     15  H   UNL     1      53.563   4.940  18.222  0.00  0.00    +0.000 HD
BRANCH  11  16
ATOM     16  O   UNL     1      51.434   0.461  17.860  0.00  0.00    +0.000 OA
ATOM     17  H   UNL     1      52.248   0.378  17.342  0.00  0.00    +0.000 HD
ENDBRANCH  11  16
BRANCH  13  18
ATOM     18  O   UNL     1      48.403   3.587  16.504  0.00  0.00    +0.000 OA
ATOM     19  H   UNL     1      48.121   2.689  16.245  0.00  0.00    +0.000 HD
ENDBRANCH  13  18
ENDBRANCH   2   5
BRANCH   1  20
ATOM     20  C   UNL     1      48.733   7.750  14.545  0.00  0.00    +0.000 C 
BRANCH  20  24
ATOM     21  C   UNL     1      45.606   5.678  12.338  0.00  0.00    +0.000 A 
ATOM     22  C   UNL     1      46.319   5.020  13.346  0.00  0.00    +0.000 A 
ATOM     23  C   UNL     1      47.336   5.670  14.054  0.00  0.00    +0.000 A 
ATOM     24  C   UNL     1      47.668   7.004  13.776  0.00  0.00    +0.000 A 
ATOM     25  C   UNL     1      46.956   7.659  12.761  0.00  0.00    +0.000 A 
ATOM     26  C   UNL     1      45.936   7.009  12.053  0.00  0.00    +0.000 A 
BRANCH  21  27
ATOM     27  C   UNL     1      44.526   4.961  11.567  0.00  0.00    +0.000 C 
BRANCH  27  28
ATOM     28  O   UNL     1      44.942   3.614  11.366  0.00  0.00    +0.000 OA
BRANCH  28  29
ATOM     29  C   UNL     1      44.280   2.983  10.268  0.00  0.00    +0.000 C 
BRANCH  29  35
ATOM     30  C   UNL     1      47.000   0.105   7.444  0.00  0.00    +0.000 C 
ATOM     31  C   UNL     1      46.521   1.493   7.734  0.00  0.00    +0.000 A 
ATOM     32  C   UNL     1      46.935   2.569   6.956  0.00  0.00    +0.000 A 
ATOM     33  C   UNL     1      46.466   3.837   7.270  0.00  0.00    +0.000 A 
ATOM     34  C   UNL     1      45.604   3.995   8.350  0.00  0.00    +0.000 A 
ATOM     35  C   UNL     1      45.216   2.873   9.083  0.00  0.00    +0.000 A 
ATOM     36  N   UNL     1      45.680   1.630   8.788  0.00  0.00    +0.000 NA
ENDBRANCH  29  35
ENDBRANCH  28  29
ENDBRANCH  27  28
ENDBRANCH  21  27
ENDBRANCH  20  24
ENDBRANCH   1  20
TORSDOF 9
ENDMDL
MODEL 4
REMARK VINA RESULT:    -6.973      3.197      8.120
REMARK INTER + INTRA:         -11.516
REMARK INTER:                 -10.185
REMARK INTRA:                  -1.331
REMARK UNBOUND:                -1.281
REMARK  Name = 
REMARK  11 active torsions:
REMARK  status: ('A' for Active; 'I' for Inactive)
REMARK    1  A    between atoms: C_1  and  C_2
REMARK    2  A    between atoms: C_6  and  C_7
REMARK    3  A    between atoms: C_7  and  O_8
REMARK    4  A    between atoms: O_8  and  C_9
REMARK    5  A    between atoms: C_9  and  C_10
REMARK    6  A    between atoms: C_13  and  C_14
REMARK    7  A    between atoms: C_14  and  N_15
REMARK    8  A    between atoms: C_16  and  C_18
REMARK    9  A    between atoms: C_19  and  C_20
REMARK   10  A    between atoms: C_24  and  O_25
REMARK   11  A    between atoms: C_27  and  O_28
REMARK                            x       y       z     vdW  Elec       q    Type
REMARK                         _______ _______ _______ _____ _____    ______ ____
ROOT
ATOM      1  N   UNL     1      47.832   7.697  11.893  0.00  0.00    +0.000 N 
ATOM      2  C   UNL     1      46.655   8.165  12.396  0.00  0.00    +0.000 C 
ATOM      3  O   UNL     1      46.568   9.213  13.049  0.00  0.00    +0.000 OA
ATOM      4  H   UNL     1      47.855   6.733  11.577  0.00  0.00    +0.000 HD
ENDROOT
BRANCH   2   5
ATOM      5  C   UNL     1      45.485   7.347  12.068  0.00  0.00    +0.000 A 
ATOM      6  C   UNL     1      44.346   7.818  11.419  0.00  0.00    +0.000 A 
ATOM      7  C   UNL     1      44.029   9.176  10.898  0.00  0.00    +0.000 C 
ATOM      8  N   UNL     1      43.467   6.768  11.289  0.00  0.00    +0.000 N 
ATOM      9  C   UNL     1      44.013   5.631  11.821  0.00  0.00    +0.000 A 
ATOM     10  N   UNL     1      43.420   4.425  11.872  0.00  0.00    +0.000 NA
ATOM     11  C   UNL     1      44.218   3.517  12.459  0.00  0.00    +0.000 A 
ATOM     12  N   UNL     1      45.452   3.665  12.953  0.00  0.00    +0.000 NA
ATOM     13  C   UNL     1      45.971   4.888  12.863  0.00  0.00    +0.000 A 
ATOM     14  C   UNL     1      45.275   5.950  12.294  0.00  0.00    +0.000 A 
ATOM     15  H   UNL     1      42.550   6.809  10.866  0.00  0.00    +0.000 HD
BRANCH  11  16
ATOM     16  O   UNL     1      43.678   2.272  12.560  0.00  0.00    +0.000 OA
ATOM     17  H   UNL     1      43.232   2.354  13.417  0.00  0.00    +0.000 HD
ENDBRANCH  11  16
BRANCH  13  18
ATOM     18  O   UNL     1      47.238   5.010  13.356  0.00  0.00    +0.000 OA
ATOM     19  H   UNL     1      47.696   5.389  12.582  0.00  0.00    +0.000 HD
ENDBRANCH  13  18
ENDBRANCH   2   5
BRANCH   1  20
ATOM     20  C   UNL     1      49.080   8.392  12.079  0.00  0.00    +0.000 C 
BRANCH  20  24
ATOM     21  C   UNL     1      51.155   7.273  15.737  0.00  0.00    +0.000 A 
ATOM     22  C   UNL     1      51.811   8.012  14.745  0.00  0.00    +0.000 A 
ATOM     23  C   UNL     1      51.160   8.366  13.559  0.00  0.00    +0.000 A 
ATOM     24  C   UNL     1      49.827   7.995  13.330  0.00  0.00    +0.000 A 
ATOM     25  C   UNL     1      49.175   7.249  14.321  0.00  0.00    +0.000 A 
ATOM     26  C   UNL     1      49.826   6.895  15.512  0.00  0.00    +0.000 A 
BRANCH  21  27
ATOM     27  C   UNL     1      51.873   6.878  17.004  0.00  0.00    +0.000 C 
BRANCH  27  28
ATOM     28  O   UNL     1      50.895   6.562  17.989  0.00  0.00    +0.000 OA
BRANCH  28  29
ATOM     29  C   UNL     1      51.164   5.335  18.670  0.00  0.00    +0.000 C 
BRANCH  29  35
ATOM     30  C   UNL     1      47.050   3.523  16.810  0.00  0.00    +0.000 C 
ATOM     31  C   UNL     1      48.509   3.315  17.077  0.00  0.00    +0.000 A 
ATOM     32  C   UNL     1      49.144   2.138  16.697  0.00  0.00    +0.000 A 
ATOM     33  C   UNL     1      50.497   1.992  16.973  0.00  0.00    +0.000 A 
ATOM     34  C   UNL     1      51.173   3.021  17.621  0.00  0.00    +0.000 A 
ATOM     35  C   UNL     1      50.480   4.182  17.963  0.00  0.00    +0.000 A 
ATOM     36  N   UNL     1      49.154   4.327  17.707  0.00  0.00    +0.000 NA
ENDBRANCH  29  35
ENDBRANCH  28  29
ENDBRANCH  27  28
ENDBRANCH  21  27
ENDBRANCH  20  24
ENDBRANCH   1  20
TORSDOF 9
ENDMDL
MODEL 5
REMARK VINA RESULT:    -6.659      3.012      9.135
REMARK INTER + INTRA:         -11.055
REMARK INTER:                  -9.857
REMARK INTRA:                  -1.198
REMARK UNBOUND:                -1.281
REMARK  Name = 
REMARK  11 active torsions:
REMARK  status: ('A' for Active; 'I' for Inactive)
REMARK    1  A    between atoms: C_1  and  C_2
REMARK    2  A    between atoms: C_6  and  C_7
REMARK    3  A    between atoms: C_7  and  O_8
REMARK    4  A    between atoms: O_8  and  C_9
REMARK    5  A    between atoms: C_9  and  C_10
REMARK    6  A    between atoms: C_13  and  C_14
REMARK    7  A    between atoms: C_14  and  N_15
REMARK    8  A    between atoms: C_16  and  C_18
REMARK    9  A    between atoms: C_19  and  C_20
REMARK   10  A    between atoms: C_24  and  O_25
REMARK   11  A    between atoms: C_27  and  O_28
REMARK                            x       y       z     vdW  Elec       q    Type
REMARK                         _______ _______ _______ _____ _____    ______ ____
ROOT
ATOM      1  N   UNL     1      47.832   7.864  14.607  0.00  0.00    +0.000 N 
ATOM      2  C   UNL     1      47.810   6.883  13.661  0.00  0.00    +0.000 C 
ATOM      3  O   UNL     1      48.827   6.293  13.277  0.00  0.00    +0.000 OA
ATOM      4  H   UNL     1      47.006   8.447  14.696  0.00  0.00    +0.000 HD
ENDROOT
BRANCH   2   5
ATOM      5  C   UNL     1      46.474   6.552  13.159  0.00  0.00    +0.000 A 
ATOM      6  C   UNL     1      45.531   7.489  12.741  0.00  0.00    +0.000 A 
ATOM      7  C   UNL     1      45.614   8.973  12.675  0.00  0.00    +0.000 C 
ATOM      8  N   UNL     1      44.404   6.806  12.342  0.00  0.00    +0.000 N 
ATOM      9  C   UNL     1      44.602   5.458  12.475  0.00  0.00    +0.000 A 
ATOM     10  N   UNL     1      43.701   4.501  12.186  0.00  0.00    +0.000 NA
ATOM     11  C   UNL     1      44.200   3.277  12.429  0.00  0.00    +0.000 A 
ATOM     12  N   UNL     1      45.409   2.928  12.883  0.00  0.00    +0.000 NA
ATOM     13  C   UNL     1      46.244   3.933  13.143  0.00  0.00    +0.000 A 
ATOM     14  C   UNL     1      45.884   5.264  12.959  0.00  0.00    +0.000 A 
ATOM     15  H   UNL     1      43.549   7.221  11.998  0.00  0.00    +0.000 HD
BRANCH  11  16
ATOM     16  O   UNL     1      43.339   2.256  12.173  0.00  0.00    +0.000 OA
ATOM     17  H   UNL     1      43.005   2.533  11.306  0.00  0.00    +0.000 HD
ENDBRANCH  11  16
BRANCH  13  18
ATOM     18  O   UNL     1      47.477   3.552  13.586  0.00  0.00    +0.000 OA
ATOM     19  H   UNL     1      47.792   3.037  12.819  0.00  0.00    +0.000 HD
ENDBRANCH  13  18
ENDBRANCH   2   5
BRANCH   1  20
ATOM     20  C   UNL     1      49.051   8.293  15.245  0.00  0.00    +0.000 C 
BRANCH  20  24
ATOM     21  C   UNL     1      48.606   9.197  19.479  0.00  0.00    +0.000 A 
ATOM     22  C   UNL     1      49.748   8.538  19.008  0.00  0.00    +0.000 A 
ATOM     23  C   UNL     1      49.897   8.228  17.652  0.00  0.00    +0.000 A 
ATOM     24  C   UNL     1      48.907   8.576  16.721  0.00  0.00    +0.000 A 
ATOM     25  C   UNL     1      47.761   9.230  17.196  0.00  0.00    +0.000 A 
ATOM     26  C   UNL     1      47.612   9.542  18.555  0.00  0.00    +0.000 A 
BRANCH  21  27
ATOM     27  C   UNL     1      48.446   9.507  20.946  0.00  0.00    +0.000 C 
BRANCH  27  28
ATOM     28  O   UNL     1      47.209   8.955  21.385  0.00  0.00    +0.000 OA
BRANCH  28  29
ATOM     29  C   UNL     1      47.375   7.825  22.244  0.00  0.00    +0.000 C 
BRANCH  29  35
ATOM     30  C   UNL     1      47.175   5.024  18.272  0.00  0.00    +0.000 C 
ATOM     31  C   UNL     1      47.859   5.317  19.571  0.00  0.00    +0.000 A 
ATOM     32  C   UNL     1      48.936   4.550  20.001  0.00  0.00    +0.000 A 
ATOM     33  C   UNL     1      49.531   4.860  21.216  0.00  0.00    +0.000 A 
ATOM     34  C   UNL     1      49.034   5.920  21.966  0.00  0.00    +0.000 A 
ATOM     35  C   UNL     1      47.959   6.659  21.472  0.00  0.00    +0.000 A 
ATOM     36  N   UNL     1      47.364   6.355  20.289  0.00  0.00    +0.000 NA
ENDBRANCH  29  35
ENDBRANCH  28  29
ENDBRANCH  27  28
ENDBRANCH  21  27
ENDBRANCH  20  24
ENDBRANCH   1  20
TORSDOF 9
ENDMDL
MODEL 6
REMARK VINA RESULT:    -6.513      2.145      3.984
REMARK INTER + INTRA:         -10.841
REMARK INTER:                  -9.937
REMARK INTRA:                  -0.904
REMARK UNBOUND:                -1.281
REMARK  Name = 
REMARK  11 active torsions:
REMARK  status: ('A' for Active; 'I' for Inactive)
REMARK    1  A    between atoms: C_1  and  C_2
REMARK    2  A    between atoms: C_6  and  C_7
REMARK    3  A    between atoms: C_7  and  O_8
REMARK    4  A    between atoms: O_8  and  C_9
REMARK    5  A    between atoms: C_9  and  C_10
REMARK    6  A    between atoms: C_13  and  C_14
REMARK    7  A    between atoms: C_14  and  N_15
REMARK    8  A    between atoms: C_16  and  C_18
REMARK    9  A    between atoms: C_19  and  C_20
REMARK   10  A    between atoms: C_24  and  O_25
REMARK   11  A    between atoms: C_27  and  O_28
REMARK                            x       y       z     vdW  Elec       q    Type
REMARK                         _______ _______ _______ _____ _____    ______ ____
ROOT
ATOM      1  N   UNL     1      47.896   6.215  14.979  0.00  0.00    +0.000 N 
ATOM      2  C   UNL     1      48.475   6.601  16.151  0.00  0.00    +0.000 C 
ATOM      3  O   UNL     1      48.559   5.861  17.140  0.00  0.00    +0.000 OA
ATOM      4  H   UNL     1      47.664   6.941  14.310  0.00  0.00    +0.000 HD
ENDROOT
BRANCH   2   5
ATOM      5  C   UNL     1      49.029   7.957  16.138  0.00  0.00    +0.000 A 
ATOM      6  C   UNL     1      48.876   8.884  17.167  0.00  0.00    +0.000 A 
ATOM      7  C   UNL     1      48.177   8.762  18.476  0.00  0.00    +0.000 C 
ATOM      8  N   UNL     1      49.528  10.039  16.798  0.00  0.00    +0.000 N 
ATOM      9  C   UNL     1      50.109   9.875  15.569  0.00  0.00    +0.000 A 
ATOM     10  N   UNL     1      50.815  10.808  14.905  0.00  0.00    +0.000 NA
ATOM     11  C   UNL     1      51.250  10.337  13.724  0.00  0.00    +0.000 A 
ATOM     12  N   UNL     1      51.081   9.127  13.178  0.00  0.00    +0.000 NA
ATOM     13  C   UNL     1      50.373   8.259  13.899  0.00  0.00    +0.000 A 
ATOM     14  C   UNL     1      49.838   8.587  15.141  0.00  0.00    +0.000 A 
ATOM     15  H   UNL     1      49.581  10.890  17.339  0.00  0.00    +0.000 HD
BRANCH  11  16
ATOM     16  O   UNL     1      51.961  11.232  12.987  0.00  0.00    +0.000 OA
ATOM     17  H   UNL     1      52.775  10.725  12.849  0.00  0.00    +0.000 HD
ENDBRANCH  11  16
BRANCH  13  18
ATOM     18  O   UNL     1      50.230   7.027  13.331  0.00  0.00    +0.000 OA
ATOM     19  H   UNL     1      49.590   6.619  13.945  0.00  0.00    +0.000 HD
ENDBRANCH  13  18
ENDBRANCH   2   5
BRANCH   1  20
ATOM     20  C   UNL     1      47.335   4.900  14.793  0.00  0.00    +0.000 C 
BRANCH  20  24
ATOM     21  C   UNL     1      44.789   4.481  11.289  0.00  0.00    +0.000 A 
ATOM     22  C   UNL     1      45.216   5.746  11.710  0.00  0.00    +0.000 A 
ATOM     23  C   UNL     1      46.023   5.896  12.843  0.00  0.00    +0.000 A 
ATOM     24  C   UNL     1      46.433   4.781  13.588  0.00  0.00    +0.000 A 
ATOM     25  C   UNL     1      45.998   3.516  13.168  0.00  0.00    +0.000 A 
ATOM     26  C   UNL     1      45.191   3.365  12.031  0.00  0.00    +0.000 A 
BRANCH  21  27
ATOM     27  C   UNL     1      43.901   4.333  10.078  0.00  0.00    +0.000 C 
BRANCH  27  28
ATOM     28  O   UNL     1      44.538   3.444   9.166  0.00  0.00    +0.000 OA
BRANCH  28  29
ATOM     29  C   UNL     1      45.465   4.103   8.300  0.00  0.00    +0.000 C 
BRANCH  29  35
ATOM     30  C   UNL     1      46.904  -0.509   7.736  0.00  0.00    +0.000 C 
ATOM     31  C   UNL     1      46.888   0.881   7.179  0.00  0.00    +0.000 A 
ATOM     32  C   UNL     1      47.516   1.175   5.973  0.00  0.00    +0.000 A 
ATOM     33  C   UNL     1      47.477   2.481   5.504  0.00  0.00    +0.000 A 
ATOM     34  C   UNL     1      46.819   3.452   6.250  0.00  0.00    +0.000 A 
ATOM     35  C   UNL     1      46.197   3.089   7.445  0.00  0.00    +0.000 A 
ATOM     36  N   UNL     1      46.241   1.815   7.917  0.00  0.00    +0.000 NA
ENDBRANCH  29  35
ENDBRANCH  28  29
ENDBRANCH  27  28
ENDBRANCH  21  27
ENDBRANCH  20  24
ENDBRANCH   1  20
TORSDOF 9
ENDMDL
MODEL 7
REMARK VINA RESULT:    -6.278      5.482      7.878
REMARK INTER + INTRA:         -10.495
REMARK INTER:                  -9.531
REMARK INTRA:                  -0.964
REMARK UNBOUND:                -1.281
REMARK  Name = 
REMARK  11 active torsions:
REMARK  status: ('A' for Active; 'I' for Inactive)
REMARK    1  A    between atoms: C_1  and  C_2
REMARK    2  A    between atoms: C_6  and  C_7
REMARK    3  A    between atoms: C_7  and  O_8
REMARK    4  A    between atoms: O_8  and  C_9
REMARK    5  A    between atoms: C_9  and  C_10
REMARK    6  A    between atoms: C_13  and  C_14
REMARK    7  A    between atoms: C_14  and  N_15
REMARK    8  A    between atoms: C_16  and  C_18
REMARK    9  A    between atoms: C_19  and  C_20
REMARK   10  A    between atoms: C_24  and  O_25
REMARK   11  A    between atoms: C_27  and  O_28
REMARK                            x       y       z     vdW  Elec       q    Type
REMARK                         _______ _______ _______ _____ _____    ______ ____
ROOT
ATOM      1  N   UNL     1      51.473   8.151  10.624  0.00  0.00    +0.000 N 
ATOM      2  C   UNL     1      52.610   8.717  10.131  0.00  0.00    +0.000 C 
ATOM      3  O   UNL     1      53.336   9.467  10.797  0.00  0.00    +0.000 OA
ATOM      4  H   UNL     1      50.825   7.745   9.958  0.00  0.00    +0.000 HD
ENDROOT
BRANCH   2   5
ATOM      5  C   UNL     1      52.932   8.335   8.753  0.00  0.00    +0.000 A 
ATOM      6  C   UNL     1      52.984   9.221   7.679  0.00  0.00    +0.000 A 
ATOM      7  C   UNL     1      52.764  10.692   7.634  0.00  0.00    +0.000 C 
ATOM      8  N   UNL     1      53.313   8.501   6.553  0.00  0.00    +0.000 N 
ATOM      9  C   UNL     1      53.489   7.182   6.875  0.00  0.00    +0.000 A 
ATOM     10  N   UNL     1      53.805   6.199   6.012  0.00  0.00    +0.000 NA
ATOM     11  C   UNL     1      53.903   5.016   6.641  0.00  0.00    +0.000 A 
ATOM     12  N   UNL     1      53.743   4.728   7.938  0.00  0.00    +0.000 NA
ATOM     13  C   UNL     1      53.434   5.755   8.727  0.00  0.00    +0.000 A 
ATOM     14  C   UNL     1      53.282   7.048   8.237  0.00  0.00    +0.000 A 
ATOM     15  H   UNL     1      53.414   8.872   5.619  0.00  0.00    +0.000 HD
BRANCH  11  16
ATOM     16  O   UNL     1      54.207   3.968   5.828  0.00  0.00    +0.000 OA
ATOM     17  H   UNL     1      54.281   4.432   4.980  0.00  0.00    +0.000 HD
ENDBRANCH  11  16
BRANCH  13  18
ATOM     18  O   UNL     1      53.295   5.440  10.047  0.00  0.00    +0.000 OA
ATOM     19  H   UNL     1      52.591   4.765   9.997  0.00  0.00    +0.000 HD
ENDBRANCH  13  18
ENDBRANCH   2   5
BRANCH   1  20
ATOM     20  C   UNL     1      51.022   8.378  11.974  0.00  0.00    +0.000 C 
BRANCH  20  24
ATOM     21  C   UNL     1      46.826   7.391  12.577  0.00  0.00    +0.000 A 
ATOM     22  C   UNL     1      47.196   8.631  12.042  0.00  0.00    +0.000 A 
ATOM     23  C   UNL     1      48.541   8.966  11.856  0.00  0.00    +0.000 A 
ATOM     24  C   UNL     1      49.561   8.066  12.196  0.00  0.00    +0.000 A 
ATOM     25  C   UNL     1      49.189   6.828  12.739  0.00  0.00    +0.000 A 
ATOM     26  C   UNL     1      47.840   6.491  12.923  0.00  0.00    +0.000 A 
BRANCH  21  27
ATOM     27  C   UNL     1      45.373   7.049  12.793  0.00  0.00    +0.000 C 
BRANCH  27  28
ATOM     28  O   UNL     1      45.070   5.891  12.021  0.00  0.00    +0.000 OA
BRANCH  28  29
ATOM     29  C   UNL     1      45.185   6.112  10.614  0.00  0.00    +0.000 C 
BRANCH  29  35
ATOM     30  C   UNL     1      46.565   3.589   6.691  0.00  0.00    +0.000 C 
ATOM     31  C   UNL     1      45.820   3.587   7.990  0.00  0.00    +0.000 A 
ATOM     32  C   UNL     1      45.166   2.445   8.437  0.00  0.00    +0.000 A 
ATOM     33  C   UNL     1      44.485   2.497   9.645  0.00  0.00    +0.000 A 
ATOM     34  C   UNL     1      44.473   3.685  10.368  0.00  0.00    +0.000 A 
ATOM     35  C   UNL     1      45.161   4.792   9.871  0.00  0.00    +0.000 A 
ATOM     36  N   UNL     1      45.821   4.752   8.683  0.00  0.00    +0.000 NA
ENDBRANCH  29  35
ENDBRANCH  28  29
ENDBRANCH  27  28
ENDBRANCH  21  27
ENDBRANCH  20  24
ENDBRANCH   1  20
TORSDOF 9
ENDMDL
MODEL 8
REMARK VINA RESULT:    -6.254      5.593      8.014
REMARK INTER + INTRA:         -10.460
REMARK INTER:                  -9.405
REMARK INTRA:                  -1.056
REMARK UNBOUND:                -1.281
REMARK  Name = 
REMARK  11 active torsions:
REMARK  status: ('A' for Active; 'I' for Inactive)
REMARK    1  A    between atoms: C_1  and  C_2
REMARK    2  A    between atoms: C_6  and  C_7
REMARK    3  A    between atoms: C_7  and  O_8
REMARK    4  A    between atoms: O_8  and  C_9
REMARK    5  A    between atoms: C_9  and  C_10
REMARK    6  A    between atoms: C_13  and  C_14
REMARK    7  A    between atoms: C_14  and  N_15
REMARK    8  A    between atoms: C_16  and  C_18
REMARK    9  A    between atoms: C_19  and  C_20
REMARK   10  A    between atoms: C_24  and  O_25
REMARK   11  A    between atoms: C_27  and  O_28
REMARK                            x       y       z     vdW  Elec       q    Type
REMARK                         _______ _______ _______ _____ _____    ______ ____
ROOT
ATOM      1  N   UNL     1      52.136   7.501  10.721  0.00  0.00    +0.000 N 
ATOM      2  C   UNL     1      53.487   7.326  10.752  0.00  0.00    +0.000 C 
ATOM      3  O   UNL     1      54.242   8.011  11.454  0.00  0.00    +0.000 OA
ATOM      4  H   UNL     1      51.625   7.064   9.961  0.00  0.00    +0.000 HD
ENDROOT
BRANCH   2   5
ATOM      5  C   UNL     1      53.978   6.230   9.912  0.00  0.00    +0.000 A 
ATOM      6  C   UNL     1      54.669   5.117  10.388  0.00  0.00    +0.000 A 
ATOM      7  C   UNL     1      55.056   4.747  11.777  0.00  0.00    +0.000 C 
ATOM      8  N   UNL     1      54.967   4.312   9.312  0.00  0.00    +0.000 N 
ATOM      9  C   UNL     1      54.474   4.867   8.162  0.00  0.00    +0.000 A 
ATOM     10  N   UNL     1      54.596   4.348   6.926  0.00  0.00    +0.000 NA
ATOM     11  C   UNL     1      54.005   5.135   6.010  0.00  0.00    +0.000 A 
ATOM     12  N   UNL     1      53.347   6.287   6.179  0.00  0.00    +0.000 NA
ATOM     13  C   UNL     1      53.267   6.733   7.431  0.00  0.00    +0.000 A 
ATOM     14  C   UNL     1      53.835   6.047   8.501  0.00  0.00    +0.000 A 
ATOM     15  H   UNL     1      55.472   3.438   9.346  0.00  0.00    +0.000 HD
BRANCH  11  16
ATOM     16  O   UNL     1      54.101   4.681   4.731  0.00  0.00    +0.000 OA
ATOM     17  H   UNL     1      53.167   4.500   4.549  0.00  0.00    +0.000 HD
ENDBRANCH  11  16
BRANCH  13  18
ATOM     18  O   UNL     1      52.576   7.899   7.580  0.00  0.00    +0.000 OA
ATOM     19  H   UNL     1      53.311   8.529   7.703  0.00  0.00    +0.000 HD
ENDBRANCH  13  18
ENDBRANCH   2   5
BRANCH   1  20
ATOM     20  C   UNL     1      51.470   8.502  11.514  0.00  0.00    +0.000 C 
BRANCH  20  24
ATOM     21  C   UNL     1      47.348   7.457  12.440  0.00  0.00    +0.000 A 
ATOM     22  C   UNL     1      47.650   8.673  11.816  0.00  0.00    +0.000 A 
ATOM     23  C   UNL     1      48.972   9.027  11.526  0.00  0.00    +0.000 A 
ATOM     24  C   UNL     1      50.035   8.171  11.847  0.00  0.00    +0.000 A 
ATOM     25  C   UNL     1      49.730   6.957  12.479  0.00  0.00    +0.000 A 
ATOM     26  C   UNL     1      48.405   6.600  12.768  0.00  0.00    +0.000 A 
BRANCH  21  27
ATOM     27  C   UNL     1      45.921   7.094  12.768  0.00  0.00    +0.000 C 
BRANCH  27  28
ATOM     28  O   UNL     1      45.624   5.848  12.145  0.00  0.00    +0.000 OA
BRANCH  28  29
ATOM     29  C   UNL     1      44.833   5.989  10.964  0.00  0.00    +0.000 C 
BRANCH  29  35
ATOM     30  C   UNL     1      46.626   3.898   6.954  0.00  0.00    +0.000 C 
ATOM     31  C   UNL     1      45.792   3.744   8.189  0.00  0.00    +0.000 A 
ATOM     32  C   UNL     1      45.173   2.535   8.486  0.00  0.00    +0.000 A 
ATOM     33  C   UNL     1      44.406   2.445   9.639  0.00  0.00    +0.000 A 
ATOM     34  C   UNL     1      44.277   3.562  10.458  0.00  0.00    +0.000 A 
ATOM     35  C   UNL     1      44.936   4.741  10.111  0.00  0.00    +0.000 A 
ATOM     36  N   UNL     1      45.678   4.840   8.978  0.00  0.00    +0.000 NA
ENDBRANCH  29  35
ENDBRANCH  28  29
ENDBRANCH  27  28
ENDBRANCH  21  27
ENDBRANCH  20  24
ENDBRANCH   1  20
TORSDOF 9
ENDMDL
MODEL 9
REMARK VINA RESULT:    -6.193      3.092      9.064
REMARK INTER + INTRA:         -10.370
REMARK INTER:                  -8.987
REMARK INTRA:                  -1.383
REMARK UNBOUND:                -1.281
REMARK  Name = 
REMARK  11 active torsions:
REMARK  status: ('A' for Active; 'I' for Inactive)
REMARK    1  A    between atoms: C_1  and  C_2
REMARK    2  A    between atoms: C_6  and  C_7
REMARK    3  A    between atoms: C_7  and  O_8
REMARK    4  A    between atoms: O_8  and  C_9
REMARK    5  A    between atoms: C_9  and  C_10
REMARK    6  A    between atoms: C_13  and  C_14
REMARK    7  A    between atoms: C_14  and  N_15
REMARK    8  A    between atoms: C_16  and  C_18
REMARK    9  A    between atoms: C_19  and  C_20
REMARK   10  A    between atoms: C_24  and  O_25
REMARK   11  A    between atoms: C_27  and  O_28
REMARK                            x       y       z     vdW  Elec       q    Type
REMARK                         _______ _______ _______ _____ _____    ______ ____
ROOT
ATOM      1  N   UNL     1      48.442   7.344  12.942  0.00  0.00    +0.000 N 
ATOM      2  C   UNL     1      47.636   6.487  13.628  0.00  0.00    +0.000 C 
ATOM      3  O   UNL     1      47.991   5.905  14.661  0.00  0.00    +0.000 OA
ATOM      4  H   UNL     1      48.165   7.594  11.999  0.00  0.00    +0.000 HD
ENDROOT
BRANCH   2   5
ATOM      5  C   UNL     1      46.291   6.335  13.066  0.00  0.00    +0.000 A 
ATOM      6  C   UNL     1      45.468   7.393  12.686  0.00  0.00    +0.000 A 
ATOM      7  C   UNL     1      45.711   8.861  12.724  0.00  0.00    +0.000 C 
ATOM      8  N   UNL     1      44.291   6.864  12.210  0.00  0.00    +0.000 N 
ATOM      9  C   UNL     1      44.339   5.497  12.256  0.00  0.00    +0.000 A 
ATOM     10  N   UNL     1      43.353   4.664  11.876  0.00  0.00    +0.000 NA
ATOM     11  C   UNL     1      43.710   3.380  12.049  0.00  0.00    +0.000 A 
ATOM     12  N   UNL     1      44.859   2.873  12.513  0.00  0.00    +0.000 NA
ATOM     13  C   UNL     1      45.786   3.763  12.865  0.00  0.00    +0.000 A 
ATOM     14  C   UNL     1      45.576   5.134  12.762  0.00  0.00    +0.000 A 
ATOM     15  H   UNL     1      43.497   7.390  11.870  0.00  0.00    +0.000 HD
BRANCH  11  16
ATOM     16  O   UNL     1      42.755   2.476  11.700  0.00  0.00    +0.000 OA
ATOM     17  H   UNL     1      42.052   3.080  11.416  0.00  0.00    +0.000 HD
ENDBRANCH  11  16
BRANCH  13  18
ATOM     18  O   UNL     1      46.954   3.222  13.317  0.00  0.00    +0.000 OA
ATOM     19  H   UNL     1      46.700   2.283  13.391  0.00  0.00    +0.000 HD
ENDBRANCH  13  18
ENDBRANCH   2   5
BRANCH   1  20
ATOM     20  C   UNL     1      49.784   7.650  13.370  0.00  0.00    +0.000 C 
BRANCH  20  24
ATOM     21  C   UNL     1      49.991   9.976  17.043  0.00  0.00    +0.000 A 
ATOM     22  C   UNL     1      49.071  10.308  16.042  0.00  0.00    +0.000 A 
ATOM     23  C   UNL     1      49.004   9.578  14.850  0.00  0.00    +0.000 A 
ATOM     24  C   UNL     1      49.854   8.485  14.626  0.00  0.00    +0.000 A 
ATOM     25  C   UNL     1      50.780   8.159  15.628  0.00  0.00    +0.000 A 
ATOM     26  C   UNL     1      50.846   8.890  16.823  0.00  0.00    +0.000 A 
BRANCH  21  27
ATOM     27  C   UNL     1      50.070  10.784  18.314  0.00  0.00    +0.000 C 
BRANCH  27  28
ATOM     28  O   UNL     1      49.740   9.930  19.405  0.00  0.00    +0.000 OA
BRANCH  28  29
ATOM     29  C   UNL     1      48.336   9.690  19.521  0.00  0.00    +0.000 C 
BRANCH  29  35
ATOM     30  C   UNL     1      47.439   5.789  22.284  0.00  0.00    +0.000 C 
ATOM     31  C   UNL     1      47.635   6.334  20.904  0.00  0.00    +0.000 A 
ATOM     32  C   UNL     1      47.568   5.503  19.791  0.00  0.00    +0.000 A 
ATOM     33  C   UNL     1      47.763   6.058  18.533  0.00  0.00    +0.000 A 
ATOM     34  C   UNL     1      48.020   7.420  18.423  0.00  0.00    +0.000 A 
ATOM     35  C   UNL     1      48.060   8.202  19.578  0.00  0.00    +0.000 A 
ATOM     36  N   UNL     1      47.882   7.664  20.813  0.00  0.00    +0.000 NA
ENDBRANCH  29  35
ENDBRANCH  28  29
ENDBRANCH  27  28
ENDBRANCH  21  27
ENDBRANCH  20  24
ENDBRANCH   1  20
TORSDOF 9
ENDMDL
