MODEL 1
REMARK VINA RESULT:    -8.180      0.000      0.000
REMARK INTER + INTRA:         -12.596
REMARK INTER:                 -12.006
REMARK INTRA:                  -0.591
REMARK UNBOUND:                -0.591
REMARK  Name = 
REMARK  10 active torsions:
REMARK  status: ('A' for Active; 'I' for Inactive)
REMARK    1  A    between atoms: C_1  and  O_2
REMARK    2  A    between atoms: O_2  and  C_3
REMARK    3  A    between atoms: C_6  and  C_7
REMARK    4  A    between atoms: C_7  and  N_8
REMARK    5  A    between atoms: N_8  and  C_9
REMARK    6  A    between atoms: N_8  and  C_10
REMARK    7  A    between atoms: C_10  and  C_11
REMARK    8  A    between atoms: C_14  and  C_15
REMARK    9  A    between atoms: C_15  and  N_16
REMARK   10  A    between atoms: C_17  and  C_19
REMARK                            x       y       z     vdW  Elec       q    Type
REMARK                         _______ _______ _______ _____ _____    ______ ____
ROOT
ATOM      1  C   UNL     1      44.568   5.458  10.837  0.00  0.00    +0.000 A 
ATOM      2  C   UNL     1      44.111   5.915  12.081  0.00  0.00    +0.000 A 
ATOM      3  C   UNL     1      44.895   6.778  12.853  0.00  0.00    +0.000 A 
ATOM      4  C   UNL     1      46.147   7.205  12.389  0.00  0.00    +0.000 A 
ATOM      5  C   UNL     1      46.630   6.694  11.179  0.00  0.00    +0.000 A 
ATOM      6  C   UNL     1      45.849   5.832  10.409  0.00  0.00    +0.000 A 
ENDROOT
BRANCH   1   7
ATOM      7  C   UNL     1      43.692   4.593   9.954  0.00  0.00    +0.000 C 
BRANCH   7   8
ATOM      8  N   UNL     1      43.915   3.143  10.118  0.00  0.00    +0.000 NA
ATOM      9  C   UNL     1      43.295   2.707  11.376  0.00  0.00    +0.000 C 
BRANCH   8  10
ATOM     10  C   UNL     1      45.353   2.805  10.077  0.00  0.00    +0.000 C 
BRANCH  10  14
ATOM     11  C   UNL     1      46.932   2.048   6.117  0.00  0.00    +0.000 A 
ATOM     12  C   UNL     1      46.804   1.006   7.035  0.00  0.00    +0.000 A 
ATOM     13  C   UNL     1      46.257   1.247   8.297  0.00  0.00    +0.000 A 
ATOM     14  C   UNL     1      45.846   2.535   8.667  0.00  0.00    +0.000 A 
ATOM     15  C   UNL     1      45.948   3.572   7.732  0.00  0.00    +0.000 A 
ATOM     16  C   UNL     1      46.491   3.327   6.468  0.00  0.00    +0.000 A 
BRANCH  11  18
ATOM     17  C   UNL     1      46.903   0.962   4.008  0.00  0.00    +0.000 C 
ATOM     18  O   UNL     1      47.470   1.949   4.862  0.00  0.00    +0.000 OA
ENDBRANCH  11  18
ENDBRANCH  10  14
ENDBRANCH   8  10
ENDBRANCH   7   8
ENDBRANCH   1   7
BRANCH   4  19
ATOM     19  C   UNL     1      46.977   8.182  13.179  0.00  0.00    +0.000 C 
BRANCH  19  20
ATOM     20  N   UNL     1      47.388   7.619  14.438  0.00  0.00    +0.000 N 
ATOM     21  C   UNL     1      48.476   6.792  14.526  0.00  0.00    +0.000 C 
ATOM     22  O   UNL     1      49.175   6.526  13.551  0.00  0.00    +0.000 OA
ATOM     23  H   UNL     1      46.705   7.632  15.188  0.00  0.00    +0.000 HD
BRANCH  21  24
ATOM     24  C   UNL     1      48.808   6.294  15.866  0.00  0.00    +0.000 A 
ATOM     25  C   UNL     1      49.689   7.008  16.666  0.00  0.00    +0.000 A 
ATOM     26  S   UNL     1      49.909   6.327  18.215  0.00  0.00    +0.000 S 
ATOM     27  C   UNL     1      48.876   5.026  17.849  0.00  0.00    +0.000 A 
ATOM     28  N   UNL     1      48.637   4.045  18.760  0.00  0.00    +0.000 NA
ATOM     29  C   UNL     1      47.853   3.108  18.344  0.00  0.00    +0.000 A 
ATOM     30  N   UNL     1      47.284   3.062  17.098  0.00  0.00    +0.000 N 
ATOM     31  C   UNL     1      47.486   4.037  16.155  0.00  0.00    +0.000 A 
ATOM     32  O   UNL     1      46.942   3.976  15.057  0.00  0.00    +0.000 OA
ATOM     33  C   UNL     1      48.359   5.117  16.569  0.00  0.00    +0.000 A 
ATOM     34  H   UNL     1      46.676   2.301  16.832  0.00  0.00    +0.000 HD
ENDBRANCH  21  24
ENDBRANCH  19  20
ENDBRANCH   4  19
TORSDOF 8
ENDMDL
MODEL 2
REMARK VINA RESULT:    -8.173      1.970      2.727
REMARK INTER + INTRA:         -12.586
REMARK INTER:                 -11.469
REMARK INTRA:                  -1.117
REMARK UNBOUND:                -0.591
REMARK  Name = 
REMARK  10 active torsions:
REMARK  status: ('A' for Active; 'I' for Inactive)
REMARK    1  A    between atoms: C_1  and  O_2
REMARK    2  A    between atoms: O_2  and  C_3
REMARK    3  A    between atoms: C_6  and  C_7
REMARK    4  A    between atoms: C_7  and  N_8
REMARK    5  A    between atoms: N_8  and  C_9
REMARK    6  A    between atoms: N_8  and  C_10
REMARK    7  A    between atoms: C_10  and  C_11
REMARK    8  A    between atoms: C_14  and  C_15
REMARK    9  A    between atoms: C_15  and  N_16
REMARK   10  A    between atoms: C_17  and  C_19
REMARK                            x       y       z     vdW  Elec       q    Type
REMARK                         _______ _______ _______ _____ _____    ______ ____
ROOT
ATOM      1  C   UNL     1      45.938   4.999  12.602  0.00  0.00    +0.000 A 
ATOM      2  C   UNL     1      46.526   6.066  11.909  0.00  0.00    +0.000 A 
ATOM      3  C   UNL     1      47.576   6.792  12.480  0.00  0.00    +0.000 A 
ATOM      4  C   UNL     1      48.061   6.458  13.752  0.00  0.00    +0.000 A 
ATOM      5  C   UNL     1      47.427   5.437  14.470  0.00  0.00    +0.000 A 
ATOM      6  C   UNL     1      46.379   4.713  13.901  0.00  0.00    +0.000 A 
ENDROOT
BRANCH   1   7
ATOM      7  C   UNL     1      44.860   4.151  11.959  0.00  0.00    +0.000 C 
BRANCH   7   8
ATOM      8  N   UNL     1      44.168   4.808  10.833  0.00  0.00    +0.000 NA
ATOM      9  C   UNL     1      43.008   5.544  11.352  0.00  0.00    +0.000 C 
BRANCH   8  10
ATOM     10  C   UNL     1      43.773   3.835   9.793  0.00  0.00    +0.000 C 
BRANCH  10  14
ATOM     11  C   UNL     1      47.030   2.471   7.288  0.00  0.00    +0.000 A 
ATOM     12  C   UNL     1      46.723   3.829   7.367  0.00  0.00    +0.000 A 
ATOM     13  C   UNL     1      45.697   4.268   8.207  0.00  0.00    +0.000 A 
ATOM     14  C   UNL     1      44.953   3.357   8.967  0.00  0.00    +0.000 A 
ATOM     15  C   UNL     1      45.283   1.997   8.908  0.00  0.00    +0.000 A 
ATOM     16  C   UNL     1      46.313   1.561   8.070  0.00  0.00    +0.000 A 
BRANCH  11  18
ATOM     17  C   UNL     1      47.544   0.943   5.549  0.00  0.00    +0.000 C 
ATOM     18  O   UNL     1      47.991   1.912   6.489  0.00  0.00    +0.000 OA
ENDBRANCH  11  18
ENDBRANCH  10  14
ENDBRANCH   8  10
ENDBRANCH   7   8
ENDBRANCH   1   7
BRANCH   4  19
ATOM     19  C   UNL     1      49.230   7.190  14.356  0.00  0.00    +0.000 C 
BRANCH  19  20
ATOM     20  N   UNL     1      49.070   7.344  15.777  0.00  0.00    +0.000 N 
ATOM     21  C   UNL     1      49.847   6.642  16.661  0.00  0.00    +0.000 C 
ATOM     22  O   UNL     1      50.738   5.884  16.287  0.00  0.00    +0.000 OA
ATOM     23  H   UNL     1      48.206   7.770  16.096  0.00  0.00    +0.000 HD
BRANCH  21  24
ATOM     24  C   UNL     1      49.603   6.896  18.085  0.00  0.00    +0.000 A 
ATOM     25  C   UNL     1      49.749   8.182  18.588  0.00  0.00    +0.000 A 
ATOM     26  S   UNL     1      49.361   8.315  20.244  0.00  0.00    +0.000 S 
ATOM     27  C   UNL     1      49.038   6.648  20.358  0.00  0.00    +0.000 A 
ATOM     28  N   UNL     1      48.663   6.087  21.539  0.00  0.00    +0.000 NA
ATOM     29  C   UNL     1      48.473   4.812  21.488  0.00  0.00    +0.000 A 
ATOM     30  N   UNL     1      48.622   4.044  20.363  0.00  0.00    +0.000 N 
ATOM     31  C   UNL     1      48.983   4.571  19.149  0.00  0.00    +0.000 A 
ATOM     32  O   UNL     1      49.085   3.858  18.156  0.00  0.00    +0.000 OA
ATOM     33  C   UNL     1      49.210   6.002  19.147  0.00  0.00    +0.000 A 
ATOM     34  H   UNL     1      48.456   3.049  20.387  0.00  0.00    +0.000 HD
ENDBRANCH  21  24
ENDBRANCH  19  20
ENDBRANCH   4  19
TORSDOF 8
ENDMDL
MODEL 3
REMARK VINA RESULT:    -7.936      2.329      2.979
REMARK INTER + INTRA:         -12.238
REMARK INTER:                 -10.909
REMARK INTRA:                  -1.329
REMARK UNBOUND:                -0.591
REMARK  Name = 
REMARK  10 active torsions:
REMARK  status: ('A' for Active; 'I' for Inactive)
REMARK    1  A    between atoms: C_1  and  O_2
REMARK    2  A    between atoms: O_2  and  C_3
REMARK    3  A    between atoms: C_6  and  C_7
REMARK    4  A    between atoms: C_7  and  N_8
REMARK    5  A    between atoms: N_8  and  C_9
REMARK    6  A    between atoms: N_8  and  C_10
REMARK    7  A    between atoms: C_10  and  C_11
REMARK    8  A    between atoms: C_14  and  C_15
REMARK    9  A    between atoms: C_15  and  N_16
REMARK   10  A    between atoms: C_17  and  C_19
REMARK                            x       y       z     vdW  Elec       q    Type
REMARK                         _______ _______ _______ _____ _____    ______ ____
ROOT
ATOM      1  C   UNL     1      46.165   5.195  12.586  0.00  0.00    +0.000 A 
ATOM      2  C   UNL     1      46.557   6.195  11.685  0.00  0.00    +0.000 A 
ATOM      3  C   UNL     1      47.551   7.115  12.032  0.00  0.00    +0.000 A 
ATOM      4  C   UNL     1      48.177   7.045  13.283  0.00  0.00    +0.000 A 
ATOM      5  C   UNL     1      47.738   6.089  14.207  0.00  0.00    +0.000 A 
ATOM      6  C   UNL     1      46.745   5.172  13.861  0.00  0.00    +0.000 A 
ENDROOT
BRANCH   1   7
ATOM      7  C   UNL     1      45.152   4.141  12.189  0.00  0.00    +0.000 C 
BRANCH   7   8
ATOM      8  N   UNL     1      44.172   4.596  11.184  0.00  0.00    +0.000 NA
ATOM      9  C   UNL     1      42.985   5.113  11.878  0.00  0.00    +0.000 C 
BRANCH   8  10
ATOM     10  C   UNL     1      43.820   3.517  10.238  0.00  0.00    +0.000 C 
BRANCH  10  14
ATOM     11  C   UNL     1      46.871   2.696   7.278  0.00  0.00    +0.000 A 
ATOM     12  C   UNL     1      46.469   4.008   7.530  0.00  0.00    +0.000 A 
ATOM     13  C   UNL     1      45.513   4.271   8.513  0.00  0.00    +0.000 A 
ATOM     14  C   UNL     1      44.933   3.227   9.248  0.00  0.00    +0.000 A 
ATOM     15  C   UNL     1      45.361   1.915   9.013  0.00  0.00    +0.000 A 
ATOM     16  C   UNL     1      46.322   1.655   8.031  0.00  0.00    +0.000 A 
BRANCH  11  18
ATOM     17  C   UNL     1      47.279   2.150   5.006  0.00  0.00    +0.000 C 
ATOM     18  O   UNL     1      47.777   2.304   6.329  0.00  0.00    +0.000 OA
ENDBRANCH  11  18
ENDBRANCH  10  14
ENDBRANCH   8  10
ENDBRANCH   7   8
ENDBRANCH   1   7
BRANCH   4  19
ATOM     19  C   UNL     1      49.292   7.989  13.650  0.00  0.00    +0.000 C 
BRANCH  19  20
ATOM     20  N   UNL     1      50.359   7.299  14.324  0.00  0.00    +0.000 N 
ATOM     21  C   UNL     1      50.582   7.470  15.665  0.00  0.00    +0.000 C 
ATOM     22  O   UNL     1      49.863   8.183  16.360  0.00  0.00    +0.000 OA
ATOM     23  H   UNL     1      51.089   6.906  13.740  0.00  0.00    +0.000 HD
BRANCH  21  24
ATOM     24  C   UNL     1      51.689   6.700  16.243  0.00  0.00    +0.000 A 
ATOM     25  C   UNL     1      52.992   7.158  16.102  0.00  0.00    +0.000 A 
ATOM     26  S   UNL     1      54.147   6.182  16.892  0.00  0.00    +0.000 S 
ATOM     27  C   UNL     1      52.951   5.085  17.404  0.00  0.00    +0.000 A 
ATOM     28  N   UNL     1      53.277   3.981  18.128  0.00  0.00    +0.000 NA
ATOM     29  C   UNL     1      52.276   3.224  18.429  0.00  0.00    +0.000 A 
ATOM     30  N   UNL     1      50.977   3.469  18.072  0.00  0.00    +0.000 N 
ATOM     31  C   UNL     1      50.601   4.577  17.355  0.00  0.00    +0.000 A 
ATOM     32  O   UNL     1      49.425   4.778  17.072  0.00  0.00    +0.000 OA
ATOM     33  C   UNL     1      51.687   5.465  16.990  0.00  0.00    +0.000 A 
ATOM     34  H   UNL     1      50.236   2.838  18.340  0.00  0.00    +0.000 HD
ENDBRANCH  21  24
ENDBRANCH  19  20
ENDBRANCH   4  19
TORSDOF 8
ENDMDL
MODEL 4
REMARK VINA RESULT:    -7.719      3.035      8.730
REMARK INTER + INTRA:         -11.920
REMARK INTER:                 -10.172
REMARK INTRA:                  -1.749
REMARK UNBOUND:                -0.591
REMARK  Name = 
REMARK  10 active torsions:
REMARK  status: ('A' for Active; 'I' for Inactive)
REMARK    1  A    between atoms: C_1  and  O_2
REMARK    2  A    between atoms: O_2  and  C_3
REMARK    3  A    between atoms: C_6  and  C_7
REMARK    4  A    between atoms: C_7  and  N_8
REMARK    5  A    between atoms: N_8  and  C_9
REMARK    6  A    between atoms: N_8  and  C_10
REMARK    7  A    between atoms: C_10  and  C_11
REMARK    8  A    between atoms: C_14  and  C_15
REMARK    9  A    between atoms: C_15  and  N_16
REMARK   10  A    between atoms: C_17  and  C_19
REMARK                            x       y       z     vdW  Elec       q    Type
REMARK                         _______ _______ _______ _____ _____    ______ ____
ROOT
ATOM      1  C   UNL     1      48.845   7.991  16.215  0.00  0.00    +0.000 A 
ATOM      2  C   UNL     1      48.238   9.097  15.605  0.00  0.00    +0.000 A 
ATOM      3  C   UNL     1      47.875   9.055  14.255  0.00  0.00    +0.000 A 
ATOM      4  C   UNL     1      48.106   7.900  13.494  0.00  0.00    +0.000 A 
ATOM      5  C   UNL     1      48.774   6.822  14.087  0.00  0.00    +0.000 A 
ATOM      6  C   UNL     1      49.137   6.865  15.433  0.00  0.00    +0.000 A 
ENDROOT
BRANCH   1   7
ATOM      7  C   UNL     1      49.163   7.994  17.696  0.00  0.00    +0.000 C 
BRANCH   7   8
ATOM      8  N   UNL     1      48.077   7.467  18.546  0.00  0.00    +0.000 NA
ATOM      9  C   UNL     1      47.512   8.571  19.332  0.00  0.00    +0.000 C 
BRANCH   8  10
ATOM     10  C   UNL     1      48.548   6.368  19.414  0.00  0.00    +0.000 C 
BRANCH  10  14
ATOM     11  C   UNL     1      49.912   2.847  17.297  0.00  0.00    +0.000 A 
ATOM     12  C   UNL     1      48.554   3.160  17.341  0.00  0.00    +0.000 A 
ATOM     13  C   UNL     1      48.123   4.318  17.991  0.00  0.00    +0.000 A 
ATOM     14  C   UNL     1      49.039   5.171  18.621  0.00  0.00    +0.000 A 
ATOM     15  C   UNL     1      50.404   4.869  18.549  0.00  0.00    +0.000 A 
ATOM     16  C   UNL     1      50.834   3.712  17.893  0.00  0.00    +0.000 A 
BRANCH  11  18
ATOM     17  C   UNL     1      51.649   1.232  17.311  0.00  0.00    +0.000 C 
ATOM     18  O   UNL     1      50.460   1.735  16.715  0.00  0.00    +0.000 OA
ENDBRANCH  11  18
ENDBRANCH  10  14
ENDBRANCH   8  10
ENDBRANCH   7   8
ENDBRANCH   1   7
BRANCH   4  19
ATOM     19  C   UNL     1      47.667   7.815  12.056  0.00  0.00    +0.000 C 
BRANCH  19  20
ATOM     20  N   UNL     1      46.977   6.581  11.794  0.00  0.00    +0.000 N 
ATOM     21  C   UNL     1      45.637   6.447  12.049  0.00  0.00    +0.000 C 
ATOM     22  O   UNL     1      44.957   7.378  12.472  0.00  0.00    +0.000 OA
ATOM     23  H   UNL     1      47.551   5.753  11.676  0.00  0.00    +0.000 HD
BRANCH  21  24
ATOM     24  C   UNL     1      45.041   5.146  11.725  0.00  0.00    +0.000 A 
ATOM     25  C   UNL     1      44.359   4.439  12.706  0.00  0.00    +0.000 A 
ATOM     26  S   UNL     1      43.670   2.983  12.144  0.00  0.00    +0.000 S 
ATOM     27  C   UNL     1      44.305   3.222  10.583  0.00  0.00    +0.000 A 
ATOM     28  N   UNL     1      44.095   2.311   9.595  0.00  0.00    +0.000 NA
ATOM     29  C   UNL     1      44.652   2.606   8.469  0.00  0.00    +0.000 A 
ATOM     30  N   UNL     1      45.400   3.730   8.238  0.00  0.00    +0.000 N 
ATOM     31  C   UNL     1      45.624   4.682   9.201  0.00  0.00    +0.000 A 
ATOM     32  O   UNL     1      46.280   5.688   8.954  0.00  0.00    +0.000 OA
ATOM     33  C   UNL     1      45.020   4.402  10.488  0.00  0.00    +0.000 A 
ATOM     34  H   UNL     1      45.809   3.906   7.333  0.00  0.00    +0.000 HD
ENDBRANCH  21  24
ENDBRANCH  19  20
ENDBRANCH   4  19
TORSDOF 8
ENDMDL
MODEL 5
REMARK VINA RESULT:    -7.677      2.404      4.219
REMARK INTER + INTRA:         -11.858
REMARK INTER:                 -11.348
REMARK INTRA:                  -0.510
REMARK UNBOUND:                -0.591
REMARK  Name = 
REMARK  10 active torsions:
REMARK  status: ('A' for Active; 'I' for Inactive)
REMARK    1  A    between atoms: C_1  and  O_2
REMARK    2  A    between atoms: O_2  and  C_3
REMARK    3  A    between atoms: C_6  and  C_7
REMARK    4  A    between atoms: C_7  and  N_8
REMARK    5  A    between atoms: N_8  and  C_9
REMARK    6  A    between atoms: N_8  and  C_10
REMARK    7  A    between atoms: C_10  and  C_11
REMARK    8  A    between atoms: C_14  and  C_15
REMARK    9  A    between atoms: C_15  and  N_16
REMARK   10  A    between atoms: C_17  and  C_19
REMARK                            x       y       z     vdW  Elec       q    Type
REMARK                         _______ _______ _______ _____ _____    ______ ____
ROOT
ATOM      1  C   UNL     1      45.702   3.517   7.915  0.00  0.00    +0.000 A 
ATOM      2  C   UNL     1      45.144   2.456   8.643  0.00  0.00    +0.000 A 
ATOM      3  C   UNL     1      44.758   2.633   9.975  0.00  0.00    +0.000 A 
ATOM      4  C   UNL     1      44.916   3.877  10.600  0.00  0.00    +0.000 A 
ATOM      5  C   UNL     1      45.536   4.915   9.894  0.00  0.00    +0.000 A 
ATOM      6  C   UNL     1      45.922   4.738   8.565  0.00  0.00    +0.000 A 
ENDROOT
BRANCH   1   7
ATOM      7  C   UNL     1      46.043   3.361   6.447  0.00  0.00    +0.000 C 
BRANCH   7   8
ATOM      8  N   UNL     1      46.755   2.109   6.124  0.00  0.00    +0.000 NA
ATOM      9  C   UNL     1      47.875   1.944   7.058  0.00  0.00    +0.000 C 
BRANCH   8  10
ATOM     10  C   UNL     1      47.213   2.089   4.719  0.00  0.00    +0.000 C 
BRANCH  10  14
ATOM     11  C   UNL     1      45.792  -1.471   2.707  0.00  0.00    +0.000 A 
ATOM     12  C   UNL     1      45.454  -0.207   2.224  0.00  0.00    +0.000 A 
ATOM     13  C   UNL     1      45.947   0.938   2.854  0.00  0.00    +0.000 A 
ATOM     14  C   UNL     1      46.772   0.838   3.982  0.00  0.00    +0.000 A 
ATOM     15  C   UNL     1      47.134  -0.433   4.445  0.00  0.00    +0.000 A 
ATOM     16  C   UNL     1      46.643  -1.577   3.810  0.00  0.00    +0.000 A 
BRANCH  11  18
ATOM     17  C   UNL     1      46.322  -3.710   2.129  0.00  0.00    +0.000 C 
ATOM     18  O   UNL     1      45.358  -2.666   2.197  0.00  0.00    +0.000 OA
ENDBRANCH  11  18
ENDBRANCH  10  14
ENDBRANCH   8  10
ENDBRANCH   7   8
ENDBRANCH   1   7
BRANCH   4  19
ATOM     19  C   UNL     1      44.451   4.102  12.014  0.00  0.00    +0.000 C 
BRANCH  19  20
ATOM     20  N   UNL     1      45.404   4.881  12.760  0.00  0.00    +0.000 N 
ATOM     21  C   UNL     1      46.386   4.281  13.502  0.00  0.00    +0.000 C 
ATOM     22  O   UNL     1      46.527   3.061  13.535  0.00  0.00    +0.000 OA
ATOM     23  H   UNL     1      45.164   5.851  12.933  0.00  0.00    +0.000 HD
BRANCH  21  24
ATOM     24  C   UNL     1      47.310   5.180  14.205  0.00  0.00    +0.000 A 
ATOM     25  C   UNL     1      47.960   6.185  13.500  0.00  0.00    +0.000 A 
ATOM     26  S   UNL     1      48.941   7.179  14.480  0.00  0.00    +0.000 S 
ATOM     27  C   UNL     1      48.573   6.268  15.869  0.00  0.00    +0.000 A 
ATOM     28  N   UNL     1      49.114   6.582  17.076  0.00  0.00    +0.000 NA
ATOM     29  C   UNL     1      48.768   5.795  18.038  0.00  0.00    +0.000 A 
ATOM     30  N   UNL     1      47.930   4.720  17.905  0.00  0.00    +0.000 N 
ATOM     31  C   UNL     1      47.350   4.375  16.710  0.00  0.00    +0.000 A 
ATOM     32  O   UNL     1      46.586   3.420  16.631  0.00  0.00    +0.000 OA
ATOM     33  C   UNL     1      47.703   5.228  15.592  0.00  0.00    +0.000 A 
ATOM     34  H   UNL     1      47.696   4.142  18.698  0.00  0.00    +0.000 HD
ENDBRANCH  21  24
ENDBRANCH  19  20
ENDBRANCH   4  19
TORSDOF 8
ENDMDL
MODEL 6
REMARK VINA RESULT:    -7.470      4.223      9.222
REMARK INTER + INTRA:         -11.555
REMARK INTER:                  -9.475
REMARK INTRA:                  -2.080
REMARK UNBOUND:                -0.591
REMARK  Name = 
REMARK  10 active torsions:
REMARK  status: ('A' for Active; 'I' for Inactive)
REMARK    1  A    between atoms: C_1  and  O_2
REMARK    2  A    between atoms: O_2  and  C_3
REMARK    3  A    between atoms: C_6  and  C_7
REMARK    4  A    between atoms: C_7  and  N_8
REMARK    5  A    between atoms: N_8  and  C_9
REMARK    6  A    between atoms: N_8  and  C_10
REMARK    7  A    between atoms: C_10  and  C_11
REMARK    8  A    between atoms: C_14  and  C_15
REMARK    9  A    between atoms: C_15  and  N_16
REMARK   10  A    between atoms: C_17  and  C_19
REMARK                            x       y       z     vdW  Elec       q    Type
REMARK                         _______ _______ _______ _____ _____    ______ ____
ROOT
ATOM      1  C   UNL     1      49.120   5.574  19.925  0.00  0.00    +0.000 A 
ATOM      2  C   UNL     1      49.882   4.620  19.236  0.00  0.00    +0.000 A 
ATOM      3  C   UNL     1      49.345   3.938  18.140  0.00  0.00    +0.000 A 
ATOM      4  C   UNL     1      48.038   4.205  17.709  0.00  0.00    +0.000 A 
ATOM      5  C   UNL     1      47.256   5.107  18.440  0.00  0.00    +0.000 A 
ATOM      6  C   UNL     1      47.792   5.787  19.535  0.00  0.00    +0.000 A 
ENDROOT
BRANCH   1   7
ATOM      7  C   UNL     1      49.720   6.380  21.059  0.00  0.00    +0.000 C 
BRANCH   7   8
ATOM      8  N   UNL     1      50.721   7.375  20.626  0.00  0.00    +0.000 NA
ATOM      9  C   UNL     1      51.413   7.900  21.810  0.00  0.00    +0.000 C 
BRANCH   8  10
ATOM     10  C   UNL     1      50.105   8.459  19.833  0.00  0.00    +0.000 C 
BRANCH  10  14
ATOM     11  C   UNL     1      50.027   7.469  15.619  0.00  0.00    +0.000 A 
ATOM     12  C   UNL     1      48.956   8.143  16.203  0.00  0.00    +0.000 A 
ATOM     13  C   UNL     1      49.002   8.495  17.554  0.00  0.00    +0.000 A 
ATOM     14  C   UNL     1      50.112   8.165  18.344  0.00  0.00    +0.000 A 
ATOM     15  C   UNL     1      51.198   7.515  17.746  0.00  0.00    +0.000 A 
ATOM     16  C   UNL     1      51.151   7.168  16.393  0.00  0.00    +0.000 A 
BRANCH  11  18
ATOM     17  C   UNL     1      50.091   8.066  13.324  0.00  0.00    +0.000 C 
ATOM     18  O   UNL     1      50.095   7.048  14.318  0.00  0.00    +0.000 OA
ENDBRANCH  11  18
ENDBRANCH  10  14
ENDBRANCH   8  10
ENDBRANCH   7   8
ENDBRANCH   1   7
BRANCH   4  19
ATOM     19  C   UNL     1      47.465   3.524  16.494  0.00  0.00    +0.000 C 
BRANCH  19  20
ATOM     20  N   UNL     1      46.872   4.477  15.594  0.00  0.00    +0.000 N 
ATOM     21  C   UNL     1      46.792   4.230  14.249  0.00  0.00    +0.000 C 
ATOM     22  O   UNL     1      47.181   3.175  13.754  0.00  0.00    +0.000 OA
ATOM     23  H   UNL     1      46.767   5.426  15.938  0.00  0.00    +0.000 HD
BRANCH  21  24
ATOM     24  C   UNL     1      46.150   5.269  13.435  0.00  0.00    +0.000 A 
ATOM     25  C   UNL     1      46.818   6.462  13.192  0.00  0.00    +0.000 A 
ATOM     26  S   UNL     1      45.961   7.528  12.172  0.00  0.00    +0.000 S 
ATOM     27  C   UNL     1      44.645   6.455  12.065  0.00  0.00    +0.000 A 
ATOM     28  N   UNL     1      43.539   6.774  11.341  0.00  0.00    +0.000 NA
ATOM     29  C   UNL     1      42.609   5.880  11.364  0.00  0.00    +0.000 A 
ATOM     30  N   UNL     1      42.681   4.695  12.046  0.00  0.00    +0.000 N 
ATOM     31  C   UNL     1      43.783   4.326  12.777  0.00  0.00    +0.000 A 
ATOM     32  O   UNL     1      43.824   3.247  13.357  0.00  0.00    +0.000 OA
ATOM     33  C   UNL     1      44.862   5.294  12.785  0.00  0.00    +0.000 A 
ATOM     34  H   UNL     1      41.919   4.034  12.024  0.00  0.00    +0.000 HD
ENDBRANCH  21  24
ENDBRANCH  19  20
ENDBRANCH   4  19
TORSDOF 8
ENDMDL
MODEL 7
REMARK VINA RESULT:    -7.303      4.264      9.343
REMARK INTER + INTRA:         -11.310
REMARK INTER:                  -9.235
REMARK INTRA:                  -2.075
REMARK UNBOUND:                -0.591
REMARK  Name = 
REMARK  10 active torsions:
REMARK  status: ('A' for Active; 'I' for Inactive)
REMARK    1  A    between atoms: C_1  and  O_2
REMARK    2  A    between atoms: O_2  and  C_3
REMARK    3  A    between atoms: C_6  and  C_7
REMARK    4  A    between atoms: C_7  and  N_8
REMARK    5  A    between atoms: N_8  and  C_9
REMARK    6  A    between atoms: N_8  and  C_10
REMARK    7  A    between atoms: C_10  and  C_11
REMARK    8  A    between atoms: C_14  and  C_15
REMARK    9  A    between atoms: C_15  and  N_16
REMARK   10  A    between atoms: C_17  and  C_19
REMARK                            x       y       z     vdW  Elec       q    Type
REMARK                         _______ _______ _______ _____ _____    ______ ____
ROOT
ATOM      1  C   UNL     1      51.165   3.718  18.370  0.00  0.00    +0.000 A 
ATOM      2  C   UNL     1      50.830   2.715  17.450  0.00  0.00    +0.000 A 
ATOM      3  C   UNL     1      49.506   2.550  17.029  0.00  0.00    +0.000 A 
ATOM      4  C   UNL     1      48.496   3.391  17.516  0.00  0.00    +0.000 A 
ATOM      5  C   UNL     1      48.822   4.347  18.486  0.00  0.00    +0.000 A 
ATOM      6  C   UNL     1      50.142   4.511  18.907  0.00  0.00    +0.000 A 
ENDROOT
BRANCH   1   7
ATOM      7  C   UNL     1      52.607   3.962  18.767  0.00  0.00    +0.000 C 
BRANCH   7   8
ATOM      8  N   UNL     1      53.387   4.715  17.765  0.00  0.00    +0.000 NA
ATOM      9  C   UNL     1      54.746   4.162  17.708  0.00  0.00    +0.000 C 
BRANCH   8  10
ATOM     10  C   UNL     1      53.402   6.163  18.060  0.00  0.00    +0.000 C 
BRANCH  10  14
ATOM     11  C   UNL     1      50.094   8.334  16.305  0.00  0.00    +0.000 A 
ATOM     12  C   UNL     1      50.689   7.279  15.614  0.00  0.00    +0.000 A 
ATOM     13  C   UNL     1      51.730   6.556  16.201  0.00  0.00    +0.000 A 
ATOM     14  C   UNL     1      52.202   6.887  17.479  0.00  0.00    +0.000 A 
ATOM     15  C   UNL     1      51.582   7.927  18.181  0.00  0.00    +0.000 A 
ATOM     16  C   UNL     1      50.537   8.645  17.593  0.00  0.00    +0.000 A 
BRANCH  11  18
ATOM     17  C   UNL     1      48.045   9.443  16.753  0.00  0.00    +0.000 C 
ATOM     18  O   UNL     1      49.086   9.132  15.834  0.00  0.00    +0.000 OA
ENDBRANCH  11  18
ENDBRANCH  10  14
ENDBRANCH   8  10
ENDBRANCH   7   8
ENDBRANCH   1   7
BRANCH   4  19
ATOM     19  C   UNL     1      47.077   3.267  17.028  0.00  0.00    +0.000 C 
BRANCH  19  20
ATOM     20  N   UNL     1      46.760   4.300  16.079  0.00  0.00    +0.000 N 
ATOM     21  C   UNL     1      46.943   4.111  14.734  0.00  0.00    +0.000 C 
ATOM     22  O   UNL     1      47.344   3.045  14.273  0.00  0.00    +0.000 OA
ATOM     23  H   UNL     1      46.659   5.241  16.445  0.00  0.00    +0.000 HD
BRANCH  21  24
ATOM     24  C   UNL     1      46.567   5.231  13.863  0.00  0.00    +0.000 A 
ATOM     25  C   UNL     1      47.433   6.305  13.713  0.00  0.00    +0.000 A 
ATOM     26  S   UNL     1      46.874   7.484  12.614  0.00  0.00    +0.000 S 
ATOM     27  C   UNL     1      45.431   6.625  12.343  0.00  0.00    +0.000 A 
ATOM     28  N   UNL     1      44.479   7.105  11.499  0.00  0.00    +0.000 NA
ATOM     29  C   UNL     1      43.426   6.365  11.404  0.00  0.00    +0.000 A 
ATOM     30  N   UNL     1      43.237   5.186  12.076  0.00  0.00    +0.000 N 
ATOM     31  C   UNL     1      44.176   4.658  12.925  0.00  0.00    +0.000 A 
ATOM     32  O   UNL     1      43.984   3.588  13.493  0.00  0.00    +0.000 OA
ATOM     33  C   UNL     1      45.382   5.448  13.069  0.00  0.00    +0.000 A 
ATOM     34  H   UNL     1      42.390   4.650  11.957  0.00  0.00    +0.000 HD
ENDBRANCH  21  24
ENDBRANCH  19  20
ENDBRANCH   4  19
TORSDOF 8
ENDMDL
MODEL 8
REMARK VINA RESULT:    -7.132      5.066     10.066
REMARK INTER + INTRA:         -11.059
REMARK INTER:                  -9.894
REMARK INTRA:                  -1.165
REMARK UNBOUND:                -0.591
REMARK  Name = 
REMARK  10 active torsions:
REMARK  status: ('A' for Active; 'I' for Inactive)
REMARK    1  A    between atoms: C_1  and  O_2
REMARK    2  A    between atoms: O_2  and  C_3
REMARK    3  A    between atoms: C_6  and  C_7
REMARK    4  A    between atoms: C_7  and  N_8
REMARK    5  A    between atoms: N_8  and  C_9
REMARK    6  A    between atoms: N_8  and  C_10
REMARK    7  A    between atoms: C_10  and  C_11
REMARK    8  A    between atoms: C_14  and  C_15
REMARK    9  A    between atoms: C_15  and  N_16
REMARK   10  A    between atoms: C_17  and  C_19
REMARK                            x       y       z     vdW  Elec       q    Type
REMARK                         _______ _______ _______ _____ _____    ______ ____
ROOT
ATOM      1  C   UNL     1      51.375   3.902  17.826  0.00  0.00    +0.000 A 
ATOM      2  C   UNL     1      50.909   2.647  17.410  0.00  0.00    +0.000 A 
ATOM      3  C   UNL     1      49.559   2.457  17.098  0.00  0.00    +0.000 A 
ATOM      4  C   UNL     1      48.653   3.523  17.189  0.00  0.00    +0.000 A 
ATOM      5  C   UNL     1      49.107   4.758  17.670  0.00  0.00    +0.000 A 
ATOM      6  C   UNL     1      50.454   4.946  17.982  0.00  0.00    +0.000 A 
ENDROOT
BRANCH   1   7
ATOM      7  C   UNL     1      52.849   4.141  18.083  0.00  0.00    +0.000 C 
BRANCH   7   8
ATOM      8  N   UNL     1      53.493   3.100  18.907  0.00  0.00    +0.000 NA
ATOM      9  C   UNL     1      53.635   3.602  20.280  0.00  0.00    +0.000 C 
BRANCH   8  10
ATOM     10  C   UNL     1      54.794   2.685  18.344  0.00  0.00    +0.000 C 
BRANCH  10  14
ATOM     11  C   UNL     1      54.870  -1.607  17.778  0.00  0.00    +0.000 A 
ATOM     12  C   UNL     1      54.561  -0.761  16.712  0.00  0.00    +0.000 A 
ATOM     13  C   UNL     1      54.577   0.624  16.890  0.00  0.00    +0.000 A 
ATOM     14  C   UNL     1      54.885   1.184  18.137  0.00  0.00    +0.000 A 
ATOM     15  C   UNL     1      55.223   0.333  19.196  0.00  0.00    +0.000 A 
ATOM     16  C   UNL     1      55.212  -1.053  19.014  0.00  0.00    +0.000 A 
BRANCH  11  18
ATOM     17  C   UNL     1      54.016  -3.630  18.674  0.00  0.00    +0.000 C 
ATOM     18  O   UNL     1      54.867  -2.975  17.741  0.00  0.00    +0.000 OA
ENDBRANCH  11  18
ENDBRANCH  10  14
ENDBRANCH   8  10
ENDBRANCH   7   8
ENDBRANCH   1   7
BRANCH   4  19
ATOM     19  C   UNL     1      47.209   3.352  16.799  0.00  0.00    +0.000 C 
BRANCH  19  20
ATOM     20  N   UNL     1      46.797   4.368  15.867  0.00  0.00    +0.000 N 
ATOM     21  C   UNL     1      46.935   4.192  14.516  0.00  0.00    +0.000 C 
ATOM     22  O   UNL     1      47.375   3.151  14.034  0.00  0.00    +0.000 OA
ATOM     23  H   UNL     1      46.659   5.301  16.241  0.00  0.00    +0.000 HD
BRANCH  21  24
ATOM     24  C   UNL     1      46.463   5.291  13.665  0.00  0.00    +0.000 A 
ATOM     25  C   UNL     1      47.269   6.405  13.472  0.00  0.00    +0.000 A 
ATOM     26  S   UNL     1      46.600   7.554  12.403  0.00  0.00    +0.000 S 
ATOM     27  C   UNL     1      45.186   6.627  12.205  0.00  0.00    +0.000 A 
ATOM     28  N   UNL     1      44.171   7.060  11.410  0.00  0.00    +0.000 NA
ATOM     29  C   UNL     1      43.151   6.271  11.369  0.00  0.00    +0.000 A 
ATOM     30  N   UNL     1      43.052   5.086  12.049  0.00  0.00    +0.000 N 
ATOM     31  C   UNL     1      44.058   4.604  12.849  0.00  0.00    +0.000 A 
ATOM     32  O   UNL     1      43.945   3.528  13.426  0.00  0.00    +0.000 OA
ATOM     33  C   UNL     1      45.230   5.451  12.932  0.00  0.00    +0.000 A 
ATOM     34  H   UNL     1      42.226   4.510  11.974  0.00  0.00    +0.000 HD
ENDBRANCH  21  24
ENDBRANCH  19  20
ENDBRANCH   4  19
TORSDOF 8
ENDMDL
MODEL 9
REMARK VINA RESULT:    -7.127      4.679      6.500
REMARK INTER + INTRA:         -11.051
REMARK INTER:                  -9.575
REMARK INTRA:                  -1.476
REMARK UNBOUND:                -0.591
REMARK  Name = 
REMARK  10 active torsions:
REMARK  status: ('A' for Active; 'I' for Inactive)
REMARK    1  A    between atoms: C_1  and  O_2
REMARK    2  A    between atoms: O_2  and  C_3
REMARK    3  A    between atoms: C_6  and  C_7
REMARK    4  A    between atoms: C_7  and  N_8
REMARK    5  A    between atoms: N_8  and  C_9
REMARK    6  A    between atoms: N_8  and  C_10
REMARK    7  A    between atoms: C_10  and  C_11
REMARK    8  A    between atoms: C_14  and  C_15
REMARK    9  A    between atoms: C_15  and  N_16
REMARK   10  A    between atoms: C_17  and  C_19
REMARK                            x       y       z     vdW  Elec       q    Type
REMARK                         _______ _______ _______ _____ _____    ______ ____
ROOT
ATOM      1  C   UNL     1      45.765   6.288  12.739  0.00  0.00    +0.000 A 
ATOM      2  C   UNL     1      47.070   5.812  12.929  0.00  0.00    +0.000 A 
ATOM      3  C   UNL     1      48.163   6.678  12.832  0.00  0.00    +0.000 A 
ATOM      4  C   UNL     1      47.970   8.038  12.553  0.00  0.00    +0.000 A 
ATOM      5  C   UNL     1      46.672   8.497  12.296  0.00  0.00    +0.000 A 
ATOM      6  C   UNL     1      45.581   7.633  12.391  0.00  0.00    +0.000 A 
ENDROOT
BRANCH   1   7
ATOM      7  C   UNL     1      44.568   5.379  12.926  0.00  0.00    +0.000 C 
BRANCH   7   8
ATOM      8  N   UNL     1      43.814   5.112  11.685  0.00  0.00    +0.000 NA
ATOM      9  C   UNL     1      42.424   5.546  11.871  0.00  0.00    +0.000 C 
BRANCH   8  10
ATOM     10  C   UNL     1      43.891   3.688  11.296  0.00  0.00    +0.000 C 
BRANCH  10  14
ATOM     11  C   UNL     1      46.127   3.066   7.641  0.00  0.00    +0.000 A 
ATOM     12  C   UNL     1      45.567   1.983   8.317  0.00  0.00    +0.000 A 
ATOM     13  C   UNL     1      44.813   2.192   9.474  0.00  0.00    +0.000 A 
ATOM     14  C   UNL     1      44.621   3.485   9.981  0.00  0.00    +0.000 A 
ATOM     15  C   UNL     1      45.159   4.572   9.283  0.00  0.00    +0.000 A 
ATOM     16  C   UNL     1      45.909   4.360   8.123  0.00  0.00    +0.000 A 
BRANCH  11  18
ATOM     17  C   UNL     1      48.150   2.325   6.651  0.00  0.00    +0.000 C 
ATOM     18  O   UNL     1      46.902   2.994   6.515  0.00  0.00    +0.000 OA
ENDBRANCH  11  18
ENDBRANCH  10  14
ENDBRANCH   8  10
ENDBRANCH   7   8
ENDBRANCH   1   7
BRANCH   4  19
ATOM     19  C   UNL     1      49.130   8.996  12.506  0.00  0.00    +0.000 C 
BRANCH  19  20
ATOM     20  N   UNL     1      49.993   8.715  11.390  0.00  0.00    +0.000 N 
ATOM     21  C   UNL     1      51.309   8.381  11.575  0.00  0.00    +0.000 C 
ATOM     22  O   UNL     1      51.803   8.266  12.694  0.00  0.00    +0.000 OA
ATOM     23  H   UNL     1      49.679   9.030  10.478  0.00  0.00    +0.000 HD
BRANCH  21  24
ATOM     24  C   UNL     1      52.085   8.100  10.361  0.00  0.00    +0.000 A 
ATOM     25  C   UNL     1      52.543   6.811  10.122  0.00  0.00    +0.000 A 
ATOM     26  S   UNL     1      53.366   6.643   8.637  0.00  0.00    +0.000 S 
ATOM     27  C   UNL     1      53.184   8.299   8.288  0.00  0.00    +0.000 A 
ATOM     28  N   UNL     1      53.691   8.833   7.144  0.00  0.00    +0.000 NA
ATOM     29  C   UNL     1      53.502  10.103   7.018  0.00  0.00    +0.000 A 
ATOM     30  N   UNL     1      52.852  10.891   7.930  0.00  0.00    +0.000 N 
ATOM     31  C   UNL     1      52.312  10.392   9.089  0.00  0.00    +0.000 A 
ATOM     32  O   UNL     1      51.716  11.121   9.873  0.00  0.00    +0.000 OA
ATOM     33  C   UNL     1      52.494   8.967   9.283  0.00  0.00    +0.000 A 
ATOM     34  H   UNL     1      52.734  11.880   7.772  0.00  0.00    +0.000 HD
ENDBRANCH  21  24
ENDBRANCH  19  20
ENDBRANCH   4  19
TORSDOF 8
ENDMDL
