MODEL 1
REMARK VINA RESULT:    -7.431      0.000      0.000
REMARK INTER + INTRA:         -11.744
REMARK INTER:                 -10.472
REMARK INTRA:                  -1.273
REMARK UNBOUND:                -1.273
REMARK  Name = 
REMARK  8 active torsions:
REMARK  status: ('A' for Active; 'I' for Inactive)
REMARK    1  A    between atoms: C_1  and  O_2
REMARK    2  A    between atoms: O_2  and  C_3
REMARK    3  A    between atoms: C_7  and  C_8
REMARK    4  A    between atoms: N_10  and  C_11
REMARK    5  A    between atoms: C_11  and  C_12
REMARK    6  A    between atoms: C_15  and  C_16
REMARK    7  A    between atoms: C_16  and  N_17
REMARK    8  A    between atoms: C_18  and  C_20
REMARK                            x       y       z     vdW  Elec       q    Type
REMARK                         _______ _______ _______ _____ _____    ______ ____
ROOT
ATOM      1  C   UNL     1      44.919   4.583  11.535  0.00  0.00    +0.000 A 
ATOM      2  C   UNL     1      45.275   5.775  12.182  0.00  0.00    +0.000 A 
ATOM      3  C   UNL     1      46.045   5.752  13.351  0.00  0.00    +0.000 A 
ATOM      4  C   UNL     1      46.491   4.537  13.887  0.00  0.00    +0.000 A 
ATOM      5  C   UNL     1      46.123   3.345  13.248  0.00  0.00    +0.000 A 
ATOM      6  C   UNL     1      45.355   3.368  12.079  0.00  0.00    +0.000 A 
ENDROOT
BRANCH   1   7
ATOM      7  C   UNL     1      44.105   4.609  10.266  0.00  0.00    +0.000 C 
BRANCH   7  10
ATOM      8  C   UNL     1      45.662   4.140   8.430  0.00  0.00    +0.000 C 
ATOM      9  O   UNL     1      46.104   5.286   8.430  0.00  0.00    +0.000 OA
ATOM     10  N   UNL     1      44.653   3.717   9.270  0.00  0.00    +0.000 N 
ATOM     11  H   UNL     1      44.477   2.728   9.378  0.00  0.00    +0.000 HD
BRANCH   8  16
ATOM     12  C   UNL     1      46.910   0.790   7.199  0.00  0.00    +0.000 A 
ATOM     13  C   UNL     1      47.278   1.094   5.887  0.00  0.00    +0.000 A 
ATOM     14  C   UNL     1      47.145   2.399   5.403  0.00  0.00    +0.000 A 
ATOM     15  C   UNL     1      46.630   3.405   6.222  0.00  0.00    +0.000 A 
ATOM     16  C   UNL     1      46.245   3.105   7.533  0.00  0.00    +0.000 A 
ATOM     17  C   UNL     1      46.411   1.803   8.023  0.00  0.00    +0.000 A 
BRANCH  12  19
ATOM     18  C   UNL     1      46.626  -1.565   6.979  0.00  0.00    +0.000 C 
ATOM     19  O   UNL     1      46.979  -0.446   7.783  0.00  0.00    +0.000 OA
ENDBRANCH  12  19
ENDBRANCH   8  16
ENDBRANCH   7  10
ENDBRANCH   1   7
BRANCH   4  20
ATOM     20  C   UNL     1      47.323   4.500  15.145  0.00  0.00    +0.000 C 
BRANCH  20  21
ATOM     21  N   UNL     1      47.665   5.826  15.592  0.00  0.00    +0.000 N 
ATOM     22  C   UNL     1      48.821   6.063  16.292  0.00  0.00    +0.000 C 
ATOM     23  O   UNL     1      49.637   5.173  16.519  0.00  0.00    +0.000 OA
ATOM     24  H   UNL     1      46.914   6.509  15.625  0.00  0.00    +0.000 HD
BRANCH  22  25
ATOM     25  C   UNL     1      49.067   7.450  16.706  0.00  0.00    +0.000 A 
ATOM     26  C   UNL     1      49.287   7.739  18.048  0.00  0.00    +0.000 A 
ATOM     27  S   UNL     1      49.603   9.388  18.350  0.00  0.00    +0.000 S 
ATOM     28  C   UNL     1      49.405   9.783  16.706  0.00  0.00    +0.000 A 
ATOM     29  N   UNL     1      49.518  11.069  16.278  0.00  0.00    +0.000 NA
ATOM     30  C   UNL     1      49.313  11.229  15.013  0.00  0.00    +0.000 A 
ATOM     31  N   UNL     1      49.012  10.218  14.137  0.00  0.00    +0.000 N 
ATOM     32  C   UNL     1      48.915   8.902  14.520  0.00  0.00    +0.000 A 
ATOM     33  O   UNL     1      48.683   8.017  13.703  0.00  0.00    +0.000 OA
ATOM     34  C   UNL     1      49.124   8.669  15.936  0.00  0.00    +0.000 A 
ATOM     35  H   UNL     1      48.872  10.410  13.155  0.00  0.00    +0.000 HD
ENDBRANCH  22  25
ENDBRANCH  20  21
ENDBRANCH   4  20
TORSDOF 7
ENDMDL
MODEL 2
REMARK VINA RESULT:    -7.348      2.192      3.114
REMARK INTER + INTRA:         -11.628
REMARK INTER:                 -10.852
REMARK INTRA:                  -0.776
REMARK UNBOUND:                -1.273
REMARK  Name = 
REMARK  8 active torsions:
REMARK  status: ('A' for Active; 'I' for Inactive)
REMARK    1  A    between atoms: C_1  and  O_2
REMARK    2  A    between atoms: O_2  and  C_3
REMARK    3  A    between atoms: C_7  and  C_8
REMARK    4  A    between atoms: N_10  and  C_11
REMARK    5  A    between atoms: C_11  and  C_12
REMARK    6  A    between atoms: C_15  and  C_16
REMARK    7  A    between atoms: C_16  and  N_17
REMARK    8  A    between atoms: C_18  and  C_20
REMARK                            x       y       z     vdW  Elec       q    Type
REMARK                         _______ _______ _______ _____ _____    ______ ____
ROOT
ATOM      1  C   UNL     1      45.236   5.168  11.530  0.00  0.00    +0.000 A 
ATOM      2  C   UNL     1      45.877   4.403  12.515  0.00  0.00    +0.000 A 
ATOM      3  C   UNL     1      46.855   4.973  13.339  0.00  0.00    +0.000 A 
ATOM      4  C   UNL     1      47.200   6.325  13.207  0.00  0.00    +0.000 A 
ATOM      5  C   UNL     1      46.569   7.085  12.214  0.00  0.00    +0.000 A 
ATOM      6  C   UNL     1      45.591   6.516  11.391  0.00  0.00    +0.000 A 
ENDROOT
BRANCH   1   7
ATOM      7  C   UNL     1      44.170   4.560  10.655  0.00  0.00    +0.000 C 
BRANCH   7  10
ATOM      8  C   UNL     1      45.513   4.146   8.644  0.00  0.00    +0.000 C 
ATOM      9  O   UNL     1      45.711   5.342   8.454  0.00  0.00    +0.000 OA
ATOM     10  N   UNL     1      44.740   3.660   9.677  0.00  0.00    +0.000 N 
ATOM     11  H   UNL     1      44.785   2.678   9.914  0.00  0.00    +0.000 HD
BRANCH   8  16
ATOM     12  C   UNL     1      46.789   0.803   7.420  0.00  0.00    +0.000 A 
ATOM     13  C   UNL     1      47.306   1.143   6.169  0.00  0.00    +0.000 A 
ATOM     14  C   UNL     1      47.265   2.469   5.726  0.00  0.00    +0.000 A 
ATOM     15  C   UNL     1      46.693   3.461   6.525  0.00  0.00    +0.000 A 
ATOM     16  C   UNL     1      46.160   3.126   7.774  0.00  0.00    +0.000 A 
ATOM     17  C   UNL     1      46.234   1.801   8.227  0.00  0.00    +0.000 A 
BRANCH  12  19
ATOM     18  C   UNL     1      46.579  -1.542   7.059  0.00  0.00    +0.000 C 
ATOM     19  O   UNL     1      46.759  -0.455   7.958  0.00  0.00    +0.000 OA
ENDBRANCH  12  19
ENDBRANCH   8  16
ENDBRANCH   7  10
ENDBRANCH   1   7
BRANCH   4  20
ATOM     20  C   UNL     1      48.251   6.949  14.090  0.00  0.00    +0.000 C 
BRANCH  20  21
ATOM     21  N   UNL     1      48.079   6.567  15.469  0.00  0.00    +0.000 N 
ATOM     22  C   UNL     1      49.155   6.249  16.257  0.00  0.00    +0.000 C 
ATOM     23  O   UNL     1      50.310   6.330  15.844  0.00  0.00    +0.000 OA
ATOM     24  H   UNL     1      47.150   6.269  15.751  0.00  0.00    +0.000 HD
BRANCH  22  25
ATOM     25  C   UNL     1      48.866   5.865  17.644  0.00  0.00    +0.000 A 
ATOM     26  C   UNL     1      49.085   4.556  18.057  0.00  0.00    +0.000 A 
ATOM     27  S   UNL     1      48.742   4.292  19.707  0.00  0.00    +0.000 S 
ATOM     28  C   UNL     1      48.237   5.903  19.916  0.00  0.00    +0.000 A 
ATOM     29  N   UNL     1      47.781   6.342  21.120  0.00  0.00    +0.000 NA
ATOM     30  C   UNL     1      47.402   7.577  21.129  0.00  0.00    +0.000 A 
ATOM     31  N   UNL     1      47.445   8.413  20.044  0.00  0.00    +0.000 N 
ATOM     32  C   UNL     1      47.923   8.022  18.816  0.00  0.00    +0.000 A 
ATOM     33  O   UNL     1      47.984   8.807  17.877  0.00  0.00    +0.000 OA
ATOM     34  C   UNL     1      48.350   6.637  18.750  0.00  0.00    +0.000 A 
ATOM     35  H   UNL     1      47.141   9.374  20.119  0.00  0.00    +0.000 HD
ENDBRANCH  22  25
ENDBRANCH  20  21
ENDBRANCH   4  20
TORSDOF 7
ENDMDL
MODEL 3
REMARK VINA RESULT:    -7.211      2.037      3.590
REMARK INTER + INTRA:         -11.435
REMARK INTER:                 -10.312
REMARK INTRA:                  -1.123
REMARK UNBOUND:                -1.273
REMARK  Name = 
REMARK  8 active torsions:
REMARK  status: ('A' for Active; 'I' for Inactive)
REMARK    1  A    between atoms: C_1  and  O_2
REMARK    2  A    between atoms: O_2  and  C_3
REMARK    3  A    between atoms: C_7  and  C_8
REMARK    4  A    between atoms: N_10  and  C_11
REMARK    5  A    between atoms: C_11  and  C_12
REMARK    6  A    between atoms: C_15  and  C_16
REMARK    7  A    between atoms: C_16  and  N_17
REMARK    8  A    between atoms: C_18  and  C_20
REMARK                            x       y       z     vdW  Elec       q    Type
REMARK                         _______ _______ _______ _____ _____    ______ ____
ROOT
ATOM      1  C   UNL     1      45.424   6.863  11.479  0.00  0.00    +0.000 A 
ATOM      2  C   UNL     1      45.094   8.133  11.973  0.00  0.00    +0.000 A 
ATOM      3  C   UNL     1      45.915   8.771  12.910  0.00  0.00    +0.000 A 
ATOM      4  C   UNL     1      47.093   8.159  13.360  0.00  0.00    +0.000 A 
ATOM      5  C   UNL     1      47.415   6.884  12.876  0.00  0.00    +0.000 A 
ATOM      6  C   UNL     1      46.595   6.247  11.938  0.00  0.00    +0.000 A 
ENDROOT
BRANCH   1   7
ATOM      7  C   UNL     1      44.549   6.183  10.455  0.00  0.00    +0.000 C 
BRANCH   7  10
ATOM      8  C   UNL     1      44.894   4.011   9.369  0.00  0.00    +0.000 C 
ATOM      9  O   UNL     1      43.900   3.520   9.896  0.00  0.00    +0.000 OA
ATOM     10  N   UNL     1      45.318   5.301   9.607  0.00  0.00    +0.000 N 
ATOM     11  H   UNL     1      46.006   5.720   8.995  0.00  0.00    +0.000 HD
BRANCH   8  16
ATOM     12  C   UNL     1      46.593   1.090   7.673  0.00  0.00    +0.000 A 
ATOM     13  C   UNL     1      47.113   1.696   6.528  0.00  0.00    +0.000 A 
ATOM     14  C   UNL     1      46.934   3.066   6.313  0.00  0.00    +0.000 A 
ATOM     15  C   UNL     1      46.222   3.836   7.235  0.00  0.00    +0.000 A 
ATOM     16  C   UNL     1      45.686   3.233   8.377  0.00  0.00    +0.000 A 
ATOM     17  C   UNL     1      45.897   1.866   8.604  0.00  0.00    +0.000 A 
BRANCH  12  19
ATOM     18  C   UNL     1      46.666  -1.166   6.910  0.00  0.00    +0.000 C 
ATOM     19  O   UNL     1      46.690  -0.238   7.989  0.00  0.00    +0.000 OA
ENDBRANCH  12  19
ENDBRANCH   8  16
ENDBRANCH   7  10
ENDBRANCH   1   7
BRANCH   4  20
ATOM     20  C   UNL     1      47.986   8.837  14.369  0.00  0.00    +0.000 C 
BRANCH  20  21
ATOM     21  N   UNL     1      48.187   8.014  15.535  0.00  0.00    +0.000 N 
ATOM     22  C   UNL     1      49.425   7.513  15.845  0.00  0.00    +0.000 C 
ATOM     23  O   UNL     1      50.422   7.786  15.180  0.00  0.00    +0.000 OA
ATOM     24  H   UNL     1      47.361   7.592  15.947  0.00  0.00    +0.000 HD
BRANCH  22  25
ATOM     25  C   UNL     1      49.516   6.679  17.050  0.00  0.00    +0.000 A 
ATOM     26  C   UNL     1      50.279   7.108  18.129  0.00  0.00    +0.000 A 
ATOM     27  S   UNL     1      50.237   6.046  19.463  0.00  0.00    +0.000 S 
ATOM     28  C   UNL     1      49.243   4.947  18.626  0.00  0.00    +0.000 A 
ATOM     29  N   UNL     1      48.850   3.780  19.203  0.00  0.00    +0.000 NA
ATOM     30  C   UNL     1      48.124   3.028  18.445  0.00  0.00    +0.000 A 
ATOM     31  N   UNL     1      47.750   3.341  17.164  0.00  0.00    +0.000 N 
ATOM     32  C   UNL     1      48.100   4.520  16.550  0.00  0.00    +0.000 A 
ATOM     33  O   UNL     1      47.716   4.786  15.416  0.00  0.00    +0.000 OA
ATOM     34  C   UNL     1      48.929   5.396  17.356  0.00  0.00    +0.000 A 
ATOM     35  H   UNL     1      47.172   2.712  16.625  0.00  0.00    +0.000 HD
ENDBRANCH  22  25
ENDBRANCH  20  21
ENDBRANCH   4  20
TORSDOF 7
ENDMDL
MODEL 4
REMARK VINA RESULT:    -7.188      1.943      3.382
REMARK INTER + INTRA:         -11.402
REMARK INTER:                 -10.343
REMARK INTRA:                  -1.060
REMARK UNBOUND:                -1.273
REMARK  Name = 
REMARK  8 active torsions:
REMARK  status: ('A' for Active; 'I' for Inactive)
REMARK    1  A    between atoms: C_1  and  O_2
REMARK    2  A    between atoms: O_2  and  C_3
REMARK    3  A    between atoms: C_7  and  C_8
REMARK    4  A    between atoms: N_10  and  C_11
REMARK    5  A    between atoms: C_11  and  C_12
REMARK    6  A    between atoms: C_15  and  C_16
REMARK    7  A    between atoms: C_16  and  N_17
REMARK    8  A    between atoms: C_18  and  C_20
REMARK                            x       y       z     vdW  Elec       q    Type
REMARK                         _______ _______ _______ _____ _____    ______ ____
ROOT
ATOM      1  C   UNL     1      45.459   4.756  11.874  0.00  0.00    +0.000 A 
ATOM      2  C   UNL     1      45.898   4.326  13.134  0.00  0.00    +0.000 A 
ATOM      3  C   UNL     1      46.823   5.081  13.865  0.00  0.00    +0.000 A 
ATOM      4  C   UNL     1      47.314   6.292  13.359  0.00  0.00    +0.000 A 
ATOM      5  C   UNL     1      46.886   6.714  12.094  0.00  0.00    +0.000 A 
ATOM      6  C   UNL     1      45.961   5.961  11.364  0.00  0.00    +0.000 A 
ENDROOT
BRANCH   1   7
ATOM      7  C   UNL     1      44.450   3.953  11.093  0.00  0.00    +0.000 C 
BRANCH   7  10
ATOM      8  C   UNL     1      45.201   3.585   8.787  0.00  0.00    +0.000 C 
ATOM      9  O   UNL     1      44.723   4.646   8.396  0.00  0.00    +0.000 OA
ATOM     10  N   UNL     1      45.090   3.137  10.087  0.00  0.00    +0.000 N 
ATOM     11  H   UNL     1      45.676   2.375  10.402  0.00  0.00    +0.000 HD
BRANCH   8  16
ATOM     12  C   UNL     1      46.879   0.527   7.327  0.00  0.00    +0.000 A 
ATOM     13  C   UNL     1      47.420   1.042   6.148  0.00  0.00    +0.000 A 
ATOM     14  C   UNL     1      47.263   2.396   5.833  0.00  0.00    +0.000 A 
ATOM     15  C   UNL     1      46.551   3.239   6.688  0.00  0.00    +0.000 A 
ATOM     16  C   UNL     1      45.993   2.728   7.864  0.00  0.00    +0.000 A 
ATOM     17  C   UNL     1      46.182   1.378   8.190  0.00  0.00    +0.000 A 
BRANCH  12  19
ATOM     18  C   UNL     1      46.578  -1.776   6.798  0.00  0.00    +0.000 C 
ATOM     19  O   UNL     1      46.952  -0.776   7.738  0.00  0.00    +0.000 OA
ENDBRANCH  12  19
ENDBRANCH   8  16
ENDBRANCH   7  10
ENDBRANCH   1   7
BRANCH   4  20
ATOM     20  C   UNL     1      48.310   7.114  14.139  0.00  0.00    +0.000 C 
BRANCH  20  21
ATOM     21  N   UNL     1      48.152   6.927  15.560  0.00  0.00    +0.000 N 
ATOM     22  C   UNL     1      48.864   7.681  16.457  0.00  0.00    +0.000 C 
ATOM     23  O   UNL     1      49.619   8.581  16.096  0.00  0.00    +0.000 OA
ATOM     24  H   UNL     1      47.731   6.056  15.865  0.00  0.00    +0.000 HD
BRANCH  22  25
ATOM     25  C   UNL     1      48.633   7.403  17.881  0.00  0.00    +0.000 A 
ATOM     26  C   UNL     1      48.251   8.433  18.732  0.00  0.00    +0.000 A 
ATOM     27  S   UNL     1      47.980   7.929  20.338  0.00  0.00    +0.000 S 
ATOM     28  C   UNL     1      48.416   6.326  19.967  0.00  0.00    +0.000 A 
ATOM     29  N   UNL     1      48.427   5.364  20.928  0.00  0.00    +0.000 NA
ATOM     30  C   UNL     1      48.807   4.201  20.513  0.00  0.00    +0.000 A 
ATOM     31  N   UNL     1      49.171   3.913  19.224  0.00  0.00    +0.000 N 
ATOM     32  C   UNL     1      49.150   4.846  18.215  0.00  0.00    +0.000 A 
ATOM     33  O   UNL     1      49.445   4.546  17.063  0.00  0.00    +0.000 OA
ATOM     34  C   UNL     1      48.742   6.174  18.631  0.00  0.00    +0.000 A 
ATOM     35  H   UNL     1      49.451   2.979  18.962  0.00  0.00    +0.000 HD
ENDBRANCH  22  25
ENDBRANCH  20  21
ENDBRANCH   4  20
TORSDOF 7
ENDMDL
MODEL 5
REMARK VINA RESULT:    -7.114      6.214      9.641
REMARK INTER + INTRA:         -11.298
REMARK INTER:                 -10.340
REMARK INTRA:                  -0.958
REMARK UNBOUND:                -1.273
REMARK  Name = 
REMARK  8 active torsions:
REMARK  status: ('A' for Active; 'I' for Inactive)
REMARK    1  A    between atoms: C_1  and  O_2
REMARK    2  A    between atoms: O_2  and  C_3
REMARK    3  A    between atoms: C_7  and  C_8
REMARK    4  A    between atoms: N_10  and  C_11
REMARK    5  A    between atoms: C_11  and  C_12
REMARK    6  A    between atoms: C_15  and  C_16
REMARK    7  A    between atoms: C_16  and  N_17
REMARK    8  A    between atoms: C_18  and  C_20
REMARK                            x       y       z     vdW  Elec       q    Type
REMARK                         _______ _______ _______ _____ _____    ______ ____
ROOT
ATOM      1  C   UNL     1      51.551   3.170  17.758  0.00  0.00    +0.000 A 
ATOM      2  C   UNL     1      50.893   4.376  18.040  0.00  0.00    +0.000 A 
ATOM      3  C   UNL     1      49.518   4.511  17.812  0.00  0.00    +0.000 A 
ATOM      4  C   UNL     1      48.769   3.437  17.313  0.00  0.00    +0.000 A 
ATOM      5  C   UNL     1      49.430   2.237  17.018  0.00  0.00    +0.000 A 
ATOM      6  C   UNL     1      50.803   2.101  17.248  0.00  0.00    +0.000 A 
ENDROOT
BRANCH   1   7
ATOM      7  C   UNL     1      53.027   3.018  18.022  0.00  0.00    +0.000 C 
BRANCH   7  10
ATOM      8  C   UNL     1      54.116   0.848  18.377  0.00  0.00    +0.000 C 
ATOM      9  O   UNL     1      54.310   1.071  19.569  0.00  0.00    +0.000 OA
ATOM     10  N   UNL     1      53.525   1.756  17.523  0.00  0.00    +0.000 N 
ATOM     11  H   UNL     1      53.198   1.448  16.617  0.00  0.00    +0.000 HD
BRANCH   8  16
ATOM     12  C   UNL     1      54.627  -2.884  18.048  0.00  0.00    +0.000 A 
ATOM     13  C   UNL     1      55.063  -2.990  16.727  0.00  0.00    +0.000 A 
ATOM     14  C   UNL     1      55.217  -1.844  15.941  0.00  0.00    +0.000 A 
ATOM     15  C   UNL     1      54.922  -0.585  16.468  0.00  0.00    +0.000 A 
ATOM     16  C   UNL     1      54.471  -0.471  17.787  0.00  0.00    +0.000 A 
ATOM     17  C   UNL     1      54.350  -1.620  18.579  0.00  0.00    +0.000 A 
BRANCH  12  19
ATOM     18  C   UNL     1      53.150  -4.015  19.537  0.00  0.00    +0.000 C 
ATOM     19  O   UNL     1      54.425  -3.927  18.911  0.00  0.00    +0.000 OA
ENDBRANCH  12  19
ENDBRANCH   8  16
ENDBRANCH   7  10
ENDBRANCH   1   7
BRANCH   4  20
ATOM     20  C   UNL     1      47.288   3.571  17.063  0.00  0.00    +0.000 C 
BRANCH  20  21
ATOM     21  N   UNL     1      47.010   4.545  16.038  0.00  0.00    +0.000 N 
ATOM     22  C   UNL     1      47.064   4.212  14.709  0.00  0.00    +0.000 C 
ATOM     23  O   UNL     1      47.294   3.063  14.336  0.00  0.00    +0.000 OA
ATOM     24  H   UNL     1      47.055   5.523  16.309  0.00  0.00    +0.000 HD
BRANCH  22  25
ATOM     25  C   UNL     1      46.772   5.283  13.749  0.00  0.00    +0.000 A 
ATOM     26  C   UNL     1      47.730   6.255  13.489  0.00  0.00    +0.000 A 
ATOM     27  S   UNL     1      47.247   7.395  12.315  0.00  0.00    +0.000 S 
ATOM     28  C   UNL     1      45.720   6.662  12.152  0.00  0.00    +0.000 A 
ATOM     29  N   UNL     1      44.786   7.174  11.306  0.00  0.00    +0.000 NA
ATOM     30  C   UNL     1      43.663   6.537  11.305  0.00  0.00    +0.000 A 
ATOM     31  N   UNL     1      43.392   5.431  12.068  0.00  0.00    +0.000 N 
ATOM     32  C   UNL     1      44.313   4.865  12.916  0.00  0.00    +0.000 A 
ATOM     33  O   UNL     1      44.051   3.852  13.556  0.00  0.00    +0.000 OA
ATOM     34  C   UNL     1      45.590   5.551  12.965  0.00  0.00    +0.000 A 
ATOM     35  H   UNL     1      42.493   4.973  12.014  0.00  0.00    +0.000 HD
ENDBRANCH  22  25
ENDBRANCH  20  21
ENDBRANCH   4  20
TORSDOF 7
ENDMDL
MODEL 6
REMARK VINA RESULT:    -6.921      5.185      7.903
REMARK INTER + INTRA:         -11.025
REMARK INTER:                  -9.948
REMARK INTRA:                  -1.077
REMARK UNBOUND:                -1.273
REMARK  Name = 
REMARK  8 active torsions:
REMARK  status: ('A' for Active; 'I' for Inactive)
REMARK    1  A    between atoms: C_1  and  O_2
REMARK    2  A    between atoms: O_2  and  C_3
REMARK    3  A    between atoms: C_7  and  C_8
REMARK    4  A    between atoms: N_10  and  C_11
REMARK    5  A    between atoms: C_11  and  C_12
REMARK    6  A    between atoms: C_15  and  C_16
REMARK    7  A    between atoms: C_16  and  N_17
REMARK    8  A    between atoms: C_18  and  C_20
REMARK                            x       y       z     vdW  Elec       q    Type
REMARK                         _______ _______ _______ _____ _____    ______ ____
ROOT
ATOM      1  C   UNL     1      44.838   9.025  11.815  0.00  0.00    +0.000 A 
ATOM      2  C   UNL     1      45.965   8.891  12.639  0.00  0.00    +0.000 A 
ATOM      3  C   UNL     1      46.401   7.627  13.055  0.00  0.00    +0.000 A 
ATOM      4  C   UNL     1      45.729   6.469  12.641  0.00  0.00    +0.000 A 
ATOM      5  C   UNL     1      44.594   6.604  11.830  0.00  0.00    +0.000 A 
ATOM      6  C   UNL     1      44.160   7.867  11.412  0.00  0.00    +0.000 A 
ENDROOT
BRANCH   1   7
ATOM      7  C   UNL     1      44.379  10.384  11.352  0.00  0.00    +0.000 C 
BRANCH   7  10
ATOM      8  C   UNL     1      42.002  10.812  10.925  0.00  0.00    +0.000 C 
ATOM      9  O   UNL     1      42.146  10.757   9.707  0.00  0.00    +0.000 OA
ATOM     10  N   UNL     1      43.043  10.677  11.819  0.00  0.00    +0.000 N 
ATOM     11  H   UNL     1      42.842  10.517  12.797  0.00  0.00    +0.000 HD
BRANCH   8  16
ATOM     12  C   UNL     1      38.286  10.395  11.493  0.00  0.00    +0.000 A 
ATOM     13  C   UNL     1      38.084  11.200  12.614  0.00  0.00    +0.000 A 
ATOM     14  C   UNL     1      39.152  11.905  13.178  0.00  0.00    +0.000 A 
ATOM     15  C   UNL     1      40.433  11.797  12.633  0.00  0.00    +0.000 A 
ATOM     16  C   UNL     1      40.647  10.980  11.518  0.00  0.00    +0.000 A 
ATOM     17  C   UNL     1      39.566  10.302  10.937  0.00  0.00    +0.000 A 
BRANCH  12  19
ATOM     18  C   UNL     1      36.233   9.197  11.646  0.00  0.00    +0.000 C 
ATOM     19  O   UNL     1      37.330   9.648  10.860  0.00  0.00    +0.000 OA
ENDBRANCH  12  19
ENDBRANCH   8  16
ENDBRANCH   7  10
ENDBRANCH   1   7
BRANCH   4  20
ATOM     20  C   UNL     1      46.190   5.103  13.082  0.00  0.00    +0.000 C 
BRANCH  20  21
ATOM     21  N   UNL     1      46.759   5.138  14.406  0.00  0.00    +0.000 N 
ATOM     22  C   UNL     1      47.316   4.019  14.969  0.00  0.00    +0.000 C 
ATOM     23  O   UNL     1      47.406   2.958  14.354  0.00  0.00    +0.000 OA
ATOM     24  H   UNL     1      46.486   5.913  15.003  0.00  0.00    +0.000 HD
BRANCH  22  25
ATOM     25  C   UNL     1      47.858   4.164  16.326  0.00  0.00    +0.000 A 
ATOM     26  C   UNL     1      47.462   3.282  17.324  0.00  0.00    +0.000 A 
ATOM     27  S   UNL     1      48.222   3.562  18.825  0.00  0.00    +0.000 S 
ATOM     28  C   UNL     1      49.067   4.904  18.209  0.00  0.00    +0.000 A 
ATOM     29  N   UNL     1      49.894   5.634  19.004  0.00  0.00    +0.000 NA
ATOM     30  C   UNL     1      50.447   6.643  18.416  0.00  0.00    +0.000 A 
ATOM     31  N   UNL     1      50.250   6.982  17.102  0.00  0.00    +0.000 N 
ATOM     32  C   UNL     1      49.445   6.259  16.255  0.00  0.00    +0.000 A 
ATOM     33  O   UNL     1      49.322   6.568  15.075  0.00  0.00    +0.000 OA
ATOM     34  C   UNL     1      48.790   5.122  16.872  0.00  0.00    +0.000 A 
ATOM     35  H   UNL     1      50.721   7.780  16.699  0.00  0.00    +0.000 HD
ENDBRANCH  22  25
ENDBRANCH  20  21
ENDBRANCH   4  20
TORSDOF 7
ENDMDL
MODEL 7
REMARK VINA RESULT:    -6.908      2.873      4.779
REMARK INTER + INTRA:         -11.008
REMARK INTER:                 -10.039
REMARK INTRA:                  -0.969
REMARK UNBOUND:                -1.273
REMARK  Name = 
REMARK  8 active torsions:
REMARK  status: ('A' for Active; 'I' for Inactive)
REMARK    1  A    between atoms: C_1  and  O_2
REMARK    2  A    between atoms: O_2  and  C_3
REMARK    3  A    between atoms: C_7  and  C_8
REMARK    4  A    between atoms: N_10  and  C_11
REMARK    5  A    between atoms: C_11  and  C_12
REMARK    6  A    between atoms: C_15  and  C_16
REMARK    7  A    between atoms: C_16  and  N_17
REMARK    8  A    between atoms: C_18  and  C_20
REMARK                            x       y       z     vdW  Elec       q    Type
REMARK                         _______ _______ _______ _____ _____    ______ ____
ROOT
ATOM      1  C   UNL     1      46.182   7.094  12.801  0.00  0.00    +0.000 A 
ATOM      2  C   UNL     1      47.084   6.137  13.288  0.00  0.00    +0.000 A 
ATOM      3  C   UNL     1      48.130   6.509  14.141  0.00  0.00    +0.000 A 
ATOM      4  C   UNL     1      48.284   7.844  14.540  0.00  0.00    +0.000 A 
ATOM      5  C   UNL     1      47.391   8.801  14.042  0.00  0.00    +0.000 A 
ATOM      6  C   UNL     1      46.345   8.429  13.191  0.00  0.00    +0.000 A 
ENDROOT
BRANCH   1   7
ATOM      7  C   UNL     1      45.045   6.691  11.897  0.00  0.00    +0.000 C 
BRANCH   7  10
ATOM      8  C   UNL     1      44.442   4.877  10.359  0.00  0.00    +0.000 C 
ATOM      9  O   UNL     1      43.242   5.126  10.436  0.00  0.00    +0.000 OA
ATOM     10  N   UNL     1      45.406   5.565  11.065  0.00  0.00    +0.000 N 
ATOM     11  H   UNL     1      46.379   5.466  10.807  0.00  0.00    +0.000 HD
BRANCH   8  16
ATOM     12  C   UNL     1      46.113   3.251   7.381  0.00  0.00    +0.000 A 
ATOM     13  C   UNL     1      45.946   1.897   7.673  0.00  0.00    +0.000 A 
ATOM     14  C   UNL     1      45.266   1.504   8.830  0.00  0.00    +0.000 A 
ATOM     15  C   UNL     1      44.761   2.463   9.710  0.00  0.00    +0.000 A 
ATOM     16  C   UNL     1      44.937   3.822   9.432  0.00  0.00    +0.000 A 
ATOM     17  C   UNL     1      45.590   4.210   8.254  0.00  0.00    +0.000 A 
BRANCH  12  19
ATOM     18  C   UNL     1      47.011   2.874   5.208  0.00  0.00    +0.000 C 
ATOM     19  O   UNL     1      46.768   3.761   6.293  0.00  0.00    +0.000 OA
ENDBRANCH  12  19
ENDBRANCH   8  16
ENDBRANCH   7  10
ENDBRANCH   1   7
BRANCH   4  20
ATOM     20  C   UNL     1      49.406   8.256  15.460  0.00  0.00    +0.000 C 
BRANCH  20  21
ATOM     21  N   UNL     1      50.225   7.130  15.832  0.00  0.00    +0.000 N 
ATOM     22  C   UNL     1      50.440   6.813  17.149  0.00  0.00    +0.000 C 
ATOM     23  O   UNL     1      49.902   7.435  18.063  0.00  0.00    +0.000 OA
ATOM     24  H   UNL     1      50.853   6.764  15.123  0.00  0.00    +0.000 HD
BRANCH  22  25
ATOM     25  C   UNL     1      51.298   5.652  17.416  0.00  0.00    +0.000 A 
ATOM     26  C   UNL     1      52.630   5.844  17.761  0.00  0.00    +0.000 A 
ATOM     27  S   UNL     1      53.470   4.395  18.083  0.00  0.00    +0.000 S 
ATOM     28  C   UNL     1      52.098   3.456  17.721  0.00  0.00    +0.000 A 
ATOM     29  N   UNL     1      52.147   2.098  17.774  0.00  0.00    +0.000 NA
ATOM     30  C   UNL     1      51.044   1.511  17.446  0.00  0.00    +0.000 A 
ATOM     31  N   UNL     1      49.896   2.161  17.075  0.00  0.00    +0.000 N 
ATOM     32  C   UNL     1      49.792   3.530  17.033  0.00  0.00    +0.000 A 
ATOM     33  O   UNL     1      48.738   4.080  16.734  0.00  0.00    +0.000 OA
ATOM     34  C   UNL     1      51.009   4.238  17.381  0.00  0.00    +0.000 A 
ATOM     35  H   UNL     1      49.062   1.642  16.837  0.00  0.00    +0.000 HD
ENDBRANCH  22  25
ENDBRANCH  20  21
ENDBRANCH   4  20
TORSDOF 7
ENDMDL
MODEL 8
REMARK VINA RESULT:    -6.743      1.649      2.390
REMARK INTER + INTRA:         -10.775
REMARK INTER:                  -9.719
REMARK INTRA:                  -1.056
REMARK UNBOUND:                -1.273
REMARK  Name = 
REMARK  8 active torsions:
REMARK  status: ('A' for Active; 'I' for Inactive)
REMARK    1  A    between atoms: C_1  and  O_2
REMARK    2  A    between atoms: O_2  and  C_3
REMARK    3  A    between atoms: C_7  and  C_8
REMARK    4  A    between atoms: N_10  and  C_11
REMARK    5  A    between atoms: C_11  and  C_12
REMARK    6  A    between atoms: C_15  and  C_16
REMARK    7  A    between atoms: C_16  and  N_17
REMARK    8  A    between atoms: C_18  and  C_20
REMARK                            x       y       z     vdW  Elec       q    Type
REMARK                         _______ _______ _______ _____ _____    ______ ____
ROOT
ATOM      1  C   UNL     1      44.975   4.953  11.375  0.00  0.00    +0.000 A 
ATOM      2  C   UNL     1      45.313   3.918  12.258  0.00  0.00    +0.000 A 
ATOM      3  C   UNL     1      46.172   4.151  13.339  0.00  0.00    +0.000 A 
ATOM      4  C   UNL     1      46.697   5.430  13.569  0.00  0.00    +0.000 A 
ATOM      5  C   UNL     1      46.370   6.461  12.678  0.00  0.00    +0.000 A 
ATOM      6  C   UNL     1      45.510   6.228  11.599  0.00  0.00    +0.000 A 
ENDROOT
BRANCH   1   7
ATOM      7  C   UNL     1      44.036   4.706  10.222  0.00  0.00    +0.000 C 
BRANCH   7  10
ATOM      8  C   UNL     1      45.525   3.894   8.449  0.00  0.00    +0.000 C 
ATOM      9  O   UNL     1      46.014   5.005   8.265  0.00  0.00    +0.000 OA
ATOM     10  N   UNL     1      44.522   3.649   9.363  0.00  0.00    +0.000 N 
ATOM     11  H   UNL     1      44.308   2.696   9.625  0.00  0.00    +0.000 HD
BRANCH   8  16
ATOM     12  C   UNL     1      46.827   1.753   5.617  0.00  0.00    +0.000 A 
ATOM     13  C   UNL     1      47.071   0.544   6.271  0.00  0.00    +0.000 A 
ATOM     14  C   UNL     1      46.789   0.411   7.634  0.00  0.00    +0.000 A 
ATOM     15  C   UNL     1      46.276   1.491   8.356  0.00  0.00    +0.000 A 
ATOM     16  C   UNL     1      46.042   2.710   7.711  0.00  0.00    +0.000 A 
ATOM     17  C   UNL     1      46.295   2.827   6.337  0.00  0.00    +0.000 A 
BRANCH  12  19
ATOM     18  C   UNL     1      46.770   0.979   3.365  0.00  0.00    +0.000 C 
ATOM     19  O   UNL     1      47.072   2.012   4.296  0.00  0.00    +0.000 OA
ENDBRANCH  12  19
ENDBRANCH   8  16
ENDBRANCH   7  10
ENDBRANCH   1   7
BRANCH   4  20
ATOM     20  C   UNL     1      47.622   5.694  14.731  0.00  0.00    +0.000 C 
BRANCH  20  21
ATOM     21  N   UNL     1      47.841   7.106  14.922  0.00  0.00    +0.000 N 
ATOM     22  C   UNL     1      48.994   7.710  14.492  0.00  0.00    +0.000 C 
ATOM     23  O   UNL     1      49.862   7.092  13.879  0.00  0.00    +0.000 OA
ATOM     24  H   UNL     1      47.265   7.571  15.618  0.00  0.00    +0.000 HD
BRANCH  22  25
ATOM     25  C   UNL     1      49.118   9.151  14.746  0.00  0.00    +0.000 A 
ATOM     26  C   UNL     1      49.508   9.598  16.003  0.00  0.00    +0.000 A 
ATOM     27  S   UNL     1      49.648  11.294  16.113  0.00  0.00    +0.000 S 
ATOM     28  C   UNL     1      49.139  11.495  14.501  0.00  0.00    +0.000 A 
ATOM     29  N   UNL     1      49.010  12.736  13.958  0.00  0.00    +0.000 NA
ATOM     30  C   UNL     1      48.587  12.742  12.738  0.00  0.00    +0.000 A 
ATOM     31  N   UNL     1      48.287  11.620  12.011  0.00  0.00    +0.000 N 
ATOM     32  C   UNL     1      48.427  10.346  12.509  0.00  0.00    +0.000 A 
ATOM     33  O   UNL     1      48.187   9.362  11.818  0.00  0.00    +0.000 OA
ATOM     34  C   UNL     1      48.889  10.284  13.882  0.00  0.00    +0.000 A 
ATOM     35  H   UNL     1      47.968  11.693  11.055  0.00  0.00    +0.000 HD
ENDBRANCH  22  25
ENDBRANCH  20  21
ENDBRANCH   4  20
TORSDOF 7
ENDMDL
MODEL 9
REMARK VINA RESULT:    -6.603      5.828      7.844
REMARK INTER + INTRA:         -10.578
REMARK INTER:                  -9.431
REMARK INTRA:                  -1.146
REMARK UNBOUND:                -1.273
REMARK  Name = 
REMARK  8 active torsions:
REMARK  status: ('A' for Active; 'I' for Inactive)
REMARK    1  A    between atoms: C_1  and  O_2
REMARK    2  A    between atoms: O_2  and  C_3
REMARK    3  A    between atoms: C_7  and  C_8
REMARK    4  A    between atoms: N_10  and  C_11
REMARK    5  A    between atoms: C_11  and  C_12
REMARK    6  A    between atoms: C_15  and  C_16
REMARK    7  A    between atoms: C_16  and  N_17
REMARK    8  A    between atoms: C_18  and  C_20
REMARK                            x       y       z     vdW  Elec       q    Type
REMARK                         _______ _______ _______ _____ _____    ______ ____
ROOT
ATOM      1  C   UNL     1      48.128   8.088  12.409  0.00  0.00    +0.000 A 
ATOM      2  C   UNL     1      48.372   9.455  12.216  0.00  0.00    +0.000 A 
ATOM      3  C   UNL     1      49.594   9.897  11.697  0.00  0.00    +0.000 A 
ATOM      4  C   UNL     1      50.592   8.979  11.343  0.00  0.00    +0.000 A 
ATOM      5  C   UNL     1      50.353   7.614  11.549  0.00  0.00    +0.000 A 
ATOM      6  C   UNL     1      49.131   7.172  12.066  0.00  0.00    +0.000 A 
ENDROOT
BRANCH   1   7
ATOM      7  C   UNL     1      46.804   7.610  12.951  0.00  0.00    +0.000 C 
BRANCH   7  10
ATOM      8  C   UNL     1      45.270   6.442  11.434  0.00  0.00    +0.000 C 
ATOM      9  O   UNL     1      44.586   7.445  11.253  0.00  0.00    +0.000 OA
ATOM     10  N   UNL     1      46.361   6.410  12.278  0.00  0.00    +0.000 N 
ATOM     11  H   UNL     1      47.007   5.634  12.227  0.00  0.00    +0.000 HD
BRANCH   8  16
ATOM     12  C   UNL     1      45.195   3.894   8.641  0.00  0.00    +0.000 A 
ATOM     13  C   UNL     1      44.525   2.832   9.250  0.00  0.00    +0.000 A 
ATOM     14  C   UNL     1      44.072   2.948  10.568  0.00  0.00    +0.000 A 
ATOM     15  C   UNL     1      44.298   4.122  11.290  0.00  0.00    +0.000 A 
ATOM     16  C   UNL     1      44.981   5.185  10.691  0.00  0.00    +0.000 A 
ATOM     17  C   UNL     1      45.404   5.075   9.359  0.00  0.00    +0.000 A 
BRANCH  12  19
ATOM     18  C   UNL     1      46.975   3.306   7.172  0.00  0.00    +0.000 C 
ATOM     19  O   UNL     1      45.697   3.899   7.368  0.00  0.00    +0.000 OA
ENDBRANCH  12  19
ENDBRANCH   8  16
ENDBRANCH   7  10
ENDBRANCH   1   7
BRANCH   4  20
ATOM     20  C   UNL     1      51.913   9.443  10.782  0.00  0.00    +0.000 C 
BRANCH  20  21
ATOM     21  N   UNL     1      52.251   8.737   9.572  0.00  0.00    +0.000 N 
ATOM     22  C   UNL     1      53.413   9.005   8.895  0.00  0.00    +0.000 C 
ATOM     23  O   UNL     1      54.239   9.812   9.316  0.00  0.00    +0.000 OA
ATOM     24  H   UNL     1      51.495   8.257   9.093  0.00  0.00    +0.000 HD
BRANCH  22  25
ATOM     25  C   UNL     1      53.655   8.234   7.669  0.00  0.00    +0.000 A 
ATOM     26  C   UNL     1      53.824   8.897   6.460  0.00  0.00    +0.000 A 
ATOM     27  S   UNL     1      54.142   7.856   5.147  0.00  0.00    +0.000 S 
ATOM     28  C   UNL     1      54.012   6.478   6.137  0.00  0.00    +0.000 A 
ATOM     29  N   UNL     1      54.152   5.229   5.618  0.00  0.00    +0.000 NA
ATOM     30  C   UNL     1      53.998   4.275   6.476  0.00  0.00    +0.000 A 
ATOM     31  N   UNL     1      53.724   4.459   7.806  0.00  0.00    +0.000 N 
ATOM     32  C   UNL     1      53.600   5.703   8.379  0.00  0.00    +0.000 A 
ATOM     33  O   UNL     1      53.393   5.832   9.580  0.00  0.00    +0.000 OA
ATOM     34  C   UNL     1      53.752   6.810   7.454  0.00  0.00    +0.000 A 
ATOM     35  H   UNL     1      53.624   3.669   8.427  0.00  0.00    +0.000 HD
ENDBRANCH  22  25
ENDBRANCH  20  21
ENDBRANCH   4  20
TORSDOF 7
ENDMDL
