MODEL 1
REMARK VINA RESULT:    -8.359      0.000      0.000
REMARK INTER + INTRA:         -12.148
REMARK INTER:                 -11.291
REMARK INTRA:                  -0.857
REMARK UNBOUND:                -0.857
REMARK  Name = 
REMARK  6 active torsions:
REMARK  status: ('A' for Active; 'I' for Inactive)
REMARK    1  A    between atoms: C_2  and  C_4
REMARK    2  A    between atoms: C_7  and  N_8
REMARK    3  A    between atoms: N_8  and  C_9
REMARK    4  A    between atoms: C_9  and  C_10
REMARK    5  A    between atoms: C_10  and  C_11
REMARK    6  A    between atoms: C_15  and  C_16
REMARK                            x       y       z     vdW  Elec       q    Type
REMARK                         _______ _______ _______ _____ _____    ______ ____
ROOT
ATOM      1  C   UNL     1      45.003   6.587  12.602  0.00  0.00    +0.000 C 
ENDROOT
BRANCH   1   2
ATOM      2  N   UNL     1      46.451   6.351  12.578  0.00  0.00    +0.000 N 
ATOM      3  H   UNL     1      46.981   7.217  12.626  0.00  0.00    +0.000 HD
BRANCH   2   7
ATOM      4  C   UNL     1      47.728   3.683  15.444  0.00  0.00    +0.000 A 
ATOM      5  C   UNL     1      47.881   5.047  15.630  0.00  0.00    +0.000 A 
ATOM      6  N   UNL     1      47.478   5.962  14.708  0.00  0.00    +0.000 NA
ATOM      7  C   UNL     1      46.914   5.478  13.580  0.00  0.00    +0.000 A 
ATOM      8  C   UNL     1      46.755   4.093  13.418  0.00  0.00    +0.000 A 
ATOM      9  N   UNL     1      47.159   3.161  14.322  0.00  0.00    +0.000 NA
BRANCH   4  11
ATOM     10  N   UNL     1      47.540   2.803  17.692  0.00  0.00    +0.000 N 
ATOM     11  C   UNL     1      48.195   2.736  16.492  0.00  0.00    +0.000 C 
ATOM     12  O   UNL     1      49.107   1.942  16.298  0.00  0.00    +0.000 OA
ATOM     13  H   UNL     1      47.814   2.187  18.445  0.00  0.00    +0.000 HD
ATOM     14  H   UNL     1      46.788   3.470  17.823  0.00  0.00    +0.000 HD
ENDBRANCH   4  11
ENDBRANCH   2   7
ENDBRANCH   1   2
BRANCH   1  15
ATOM     15  C   UNL     1      44.441   6.451  11.180  0.00  0.00    +0.000 C 
BRANCH  15  16
ATOM     16  C   UNL     1      44.362   5.021  10.721  0.00  0.00    +0.000 A 
ATOM     17  C   UNL     1      43.542   4.103  11.359  0.00  0.00    +0.000 A 
ATOM     18  N   UNL     1      43.429   2.812  10.988  0.00  0.00    +0.000 NA
ATOM     19  C   UNL     1      44.179   2.414   9.929  0.00  0.00    +0.000 A 
ATOM     20  C   UNL     1      45.059   3.226   9.211  0.00  0.00    +0.000 A 
ATOM     21  C   UNL     1      45.132   4.561   9.644  0.00  0.00    +0.000 A 
BRANCH  20  22
ATOM     22  C   UNL     1      45.869   2.719   8.082  0.00  0.00    +0.000 A 
ATOM     23  C   UNL     1      46.167   3.528   6.969  0.00  0.00    +0.000 A 
ATOM     24  C   UNL     1      46.961   3.062   5.916  0.00  0.00    +0.000 A 
ATOM     25  C   UNL     1      47.466   1.766   5.944  0.00  0.00    +0.000 A 
ATOM     26  C   UNL     1      47.176   0.938   7.023  0.00  0.00    +0.000 A 
ATOM     27  C   UNL     1      46.390   1.411   8.080  0.00  0.00    +0.000 A 
ENDBRANCH  20  22
ENDBRANCH  15  16
ENDBRANCH   1  15
TORSDOF 6
ENDMDL
MODEL 2
REMARK VINA RESULT:    -7.693      3.927      7.164
REMARK INTER + INTRA:         -11.249
REMARK INTER:                 -10.514
REMARK INTRA:                  -0.734
REMARK UNBOUND:                -0.857
REMARK  Name = 
REMARK  6 active torsions:
REMARK  status: ('A' for Active; 'I' for Inactive)
REMARK    1  A    between atoms: C_2  and  C_4
REMARK    2  A    between atoms: C_7  and  N_8
REMARK    3  A    between atoms: N_8  and  C_9
REMARK    4  A    between atoms: C_9  and  C_10
REMARK    5  A    between atoms: C_10  and  C_11
REMARK    6  A    between atoms: C_15  and  C_16
REMARK                            x       y       z     vdW  Elec       q    Type
REMARK                         _______ _______ _______ _____ _____    ______ ____
ROOT
ATOM      1  C   UNL     1      44.001   4.498  11.154  0.00  0.00    +0.000 C 
ENDROOT
BRANCH   1   2
ATOM      2  N   UNL     1      43.837   4.657   9.704  0.00  0.00    +0.000 N 
ATOM      3  H   UNL     1      43.842   5.633   9.422  0.00  0.00    +0.000 HD
BRANCH   2   7
ATOM      4  C   UNL     1      46.580   2.481   7.535  0.00  0.00    +0.000 A 
ATOM      5  C   UNL     1      46.499   3.857   7.396  0.00  0.00    +0.000 A 
ATOM      6  N   UNL     1      45.606   4.613   8.089  0.00  0.00    +0.000 NA
ATOM      7  C   UNL     1      44.782   3.956   8.932  0.00  0.00    +0.000 A 
ATOM      8  C   UNL     1      44.890   2.563   9.069  0.00  0.00    +0.000 A 
ATOM      9  N   UNL     1      45.769   1.787   8.380  0.00  0.00    +0.000 NA
BRANCH   4  11
ATOM     10  N   UNL     1      48.734   2.381   6.433  0.00  0.00    +0.000 N 
ATOM     11  C   UNL     1      47.578   1.714   6.743  0.00  0.00    +0.000 C 
ATOM     12  O   UNL     1      47.385   0.558   6.388  0.00  0.00    +0.000 OA
ATOM     13  H   UNL     1      49.450   1.914   5.894  0.00  0.00    +0.000 HD
ATOM     14  H   UNL     1      48.865   3.337   6.741  0.00  0.00    +0.000 HD
ENDBRANCH   4  11
ENDBRANCH   2   7
ENDBRANCH   1   2
BRANCH   1  15
ATOM     15  C   UNL     1      44.306   5.864  11.784  0.00  0.00    +0.000 C 
BRANCH  15  16
ATOM     16  C   UNL     1      45.712   5.958  12.311  0.00  0.00    +0.000 A 
ATOM     17  C   UNL     1      46.174   5.091  13.291  0.00  0.00    +0.000 A 
ATOM     18  N   UNL     1      47.423   5.127  13.796  0.00  0.00    +0.000 NA
ATOM     19  C   UNL     1      48.253   6.082  13.304  0.00  0.00    +0.000 A 
ATOM     20  C   UNL     1      47.912   7.028  12.336  0.00  0.00    +0.000 A 
ATOM     21  C   UNL     1      46.598   6.939  11.847  0.00  0.00    +0.000 A 
BRANCH  20  22
ATOM     22  C   UNL     1      48.860   8.061  11.864  0.00  0.00    +0.000 A 
ATOM     23  C   UNL     1      48.460   9.400  11.690  0.00  0.00    +0.000 A 
ATOM     24  C   UNL     1      49.362  10.386  11.277  0.00  0.00    +0.000 A 
ATOM     25  C   UNL     1      50.687  10.053  11.014  0.00  0.00    +0.000 A 
ATOM     26  C   UNL     1      51.107   8.736  11.162  0.00  0.00    +0.000 A 
ATOM     27  C   UNL     1      50.205   7.754  11.585  0.00  0.00    +0.000 A 
ENDBRANCH  20  22
ENDBRANCH  15  16
ENDBRANCH   1  15
TORSDOF 6
ENDMDL
MODEL 3
REMARK VINA RESULT:    -7.576      3.544      7.173
REMARK INTER + INTRA:         -11.091
REMARK INTER:                 -10.231
REMARK INTRA:                  -0.860
REMARK UNBOUND:                -0.857
REMARK  Name = 
REMARK  6 active torsions:
REMARK  status: ('A' for Active; 'I' for Inactive)
REMARK    1  A    between atoms: C_2  and  C_4
REMARK    2  A    between atoms: C_7  and  N_8
REMARK    3  A    between atoms: N_8  and  C_9
REMARK    4  A    between atoms: C_9  and  C_10
REMARK    5  A    between atoms: C_10  and  C_11
REMARK    6  A    between atoms: C_15  and  C_16
REMARK                            x       y       z     vdW  Elec       q    Type
REMARK                         _______ _______ _______ _____ _____    ______ ____
ROOT
ATOM      1  C   UNL     1      43.459   5.020  10.943  0.00  0.00    +0.000 C 
ENDROOT
BRANCH   1   2
ATOM      2  N   UNL     1      43.618   3.595  10.628  0.00  0.00    +0.000 N 
ATOM      3  H   UNL     1      42.738   3.160  10.363  0.00  0.00    +0.000 HD
BRANCH   2   7
ATOM      4  C   UNL     1      46.407   2.943   7.668  0.00  0.00    +0.000 A 
ATOM      5  C   UNL     1      45.858   1.882   8.368  0.00  0.00    +0.000 A 
ATOM      6  N   UNL     1      44.939   2.052   9.356  0.00  0.00    +0.000 NA
ATOM      7  C   UNL     1      44.577   3.323   9.634  0.00  0.00    +0.000 A 
ATOM      8  C   UNL     1      45.134   4.383   8.902  0.00  0.00    +0.000 A 
ATOM      9  N   UNL     1      46.061   4.236   7.918  0.00  0.00    +0.000 NA
BRANCH   4  11
ATOM     10  N   UNL     1      47.122   3.208   5.370  0.00  0.00    +0.000 N 
ATOM     11  C   UNL     1      47.412   2.686   6.602  0.00  0.00    +0.000 C 
ATOM     12  O   UNL     1      48.438   2.051   6.808  0.00  0.00    +0.000 OA
ATOM     13  H   UNL     1      47.765   3.065   4.603  0.00  0.00    +0.000 HD
ATOM     14  H   UNL     1      46.265   3.731   5.229  0.00  0.00    +0.000 HD
ENDBRANCH   4  11
ENDBRANCH   2   7
ENDBRANCH   1   2
BRANCH   1  15
ATOM     15  C   UNL     1      43.707   5.241  12.441  0.00  0.00    +0.000 C 
BRANCH  15  16
ATOM     16  C   UNL     1      45.154   5.500  12.757  0.00  0.00    +0.000 A 
ATOM     17  C   UNL     1      45.897   4.610  13.519  0.00  0.00    +0.000 A 
ATOM     18  N   UNL     1      47.197   4.790  13.829  0.00  0.00    +0.000 NA
ATOM     19  C   UNL     1      47.785   5.919  13.360  0.00  0.00    +0.000 A 
ATOM     20  C   UNL     1      47.151   6.906  12.601  0.00  0.00    +0.000 A 
ATOM     21  C   UNL     1      45.799   6.661  12.310  0.00  0.00    +0.000 A 
BRANCH  20  22
ATOM     22  C   UNL     1      47.847   8.129  12.146  0.00  0.00    +0.000 A 
ATOM     23  C   UNL     1      47.196   9.377  12.119  0.00  0.00    +0.000 A 
ATOM     24  C   UNL     1      47.861  10.542  11.721  0.00  0.00    +0.000 A 
ATOM     25  C   UNL     1      49.193  10.484  11.326  0.00  0.00    +0.000 A 
ATOM     26  C   UNL     1      49.858   9.262  11.328  0.00  0.00    +0.000 A 
ATOM     27  C   UNL     1      49.193   8.101  11.736  0.00  0.00    +0.000 A 
ENDBRANCH  20  22
ENDBRANCH  15  16
ENDBRANCH   1  15
TORSDOF 6
ENDMDL
MODEL 4
REMARK VINA RESULT:    -7.152      1.741      2.287
REMARK INTER + INTRA:         -10.517
REMARK INTER:                 -10.031
REMARK INTRA:                  -0.486
REMARK UNBOUND:                -0.857
REMARK  Name = 
REMARK  6 active torsions:
REMARK  status: ('A' for Active; 'I' for Inactive)
REMARK    1  A    between atoms: C_2  and  C_4
REMARK    2  A    between atoms: C_7  and  N_8
REMARK    3  A    between atoms: N_8  and  C_9
REMARK    4  A    between atoms: C_9  and  C_10
REMARK    5  A    between atoms: C_10  and  C_11
REMARK    6  A    between atoms: C_15  and  C_16
REMARK                            x       y       z     vdW  Elec       q    Type
REMARK                         _______ _______ _______ _____ _____    ______ ____
ROOT
ATOM      1  C   UNL     1      47.161   6.138  13.200  0.00  0.00    +0.000 C 
ENDROOT
BRANCH   1   2
ATOM      2  N   UNL     1      46.763   4.878  13.838  0.00  0.00    +0.000 N 
ATOM      3  H   UNL     1      47.034   4.067  13.289  0.00  0.00    +0.000 HD
BRANCH   2   7
ATOM      4  C   UNL     1      48.271   4.508  17.653  0.00  0.00    +0.000 A 
ATOM      5  C   UNL     1      47.363   3.586  17.159  0.00  0.00    +0.000 A 
ATOM      6  N   UNL     1      46.837   3.673  15.908  0.00  0.00    +0.000 NA
ATOM      7  C   UNL     1      47.241   4.717  15.152  0.00  0.00    +0.000 A 
ATOM      8  C   UNL     1      48.173   5.631  15.666  0.00  0.00    +0.000 A 
ATOM      9  N   UNL     1      48.705   5.568  16.917  0.00  0.00    +0.000 NA
BRANCH   4  11
ATOM     10  N   UNL     1      48.392   3.241  19.713  0.00  0.00    +0.000 N 
ATOM     11  C   UNL     1      48.805   4.356  19.033  0.00  0.00    +0.000 C 
ATOM     12  O   UNL     1      49.567   5.172  19.535  0.00  0.00    +0.000 OA
ATOM     13  H   UNL     1      48.717   3.083  20.657  0.00  0.00    +0.000 HD
ATOM     14  H   UNL     1      47.761   2.582  19.271  0.00  0.00    +0.000 HD
ENDBRANCH   4  11
ENDBRANCH   2   7
ENDBRANCH   1   2
BRANCH   1  15
ATOM     15  C   UNL     1      45.910   6.873  12.700  0.00  0.00    +0.000 C 
BRANCH  15  16
ATOM     16  C   UNL     1      45.098   6.049  11.739  0.00  0.00    +0.000 A 
ATOM     17  C   UNL     1      43.711   6.041  11.788  0.00  0.00    +0.000 A 
ATOM     18  N   UNL     1      42.935   5.326  10.950  0.00  0.00    +0.000 NA
ATOM     19  C   UNL     1      43.574   4.574  10.017  0.00  0.00    +0.000 A 
ATOM     20  C   UNL     1      44.959   4.475   9.871  0.00  0.00    +0.000 A 
ATOM     21  C   UNL     1      45.715   5.243  10.773  0.00  0.00    +0.000 A 
BRANCH  20  22
ATOM     22  C   UNL     1      45.592   3.611   8.849  0.00  0.00    +0.000 A 
ATOM     23  C   UNL     1      46.228   4.157   7.719  0.00  0.00    +0.000 A 
ATOM     24  C   UNL     1      46.857   3.345   6.769  0.00  0.00    +0.000 A 
ATOM     25  C   UNL     1      46.850   1.962   6.919  0.00  0.00    +0.000 A 
ATOM     26  C   UNL     1      46.215   1.393   8.018  0.00  0.00    +0.000 A 
ATOM     27  C   UNL     1      45.597   2.209   8.972  0.00  0.00    +0.000 A 
ENDBRANCH  20  22
ENDBRANCH  15  16
ENDBRANCH   1  15
TORSDOF 6
ENDMDL
MODEL 5
REMARK VINA RESULT:    -6.974      2.884      7.780
REMARK INTER + INTRA:         -10.278
REMARK INTER:                  -9.590
REMARK INTRA:                  -0.688
REMARK UNBOUND:                -0.857
REMARK  Name = 
REMARK  6 active torsions:
REMARK  status: ('A' for Active; 'I' for Inactive)
REMARK    1  A    between atoms: C_2  and  C_4
REMARK    2  A    between atoms: C_7  and  N_8
REMARK    3  A    between atoms: N_8  and  C_9
REMARK    4  A    between atoms: C_9  and  C_10
REMARK    5  A    between atoms: C_10  and  C_11
REMARK    6  A    between atoms: C_15  and  C_16
REMARK                            x       y       z     vdW  Elec       q    Type
REMARK                         _______ _______ _______ _____ _____    ______ ____
ROOT
ATOM      1  C   UNL     1      44.159   4.414  11.480  0.00  0.00    +0.000 C 
ENDROOT
BRANCH   1   2
ATOM      2  N   UNL     1      43.737   4.270  10.082  0.00  0.00    +0.000 N 
ATOM      3  H   UNL     1      43.389   5.143   9.694  0.00  0.00    +0.000 HD
BRANCH   2   7
ATOM      4  C   UNL     1      46.646   2.903   7.506  0.00  0.00    +0.000 A 
ATOM      5  C   UNL     1      45.894   2.016   8.259  0.00  0.00    +0.000 A 
ATOM      6  N   UNL     1      44.928   2.424   9.124  0.00  0.00    +0.000 NA
ATOM      7  C   UNL     1      44.728   3.755   9.225  0.00  0.00    +0.000 A 
ATOM      8  C   UNL     1      45.490   4.637   8.443  0.00  0.00    +0.000 A 
ATOM      9  N   UNL     1      46.467   4.251   7.579  0.00  0.00    +0.000 NA
BRANCH   4  11
ATOM     10  N   UNL     1      47.747   2.989   5.352  0.00  0.00    +0.000 N 
ATOM     11  C   UNL     1      47.691   2.389   6.581  0.00  0.00    +0.000 C 
ATOM     12  O   UNL     1      48.458   1.488   6.895  0.00  0.00    +0.000 OA
ATOM     13  H   UNL     1      48.435   2.682   4.677  0.00  0.00    +0.000 HD
ATOM     14  H   UNL     1      47.099   3.733   5.120  0.00  0.00    +0.000 HD
ENDBRANCH   4  11
ENDBRANCH   2   7
ENDBRANCH   1   2
BRANCH   1  15
ATOM     15  C   UNL     1      44.472   5.888  11.768  0.00  0.00    +0.000 C 
BRANCH  15  16
ATOM     16  C   UNL     1      45.828   6.082  12.390  0.00  0.00    +0.000 A 
ATOM     17  C   UNL     1      46.802   6.853  11.772  0.00  0.00    +0.000 A 
ATOM     18  N   UNL     1      48.030   7.064  12.286  0.00  0.00    +0.000 NA
ATOM     19  C   UNL     1      48.305   6.469  13.475  0.00  0.00    +0.000 A 
ATOM     20  C   UNL     1      47.427   5.653  14.192  0.00  0.00    +0.000 A 
ATOM     21  C   UNL     1      46.163   5.472  13.607  0.00  0.00    +0.000 A 
BRANCH  20  22
ATOM     22  C   UNL     1      47.802   5.012  15.471  0.00  0.00    +0.000 A 
ATOM     23  C   UNL     1      47.387   3.704  15.787  0.00  0.00    +0.000 A 
ATOM     24  C   UNL     1      47.769   3.082  16.980  0.00  0.00    +0.000 A 
ATOM     25  C   UNL     1      48.565   3.761  17.897  0.00  0.00    +0.000 A 
ATOM     26  C   UNL     1      48.977   5.060  17.620  0.00  0.00    +0.000 A 
ATOM     27  C   UNL     1      48.603   5.675  16.420  0.00  0.00    +0.000 A 
ENDBRANCH  20  22
ENDBRANCH  15  16
ENDBRANCH   1  15
TORSDOF 6
ENDMDL
MODEL 6
REMARK VINA RESULT:    -6.781      2.448      4.063
REMARK INTER + INTRA:         -10.017
REMARK INTER:                  -9.099
REMARK INTRA:                  -0.918
REMARK UNBOUND:                -0.857
REMARK  Name = 
REMARK  6 active torsions:
REMARK  status: ('A' for Active; 'I' for Inactive)
REMARK    1  A    between atoms: C_2  and  C_4
REMARK    2  A    between atoms: C_7  and  N_8
REMARK    3  A    between atoms: N_8  and  C_9
REMARK    4  A    between atoms: C_9  and  C_10
REMARK    5  A    between atoms: C_10  and  C_11
REMARK    6  A    between atoms: C_15  and  C_16
REMARK                            x       y       z     vdW  Elec       q    Type
REMARK                         _______ _______ _______ _____ _____    ______ ____
ROOT
ATOM      1  C   UNL     1      49.616   7.531  13.322  0.00  0.00    +0.000 C 
ENDROOT
BRANCH   1   2
ATOM      2  N   UNL     1      49.237   7.844  14.705  0.00  0.00    +0.000 N 
ATOM      3  H   UNL     1      48.545   8.587  14.755  0.00  0.00    +0.000 HD
BRANCH   2   7
ATOM      4  C   UNL     1      47.973   4.658  16.988  0.00  0.00    +0.000 A 
ATOM      5  C   UNL     1      47.705   4.705  15.630  0.00  0.00    +0.000 A 
ATOM      6  N   UNL     1      48.099   5.740  14.840  0.00  0.00    +0.000 NA
ATOM      7  C   UNL     1      48.774   6.741  15.445  0.00  0.00    +0.000 A 
ATOM      8  C   UNL     1      49.048   6.666  16.820  0.00  0.00    +0.000 A 
ATOM      9  N   UNL     1      48.655   5.646  17.629  0.00  0.00    +0.000 NA
BRANCH   4  11
ATOM     10  N   UNL     1      48.271   3.188  18.889  0.00  0.00    +0.000 N 
ATOM     11  C   UNL     1      47.508   3.498  17.795  0.00  0.00    +0.000 C 
ATOM     12  O   UNL     1      46.506   2.857  17.505  0.00  0.00    +0.000 OA
ATOM     13  H   UNL     1      48.009   2.408  19.476  0.00  0.00    +0.000 HD
ATOM     14  H   UNL     1      49.096   3.737  19.105  0.00  0.00    +0.000 HD
ENDBRANCH   4  11
ENDBRANCH   2   7
ENDBRANCH   1   2
BRANCH   1  15
ATOM     15  C   UNL     1      48.882   8.480  12.366  0.00  0.00    +0.000 C 
BRANCH  15  16
ATOM     16  C   UNL     1      47.449   8.083  12.141  0.00  0.00    +0.000 A 
ATOM     17  C   UNL     1      46.402   8.890  12.563  0.00  0.00    +0.000 A 
ATOM     18  N   UNL     1      45.101   8.586  12.384  0.00  0.00    +0.000 NA
ATOM     19  C   UNL     1      44.828   7.413  11.758  0.00  0.00    +0.000 A 
ATOM     20  C   UNL     1      45.782   6.500  11.303  0.00  0.00    +0.000 A 
ATOM     21  C   UNL     1      47.120   6.872  11.517  0.00  0.00    +0.000 A 
BRANCH  20  22
ATOM     22  C   UNL     1      45.414   5.223  10.653  0.00  0.00    +0.000 A 
ATOM     23  C   UNL     1      44.935   4.129  11.400  0.00  0.00    +0.000 A 
ATOM     24  C   UNL     1      44.554   2.932  10.784  0.00  0.00    +0.000 A 
ATOM     25  C   UNL     1      44.657   2.794   9.404  0.00  0.00    +0.000 A 
ATOM     26  C   UNL     1      45.142   3.851   8.641  0.00  0.00    +0.000 A 
ATOM     27  C   UNL     1      45.512   5.051   9.259  0.00  0.00    +0.000 A 
ENDBRANCH  20  22
ENDBRANCH  15  16
ENDBRANCH   1  15
TORSDOF 6
ENDMDL
MODEL 7
REMARK VINA RESULT:    -6.324      2.401      4.044
REMARK INTER + INTRA:          -9.399
REMARK INTER:                  -8.791
REMARK INTRA:                  -0.608
REMARK UNBOUND:                -0.857
REMARK  Name = 
REMARK  6 active torsions:
REMARK  status: ('A' for Active; 'I' for Inactive)
REMARK    1  A    between atoms: C_2  and  C_4
REMARK    2  A    between atoms: C_7  and  N_8
REMARK    3  A    between atoms: N_8  and  C_9
REMARK    4  A    between atoms: C_9  and  C_10
REMARK    5  A    between atoms: C_10  and  C_11
REMARK    6  A    between atoms: C_15  and  C_16
REMARK                            x       y       z     vdW  Elec       q    Type
REMARK                         _______ _______ _______ _____ _____    ______ ____
ROOT
ATOM      1  C   UNL     1      48.751   8.137  14.977  0.00  0.00    +0.000 C 
ENDROOT
BRANCH   1   2
ATOM      2  N   UNL     1      48.192   7.407  16.120  0.00  0.00    +0.000 N 
ATOM      3  H   UNL     1      47.211   7.176  15.986  0.00  0.00    +0.000 HD
BRANCH   2   7
ATOM      4  C   UNL     1      50.104   3.900  17.121  0.00  0.00    +0.000 A 
ATOM      5  C   UNL     1      50.776   5.110  17.171  0.00  0.00    +0.000 A 
ATOM      6  N   UNL     1      50.184   6.290  16.845  0.00  0.00    +0.000 NA
ATOM      7  C   UNL     1      48.892   6.234  16.459  0.00  0.00    +0.000 A 
ATOM      8  C   UNL     1      48.225   4.999  16.430  0.00  0.00    +0.000 A 
ATOM      9  N   UNL     1      48.800   3.806  16.743  0.00  0.00    +0.000 NA
BRANCH   4  11
ATOM     10  N   UNL     1      51.790   2.766  18.440  0.00  0.00    +0.000 N 
ATOM     11  C   UNL     1      50.813   2.644  17.487  0.00  0.00    +0.000 C 
ATOM     12  O   UNL     1      50.544   1.565  16.974  0.00  0.00    +0.000 OA
ATOM     13  H   UNL     1      52.310   1.949  18.729  0.00  0.00    +0.000 HD
ATOM     14  H   UNL     1      51.990   3.672  18.847  0.00  0.00    +0.000 HD
ENDBRANCH   4  11
ENDBRANCH   2   7
ENDBRANCH   1   2
BRANCH   1  15
ATOM     15  C   UNL     1      48.740   7.231  13.739  0.00  0.00    +0.000 C 
BRANCH  15  16
ATOM     16  C   UNL     1      47.425   7.261  13.009  0.00  0.00    +0.000 A 
ATOM     17  C   UNL     1      46.541   8.320  13.158  0.00  0.00    +0.000 A 
ATOM     18  N   UNL     1      45.353   8.401  12.527  0.00  0.00    +0.000 NA
ATOM     19  C   UNL     1      45.025   7.368  11.708  0.00  0.00    +0.000 A 
ATOM     20  C   UNL     1      45.810   6.235  11.484  0.00  0.00    +0.000 A 
ATOM     21  C   UNL     1      47.036   6.209  12.169  0.00  0.00    +0.000 A 
BRANCH  20  22
ATOM     22  C   UNL     1      45.378   5.131  10.599  0.00  0.00    +0.000 A 
ATOM     23  C   UNL     1      45.714   5.111   9.232  0.00  0.00    +0.000 A 
ATOM     24  C   UNL     1      45.336   4.052   8.400  0.00  0.00    +0.000 A 
ATOM     25  C   UNL     1      44.598   2.990   8.914  0.00  0.00    +0.000 A 
ATOM     26  C   UNL     1      44.237   2.990  10.257  0.00  0.00    +0.000 A 
ATOM     27  C   UNL     1      44.626   4.046  11.089  0.00  0.00    +0.000 A 
ENDBRANCH  20  22
ENDBRANCH  15  16
ENDBRANCH   1  15
TORSDOF 6
ENDMDL
MODEL 8
REMARK VINA RESULT:    -6.222      3.224      8.260
REMARK INTER + INTRA:          -9.262
REMARK INTER:                  -8.583
REMARK INTRA:                  -0.679
REMARK UNBOUND:                -0.857
REMARK  Name = 
REMARK  6 active torsions:
REMARK  status: ('A' for Active; 'I' for Inactive)
REMARK    1  A    between atoms: C_2  and  C_4
REMARK    2  A    between atoms: C_7  and  N_8
REMARK    3  A    between atoms: N_8  and  C_9
REMARK    4  A    between atoms: C_9  and  C_10
REMARK    5  A    between atoms: C_10  and  C_11
REMARK    6  A    between atoms: C_15  and  C_16
REMARK                            x       y       z     vdW  Elec       q    Type
REMARK                         _______ _______ _______ _____ _____    ______ ____
ROOT
ATOM      1  C   UNL     1      48.283   6.488  14.307  0.00  0.00    +0.000 C 
ENDROOT
BRANCH   1   2
ATOM      2  N   UNL     1      46.996   7.002  13.824  0.00  0.00    +0.000 N 
ATOM      3  H   UNL     1      47.103   7.851  13.275  0.00  0.00    +0.000 HD
BRANCH   2   7
ATOM      4  C   UNL     1      44.831   4.176  11.753  0.00  0.00    +0.000 A 
ATOM      5  C   UNL     1      45.085   5.419  11.197  0.00  0.00    +0.000 A 
ATOM      6  N   UNL     1      45.791   6.382  11.848  0.00  0.00    +0.000 NA
ATOM      7  C   UNL     1      46.241   6.074  13.083  0.00  0.00    +0.000 A 
ATOM      8  C   UNL     1      45.985   4.803  13.621  0.00  0.00    +0.000 A 
ATOM      9  N   UNL     1      45.274   3.829  12.992  0.00  0.00    +0.000 NA
BRANCH   4  11
ATOM     10  N   UNL     1      44.492   2.904   9.720  0.00  0.00    +0.000 N 
ATOM     11  C   UNL     1      44.047   3.169  10.988  0.00  0.00    +0.000 C 
ATOM     12  O   UNL     1      43.066   2.607  11.457  0.00  0.00    +0.000 OA
ATOM     13  H   UNL     1      44.000   2.231   9.149  0.00  0.00    +0.000 HD
ATOM     14  H   UNL     1      45.308   3.385   9.358  0.00  0.00    +0.000 HD
ENDBRANCH   4  11
ENDBRANCH   2   7
ENDBRANCH   1   2
BRANCH   1  15
ATOM     15  C   UNL     1      48.348   6.630  15.833  0.00  0.00    +0.000 C 
BRANCH  15  16
ATOM     16  C   UNL     1      48.447   5.304  16.536  0.00  0.00    +0.000 A 
ATOM     17  C   UNL     1      47.315   4.641  16.989  0.00  0.00    +0.000 A 
ATOM     18  N   UNL     1      47.346   3.450  17.620  0.00  0.00    +0.000 NA
ATOM     19  C   UNL     1      48.568   2.894  17.815  0.00  0.00    +0.000 A 
ATOM     20  C   UNL     1      49.785   3.461  17.430  0.00  0.00    +0.000 A 
ATOM     21  C   UNL     1      49.689   4.701  16.776  0.00  0.00    +0.000 A 
BRANCH  20  22
ATOM     22  C   UNL     1      51.086   2.811  17.700  0.00  0.00    +0.000 A 
ATOM     23  C   UNL     1      51.307   1.454  17.398  0.00  0.00    +0.000 A 
ATOM     24  C   UNL     1      52.547   0.846  17.622  0.00  0.00    +0.000 A 
ATOM     25  C   UNL     1      53.595   1.580  18.168  0.00  0.00    +0.000 A 
ATOM     26  C   UNL     1      53.402   2.919  18.491  0.00  0.00    +0.000 A 
ATOM     27  C   UNL     1      52.164   3.527  18.256  0.00  0.00    +0.000 A 
ENDBRANCH  20  22
ENDBRANCH  15  16
ENDBRANCH   1  15
TORSDOF 6
ENDMDL
MODEL 9
REMARK VINA RESULT:    -6.104      1.771      2.638
REMARK INTER + INTRA:          -9.102
REMARK INTER:                  -8.240
REMARK INTRA:                  -0.862
REMARK UNBOUND:                -0.857
REMARK  Name = 
REMARK  6 active torsions:
REMARK  status: ('A' for Active; 'I' for Inactive)
REMARK    1  A    between atoms: C_2  and  C_4
REMARK    2  A    between atoms: C_7  and  N_8
REMARK    3  A    between atoms: N_8  and  C_9
REMARK    4  A    between atoms: C_9  and  C_10
REMARK    5  A    between atoms: C_10  and  C_11
REMARK    6  A    between atoms: C_15  and  C_16
REMARK                            x       y       z     vdW  Elec       q    Type
REMARK                         _______ _______ _______ _____ _____    ______ ____
ROOT
ATOM      1  C   UNL     1      47.225   8.445  13.427  0.00  0.00    +0.000 C 
ENDROOT
BRANCH   1   2
ATOM      2  N   UNL     1      48.291   7.437  13.369  0.00  0.00    +0.000 N 
ATOM      3  H   UNL     1      49.201   7.852  13.187  0.00  0.00    +0.000 HD
BRANCH   2   7
ATOM      4  C   UNL     1      48.434   4.976  16.667  0.00  0.00    +0.000 A 
ATOM      5  C   UNL     1      49.196   6.132  16.614  0.00  0.00    +0.000 A 
ATOM      6  N   UNL     1      49.182   6.970  15.543  0.00  0.00    +0.000 NA
ATOM      7  C   UNL     1      48.383   6.622  14.512  0.00  0.00    +0.000 A 
ATOM      8  C   UNL     1      47.608   5.454  14.593  0.00  0.00    +0.000 A 
ATOM      9  N   UNL     1      47.614   4.598  15.649  0.00  0.00    +0.000 NA
BRANCH   4  11
ATOM     10  N   UNL     1      49.052   2.862  17.675  0.00  0.00    +0.000 N 
ATOM     11  C   UNL     1      48.500   4.101  17.869  0.00  0.00    +0.000 C 
ATOM     12  O   UNL     1      48.091   4.460  18.965  0.00  0.00    +0.000 OA
ATOM     13  H   UNL     1      49.122   2.220  18.453  0.00  0.00    +0.000 HD
ATOM     14  H   UNL     1      49.383   2.593  16.756  0.00  0.00    +0.000 HD
ENDBRANCH   4  11
ENDBRANCH   2   7
ENDBRANCH   1   2
BRANCH   1  15
ATOM     15  C   UNL     1      46.422   8.413  12.120  0.00  0.00    +0.000 C 
BRANCH  15  16
ATOM     16  C   UNL     1      45.637   7.141  11.952  0.00  0.00    +0.000 A 
ATOM     17  C   UNL     1      44.630   6.791  12.840  0.00  0.00    +0.000 A 
ATOM     18  N   UNL     1      43.894   5.667  12.735  0.00  0.00    +0.000 NA
ATOM     19  C   UNL     1      44.180   4.845  11.694  0.00  0.00    +0.000 A 
ATOM     20  C   UNL     1      45.178   5.064  10.742  0.00  0.00    +0.000 A 
ATOM     21  C   UNL     1      45.911   6.252  10.904  0.00  0.00    +0.000 A 
BRANCH  20  22
ATOM     22  C   UNL     1      45.456   4.109   9.647  0.00  0.00    +0.000 A 
ATOM     23  C   UNL     1      45.215   2.730   9.796  0.00  0.00    +0.000 A 
ATOM     24  C   UNL     1      45.445   1.829   8.751  0.00  0.00    +0.000 A 
ATOM     25  C   UNL     1      45.938   2.285   7.533  0.00  0.00    +0.000 A 
ATOM     26  C   UNL     1      46.201   3.640   7.361  0.00  0.00    +0.000 A 
ATOM     27  C   UNL     1      45.959   4.540   8.405  0.00  0.00    +0.000 A 
ENDBRANCH  20  22
ENDBRANCH  15  16
ENDBRANCH   1  15
TORSDOF 6
ENDMDL
