MODEL 1
REMARK VINA RESULT:    -7.204      0.000      0.000
REMARK INTER + INTRA:         -10.855
REMARK INTER:                  -9.942
REMARK INTRA:                  -0.913
REMARK UNBOUND:                -0.913
REMARK  Name = 
REMARK  7 active torsions:
REMARK  status: ('A' for Active; 'I' for Inactive)
REMARK    1  A    between atoms: N_1  and  C_2
REMARK    2  A    between atoms: C_2  and  C_3
REMARK    3  A    between atoms: C_7  and  O_8
REMARK    4  A    between atoms: O_8  and  C_9
REMARK    5  A    between atoms: C_9  and  C_10
REMARK    6  A    between atoms: C_10  and  C_11
REMARK    7  A    between atoms: C_15  and  C_16
REMARK                            x       y       z     vdW  Elec       q    Type
REMARK                         _______ _______ _______ _____ _____    ______ ____
ROOT
ATOM      1  C   UNL     1      43.095   4.099  11.383  0.00  0.00    +0.000 C 
ENDROOT
BRANCH   1   2
ATOM      2  O   UNL     1      43.469   4.437  12.726  0.00  0.00    +0.000 OA
BRANCH   2   7
ATOM      3  C   UNL     1      45.606   7.399  12.418  0.00  0.00    +0.000 A 
ATOM      4  C   UNL     1      46.798   6.947  13.000  0.00  0.00    +0.000 A 
ATOM      5  C   UNL     1      46.903   5.647  13.479  0.00  0.00    +0.000 A 
ATOM      6  C   UNL     1      45.811   4.784  13.396  0.00  0.00    +0.000 A 
ATOM      7  C   UNL     1      44.603   5.212  12.837  0.00  0.00    +0.000 A 
ATOM      8  C   UNL     1      44.510   6.521  12.345  0.00  0.00    +0.000 A 
BRANCH   3   9
ATOM      9  C   UNL     1      45.519   8.817  11.908  0.00  0.00    +0.000 C 
BRANCH   9  10
ATOM     10  N   UNL     1      44.666   9.640  12.758  0.00  0.00    +0.000 NA
ATOM     11  H   UNL     1      44.449  10.510  12.277  0.00  0.00    +0.000 HD
ATOM     12  H   UNL     1      45.186   9.893  13.597  0.00  0.00    +0.000 HD
ENDBRANCH   9  10
ENDBRANCH   3   9
ENDBRANCH   2   7
ENDBRANCH   1   2
BRANCH   1  13
ATOM     13  C   UNL     1      43.727   2.776  10.950  0.00  0.00    +0.000 C 
BRANCH  13  14
ATOM     14  C   UNL     1      44.681   2.988   9.794  0.00  0.00    +0.000 A 
ATOM     15  C   UNL     1      44.849   4.266   9.241  0.00  0.00    +0.000 A 
ATOM     16  C   UNL     1      45.677   4.461   8.134  0.00  0.00    +0.000 A 
ATOM     17  C   UNL     1      46.352   3.381   7.569  0.00  0.00    +0.000 A 
ATOM     18  C   UNL     1      46.208   2.101   8.112  0.00  0.00    +0.000 A 
ATOM     19  C   UNL     1      45.359   1.903   9.214  0.00  0.00    +0.000 A 
BRANCH  18  20
ATOM     20  C   UNL     1      46.961   0.986   7.476  0.00  0.00    +0.000 C 
ATOM     21  N   UNL     1      47.875   1.313   6.513  0.00  0.00    +0.000 N 
ATOM     22  O   UNL     1      46.743  -0.183   7.763  0.00  0.00    +0.000 OA
ATOM     23  H   UNL     1      47.892   2.222   6.072  0.00  0.00    +0.000 HD
ATOM     24  H   UNL     1      48.264   0.536   5.996  0.00  0.00    +0.000 HD
ENDBRANCH  18  20
ENDBRANCH  13  14
ENDBRANCH   1  13
TORSDOF 7
ENDMDL
MODEL 2
REMARK VINA RESULT:    -7.051      1.663      2.278
REMARK INTER + INTRA:         -10.643
REMARK INTER:                  -9.794
REMARK INTRA:                  -0.849
REMARK UNBOUND:                -0.913
REMARK  Name = 
REMARK  7 active torsions:
REMARK  status: ('A' for Active; 'I' for Inactive)
REMARK    1  A    between atoms: N_1  and  C_2
REMARK    2  A    between atoms: C_2  and  C_3
REMARK    3  A    between atoms: C_7  and  O_8
REMARK    4  A    between atoms: O_8  and  C_9
REMARK    5  A    between atoms: C_9  and  C_10
REMARK    6  A    between atoms: C_10  and  C_11
REMARK    7  A    between atoms: C_15  and  C_16
REMARK                            x       y       z     vdW  Elec       q    Type
REMARK                         _______ _______ _______ _____ _____    ______ ____
ROOT
ATOM      1  C   UNL     1      43.293   4.492  10.766  0.00  0.00    +0.000 C 
ENDROOT
BRANCH   1   2
ATOM      2  O   UNL     1      43.460   4.983  12.102  0.00  0.00    +0.000 OA
BRANCH   2   7
ATOM      3  C   UNL     1      46.654   4.931  13.900  0.00  0.00    +0.000 A 
ATOM      4  C   UNL     1      47.369   5.934  13.232  0.00  0.00    +0.000 A 
ATOM      5  C   UNL     1      46.784   6.648  12.194  0.00  0.00    +0.000 A 
ATOM      6  C   UNL     1      45.478   6.358  11.798  0.00  0.00    +0.000 A 
ATOM      7  C   UNL     1      44.747   5.349  12.433  0.00  0.00    +0.000 A 
ATOM      8  C   UNL     1      45.340   4.643  13.487  0.00  0.00    +0.000 A 
BRANCH   3   9
ATOM      9  C   UNL     1      47.315   4.169  15.023  0.00  0.00    +0.000 C 
BRANCH   9  10
ATOM     10  N   UNL     1      47.306   4.934  16.266  0.00  0.00    +0.000 NA
ATOM     11  H   UNL     1      46.547   5.611  16.240  0.00  0.00    +0.000 HD
ATOM     12  H   UNL     1      48.171   5.468  16.328  0.00  0.00    +0.000 HD
ENDBRANCH   9  10
ENDBRANCH   3   9
ENDBRANCH   2   7
ENDBRANCH   1   2
BRANCH   1  13
ATOM     13  C   UNL     1      43.957   3.127  10.591  0.00  0.00    +0.000 C 
BRANCH  13  14
ATOM     14  C   UNL     1      44.960   3.157   9.457  0.00  0.00    +0.000 A 
ATOM     15  C   UNL     1      45.324   4.376   8.867  0.00  0.00    +0.000 A 
ATOM     16  C   UNL     1      46.198   4.411   7.779  0.00  0.00    +0.000 A 
ATOM     17  C   UNL     1      46.725   3.225   7.270  0.00  0.00    +0.000 A 
ATOM     18  C   UNL     1      46.385   1.999   7.852  0.00  0.00    +0.000 A 
ATOM     19  C   UNL     1      45.490   1.966   8.934  0.00  0.00    +0.000 A 
BRANCH  18  20
ATOM     20  C   UNL     1      46.985   0.766   7.276  0.00  0.00    +0.000 C 
ATOM     21  N   UNL     1      47.703   0.895   6.120  0.00  0.00    +0.000 N 
ATOM     22  O   UNL     1      46.810  -0.333   7.785  0.00  0.00    +0.000 OA
ATOM     23  H   UNL     1      47.649   1.722   5.541  0.00  0.00    +0.000 HD
ATOM     24  H   UNL     1      47.975   0.030   5.672  0.00  0.00    +0.000 HD
ENDBRANCH  18  20
ENDBRANCH  13  14
ENDBRANCH   1  13
TORSDOF 7
ENDMDL
MODEL 3
REMARK VINA RESULT:    -7.044      2.103      6.518
REMARK INTER + INTRA:         -10.633
REMARK INTER:                  -9.827
REMARK INTRA:                  -0.806
REMARK UNBOUND:                -0.913
REMARK  Name = 
REMARK  7 active torsions:
REMARK  status: ('A' for Active; 'I' for Inactive)
REMARK    1  A    between atoms: N_1  and  C_2
REMARK    2  A    between atoms: C_2  and  C_3
REMARK    3  A    between atoms: C_7  and  O_8
REMARK    4  A    between atoms: O_8  and  C_9
REMARK    5  A    between atoms: C_9  and  C_10
REMARK    6  A    between atoms: C_10  and  C_11
REMARK    7  A    between atoms: C_15  and  C_16
REMARK                            x       y       z     vdW  Elec       q    Type
REMARK                         _______ _______ _______ _____ _____    ______ ____
ROOT
ATOM      1  C   UNL     1      43.539   3.255  11.041  0.00  0.00    +0.000 C 
ENDROOT
BRANCH   1   2
ATOM      2  O   UNL     1      44.035   2.261  10.135  0.00  0.00    +0.000 OA
BRANCH   2   7
ATOM      3  C   UNL     1      46.625   2.118   7.546  0.00  0.00    +0.000 A 
ATOM      4  C   UNL     1      46.770   3.472   7.218  0.00  0.00    +0.000 A 
ATOM      5  C   UNL     1      46.021   4.443   7.873  0.00  0.00    +0.000 A 
ATOM      6  C   UNL     1      45.104   4.070   8.855  0.00  0.00    +0.000 A 
ATOM      7  C   UNL     1      44.924   2.724   9.190  0.00  0.00    +0.000 A 
ATOM      8  C   UNL     1      45.693   1.754   8.535  0.00  0.00    +0.000 A 
BRANCH   3   9
ATOM      9  C   UNL     1      47.450   1.084   6.818  0.00  0.00    +0.000 C 
BRANCH   9  10
ATOM     10  N   UNL     1      48.465   1.708   5.974  0.00  0.00    +0.000 NA
ATOM     11  H   UNL     1      48.441   1.284   5.049  0.00  0.00    +0.000 HD
ATOM     12  H   UNL     1      49.384   1.505   6.363  0.00  0.00    +0.000 HD
ENDBRANCH   9  10
ENDBRANCH   3   9
ENDBRANCH   2   7
ENDBRANCH   1   2
BRANCH   1  13
ATOM     13  C   UNL     1      44.393   3.324  12.307  0.00  0.00    +0.000 C 
BRANCH  13  14
ATOM     14  C   UNL     1      44.994   4.703  12.477  0.00  0.00    +0.000 A 
ATOM     15  C   UNL     1      44.359   5.824  11.925  0.00  0.00    +0.000 A 
ATOM     16  C   UNL     1      44.937   7.092  12.020  0.00  0.00    +0.000 A 
ATOM     17  C   UNL     1      46.156   7.255  12.675  0.00  0.00    +0.000 A 
ATOM     18  C   UNL     1      46.800   6.152  13.244  0.00  0.00    +0.000 A 
ATOM     19  C   UNL     1      46.227   4.875  13.130  0.00  0.00    +0.000 A 
BRANCH  18  20
ATOM     20  C   UNL     1      48.094   6.384  13.942  0.00  0.00    +0.000 C 
ATOM     21  N   UNL     1      48.067   6.466  15.306  0.00  0.00    +0.000 N 
ATOM     22  O   UNL     1      49.138   6.544  13.324  0.00  0.00    +0.000 OA
ATOM     23  H   UNL     1      47.209   6.601  15.822  0.00  0.00    +0.000 HD
ATOM     24  H   UNL     1      48.927   6.769  15.745  0.00  0.00    +0.000 HD
ENDBRANCH  18  20
ENDBRANCH  13  14
ENDBRANCH   1  13
TORSDOF 7
ENDMDL
MODEL 4
REMARK VINA RESULT:    -7.041      1.639      6.648
REMARK INTER + INTRA:         -10.629
REMARK INTER:                  -9.780
REMARK INTRA:                  -0.849
REMARK UNBOUND:                -0.913
REMARK  Name = 
REMARK  7 active torsions:
REMARK  status: ('A' for Active; 'I' for Inactive)
REMARK    1  A    between atoms: N_1  and  C_2
REMARK    2  A    between atoms: C_2  and  C_3
REMARK    3  A    between atoms: C_7  and  O_8
REMARK    4  A    between atoms: O_8  and  C_9
REMARK    5  A    between atoms: C_9  and  C_10
REMARK    6  A    between atoms: C_10  and  C_11
REMARK    7  A    between atoms: C_15  and  C_16
REMARK                            x       y       z     vdW  Elec       q    Type
REMARK                         _______ _______ _______ _____ _____    ______ ____
ROOT
ATOM      1  C   UNL     1      43.620   3.442  11.145  0.00  0.00    +0.000 C 
ENDROOT
BRANCH   1   2
ATOM      2  O   UNL     1      43.937   2.476  10.134  0.00  0.00    +0.000 OA
BRANCH   2   7
ATOM      3  C   UNL     1      46.618   2.184   7.652  0.00  0.00    +0.000 A 
ATOM      4  C   UNL     1      46.807   3.522   7.283  0.00  0.00    +0.000 A 
ATOM      5  C   UNL     1      46.057   4.532   7.875  0.00  0.00    +0.000 A 
ATOM      6  C   UNL     1      45.095   4.214   8.834  0.00  0.00    +0.000 A 
ATOM      7  C   UNL     1      44.872   2.886   9.208  0.00  0.00    +0.000 A 
ATOM      8  C   UNL     1      45.641   1.876   8.616  0.00  0.00    +0.000 A 
BRANCH   3   9
ATOM      9  C   UNL     1      47.445   1.107   6.991  0.00  0.00    +0.000 C 
BRANCH   9  10
ATOM     10  N   UNL     1      48.352   1.666   5.994  0.00  0.00    +0.000 NA
ATOM     11  H   UNL     1      47.815   1.986   5.191  0.00  0.00    +0.000 HD
ATOM     12  H   UNL     1      48.965   0.925   5.658  0.00  0.00    +0.000 HD
ENDBRANCH   9  10
ENDBRANCH   3   9
ENDBRANCH   2   7
ENDBRANCH   1   2
BRANCH   1  13
ATOM     13  C   UNL     1      44.555   3.311  12.348  0.00  0.00    +0.000 C 
BRANCH  13  14
ATOM     14  C   UNL     1      45.332   4.592  12.567  0.00  0.00    +0.000 A 
ATOM     15  C   UNL     1      46.568   4.563  13.229  0.00  0.00    +0.000 A 
ATOM     16  C   UNL     1      47.263   5.745  13.494  0.00  0.00    +0.000 A 
ATOM     17  C   UNL     1      46.733   6.971  13.094  0.00  0.00    +0.000 A 
ATOM     18  C   UNL     1      45.508   7.020  12.422  0.00  0.00    +0.000 A 
ATOM     19  C   UNL     1      44.801   5.831  12.174  0.00  0.00    +0.000 A 
BRANCH  18  20
ATOM     20  C   UNL     1      44.994   8.353  12.008  0.00  0.00    +0.000 C 
ATOM     21  N   UNL     1      44.013   8.382  11.057  0.00  0.00    +0.000 N 
ATOM     22  O   UNL     1      45.457   9.391  12.462  0.00  0.00    +0.000 OA
ATOM     23  H   UNL     1      43.797   7.580  10.480  0.00  0.00    +0.000 HD
ATOM     24  H   UNL     1      43.785   9.296  10.688  0.00  0.00    +0.000 HD
ENDBRANCH  18  20
ENDBRANCH  13  14
ENDBRANCH   1  13
TORSDOF 7
ENDMDL
MODEL 5
REMARK VINA RESULT:    -6.978      2.301      6.287
REMARK INTER + INTRA:         -10.543
REMARK INTER:                  -9.848
REMARK INTRA:                  -0.695
REMARK UNBOUND:                -0.913
REMARK  Name = 
REMARK  7 active torsions:
REMARK  status: ('A' for Active; 'I' for Inactive)
REMARK    1  A    between atoms: N_1  and  C_2
REMARK    2  A    between atoms: C_2  and  C_3
REMARK    3  A    between atoms: C_7  and  O_8
REMARK    4  A    between atoms: O_8  and  C_9
REMARK    5  A    between atoms: C_9  and  C_10
REMARK    6  A    between atoms: C_10  and  C_11
REMARK    7  A    between atoms: C_15  and  C_16
REMARK                            x       y       z     vdW  Elec       q    Type
REMARK                         _______ _______ _______ _____ _____    ______ ____
ROOT
ATOM      1  C   UNL     1      43.386   4.449  10.854  0.00  0.00    +0.000 C 
ENDROOT
BRANCH   1   2
ATOM      2  O   UNL     1      43.964   4.707   9.567  0.00  0.00    +0.000 OA
BRANCH   2   7
ATOM      3  C   UNL     1      46.411   3.022   7.422  0.00  0.00    +0.000 A 
ATOM      4  C   UNL     1      46.299   1.694   7.856  0.00  0.00    +0.000 A 
ATOM      5  C   UNL     1      45.391   1.350   8.851  0.00  0.00    +0.000 A 
ATOM      6  C   UNL     1      44.594   2.333   9.437  0.00  0.00    +0.000 A 
ATOM      7  C   UNL     1      44.698   3.669   9.038  0.00  0.00    +0.000 A 
ATOM      8  C   UNL     1      45.605   4.005   8.025  0.00  0.00    +0.000 A 
BRANCH   3   9
ATOM      9  C   UNL     1      47.406   3.368   6.341  0.00  0.00    +0.000 C 
BRANCH   9  10
ATOM     10  N   UNL     1      48.542   2.452   6.346  0.00  0.00    +0.000 NA
ATOM     11  H   UNL     1      48.722   2.143   7.298  0.00  0.00    +0.000 HD
ATOM     12  H   UNL     1      49.372   2.958   6.042  0.00  0.00    +0.000 HD
ENDBRANCH   9  10
ENDBRANCH   3   9
ENDBRANCH   2   7
ENDBRANCH   1   2
BRANCH   1  13
ATOM     13  C   UNL     1      43.531   5.657  11.778  0.00  0.00    +0.000 C 
BRANCH  13  14
ATOM     14  C   UNL     1      44.935   5.743  12.337  0.00  0.00    +0.000 A 
ATOM     15  C   UNL     1      45.868   6.626  11.775  0.00  0.00    +0.000 A 
ATOM     16  C   UNL     1      47.184   6.667  12.240  0.00  0.00    +0.000 A 
ATOM     17  C   UNL     1      47.582   5.829  13.280  0.00  0.00    +0.000 A 
ATOM     18  C   UNL     1      46.664   4.950  13.864  0.00  0.00    +0.000 A 
ATOM     19  C   UNL     1      45.346   4.896  13.380  0.00  0.00    +0.000 A 
BRANCH  18  20
ATOM     20  C   UNL     1      47.140   4.086  14.978  0.00  0.00    +0.000 C 
ATOM     21  N   UNL     1      47.018   4.574  16.249  0.00  0.00    +0.000 N 
ATOM     22  O   UNL     1      47.663   3.000  14.771  0.00  0.00    +0.000 OA
ATOM     23  H   UNL     1      46.840   5.551  16.437  0.00  0.00    +0.000 HD
ATOM     24  H   UNL     1      47.479   4.037  16.972  0.00  0.00    +0.000 HD
ENDBRANCH  18  20
ENDBRANCH  13  14
ENDBRANCH   1  13
TORSDOF 7
ENDMDL
MODEL 6
REMARK VINA RESULT:    -6.456      2.458      3.171
REMARK INTER + INTRA:          -9.821
REMARK INTER:                  -9.243
REMARK INTRA:                  -0.578
REMARK UNBOUND:                -0.913
REMARK  Name = 
REMARK  7 active torsions:
REMARK  status: ('A' for Active; 'I' for Inactive)
REMARK    1  A    between atoms: N_1  and  C_2
REMARK    2  A    between atoms: C_2  and  C_3
REMARK    3  A    between atoms: C_7  and  O_8
REMARK    4  A    between atoms: O_8  and  C_9
REMARK    5  A    between atoms: C_9  and  C_10
REMARK    6  A    between atoms: C_10  and  C_11
REMARK    7  A    between atoms: C_15  and  C_16
REMARK                            x       y       z     vdW  Elec       q    Type
REMARK                         _______ _______ _______ _____ _____    ______ ____
ROOT
ATOM      1  C   UNL     1      44.640   5.058  10.700  0.00  0.00    +0.000 C 
ENDROOT
BRANCH   1   2
ATOM      2  O   UNL     1      45.700   6.011  10.541  0.00  0.00    +0.000 OA
BRANCH   2   7
ATOM      3  C   UNL     1      47.089   5.347  13.867  0.00  0.00    +0.000 A 
ATOM      4  C   UNL     1      48.060   6.353  13.972  0.00  0.00    +0.000 A 
ATOM      5  C   UNL     1      48.241   7.272  12.945  0.00  0.00    +0.000 A 
ATOM      6  C   UNL     1      47.464   7.186  11.790  0.00  0.00    +0.000 A 
ATOM      7  C   UNL     1      46.502   6.181  11.648  0.00  0.00    +0.000 A 
ATOM      8  C   UNL     1      46.317   5.268  12.694  0.00  0.00    +0.000 A 
BRANCH   3   9
ATOM      9  C   UNL     1      46.916   4.362  14.997  0.00  0.00    +0.000 C 
BRANCH   9  10
ATOM     10  N   UNL     1      47.627   3.114  14.734  0.00  0.00    +0.000 NA
ATOM     11  H   UNL     1      47.997   2.746  15.608  0.00  0.00    +0.000 HD
ATOM     12  H   UNL     1      48.429   3.315  14.139  0.00  0.00    +0.000 HD
ENDBRANCH   9  10
ENDBRANCH   3   9
ENDBRANCH   2   7
ENDBRANCH   1   2
BRANCH   1  13
ATOM     13  C   UNL     1      44.056   4.650   9.348  0.00  0.00    +0.000 C 
BRANCH  13  14
ATOM     14  C   UNL     1      44.821   3.482   8.761  0.00  0.00    +0.000 A 
ATOM     15  C   UNL     1      44.669   2.196   9.298  0.00  0.00    +0.000 A 
ATOM     16  C   UNL     1      45.417   1.124   8.806  0.00  0.00    +0.000 A 
ATOM     17  C   UNL     1      46.323   1.325   7.767  0.00  0.00    +0.000 A 
ATOM     18  C   UNL     1      46.481   2.597   7.209  0.00  0.00    +0.000 A 
ATOM     19  C   UNL     1      45.742   3.678   7.718  0.00  0.00    +0.000 A 
BRANCH  18  20
ATOM     20  C   UNL     1      47.454   2.753   6.095  0.00  0.00    +0.000 C 
ATOM     21  N   UNL     1      48.784   2.701   6.408  0.00  0.00    +0.000 N 
ATOM     22  O   UNL     1      47.089   2.966   4.946  0.00  0.00    +0.000 OA
ATOM     23  H   UNL     1      49.118   2.790   7.358  0.00  0.00    +0.000 HD
ATOM     24  H   UNL     1      49.421   2.954   5.665  0.00  0.00    +0.000 HD
ENDBRANCH  18  20
ENDBRANCH  13  14
ENDBRANCH   1  13
TORSDOF 7
ENDMDL
MODEL 7
REMARK VINA RESULT:    -6.299      5.720      7.988
REMARK INTER + INTRA:          -9.606
REMARK INTER:                  -9.221
REMARK INTRA:                  -0.384
REMARK UNBOUND:                -0.913
REMARK  Name = 
REMARK  7 active torsions:
REMARK  status: ('A' for Active; 'I' for Inactive)
REMARK    1  A    between atoms: N_1  and  C_2
REMARK    2  A    between atoms: C_2  and  C_3
REMARK    3  A    between atoms: C_7  and  O_8
REMARK    4  A    between atoms: O_8  and  C_9
REMARK    5  A    between atoms: C_9  and  C_10
REMARK    6  A    between atoms: C_10  and  C_11
REMARK    7  A    between atoms: C_15  and  C_16
REMARK                            x       y       z     vdW  Elec       q    Type
REMARK                         _______ _______ _______ _____ _____    ______ ____
ROOT
ATOM      1  C   UNL     1      47.321   4.272  15.614  0.00  0.00    +0.000 C 
ENDROOT
BRANCH   1   2
ATOM      2  O   UNL     1      47.083   3.476  14.445  0.00  0.00    +0.000 OA
BRANCH   2   7
ATOM      3  C   UNL     1      44.891   4.040  11.563  0.00  0.00    +0.000 A 
ATOM      4  C   UNL     1      45.215   5.359  11.217  0.00  0.00    +0.000 A 
ATOM      5  C   UNL     1      46.182   6.060  11.928  0.00  0.00    +0.000 A 
ATOM      6  C   UNL     1      46.827   5.456  13.008  0.00  0.00    +0.000 A 
ATOM      7  C   UNL     1      46.510   4.148  13.388  0.00  0.00    +0.000 A 
ATOM      8  C   UNL     1      45.544   3.445  12.657  0.00  0.00    +0.000 A 
BRANCH   3   9
ATOM      9  C   UNL     1      43.835   3.304  10.774  0.00  0.00    +0.000 C 
BRANCH   9  10
ATOM     10  N   UNL     1      43.168   2.293  11.588  0.00  0.00    +0.000 NA
ATOM     11  H   UNL     1      42.601   2.751  12.298  0.00  0.00    +0.000 HD
ATOM     12  H   UNL     1      43.875   1.753  12.084  0.00  0.00    +0.000 HD
ENDBRANCH   9  10
ENDBRANCH   3   9
ENDBRANCH   2   7
ENDBRANCH   1   2
BRANCH   1  13
ATOM     13  C   UNL     1      47.664   3.397  16.819  0.00  0.00    +0.000 C 
BRANCH  13  14
ATOM     14  C   UNL     1      49.130   3.522  17.177  0.00  0.00    +0.000 A 
ATOM     15  C   UNL     1      49.704   4.786  17.376  0.00  0.00    +0.000 A 
ATOM     16  C   UNL     1      51.068   4.916  17.643  0.00  0.00    +0.000 A 
ATOM     17  C   UNL     1      51.875   3.783  17.720  0.00  0.00    +0.000 A 
ATOM     18  C   UNL     1      51.320   2.512  17.537  0.00  0.00    +0.000 A 
ATOM     19  C   UNL     1      49.951   2.385  17.249  0.00  0.00    +0.000 A 
BRANCH  18  20
ATOM     20  C   UNL     1      52.225   1.336  17.641  0.00  0.00    +0.000 C 
ATOM     21  N   UNL     1      51.697   0.178  18.139  0.00  0.00    +0.000 N 
ATOM     22  O   UNL     1      53.409   1.405  17.339  0.00  0.00    +0.000 OA
ATOM     23  H   UNL     1      50.816   0.155  18.634  0.00  0.00    +0.000 HD
ATOM     24  H   UNL     1      52.361  -0.559  18.337  0.00  0.00    +0.000 HD
ENDBRANCH  18  20
ENDBRANCH  13  14
ENDBRANCH   1  13
TORSDOF 7
ENDMDL
MODEL 8
REMARK VINA RESULT:    -5.872      2.687      6.286
REMARK INTER + INTRA:          -9.016
REMARK INTER:                  -8.016
REMARK INTRA:                  -1.000
REMARK UNBOUND:                -0.913
REMARK  Name = 
REMARK  7 active torsions:
REMARK  status: ('A' for Active; 'I' for Inactive)
REMARK    1  A    between atoms: N_1  and  C_2
REMARK    2  A    between atoms: C_2  and  C_3
REMARK    3  A    between atoms: C_7  and  O_8
REMARK    4  A    between atoms: O_8  and  C_9
REMARK    5  A    between atoms: C_9  and  C_10
REMARK    6  A    between atoms: C_10  and  C_11
REMARK    7  A    between atoms: C_15  and  C_16
REMARK                            x       y       z     vdW  Elec       q    Type
REMARK                         _______ _______ _______ _____ _____    ______ ____
ROOT
ATOM      1  C   UNL     1      46.931   4.228  13.769  0.00  0.00    +0.000 C 
ENDROOT
BRANCH   1   2
ATOM      2  O   UNL     1      45.522   4.177  14.030  0.00  0.00    +0.000 OA
BRANCH   2   7
ATOM      3  C   UNL     1      44.491   4.518  10.530  0.00  0.00    +0.000 A 
ATOM      4  C   UNL     1      43.216   5.085  10.666  0.00  0.00    +0.000 A 
ATOM      5  C   UNL     1      42.703   5.377  11.924  0.00  0.00    +0.000 A 
ATOM      6  C   UNL     1      43.452   5.091  13.066  0.00  0.00    +0.000 A 
ATOM      7  C   UNL     1      44.718   4.508  12.961  0.00  0.00    +0.000 A 
ATOM      8  C   UNL     1      45.233   4.228  11.689  0.00  0.00    +0.000 A 
BRANCH   3   9
ATOM      9  C   UNL     1      45.023   4.209   9.151  0.00  0.00    +0.000 C 
BRANCH   9  10
ATOM     10  N   UNL     1      45.848   5.299   8.640  0.00  0.00    +0.000 NA
ATOM     11  H   UNL     1      45.259   5.965   8.146  0.00  0.00    +0.000 HD
ATOM     12  H   UNL     1      46.499   4.921   7.953  0.00  0.00    +0.000 HD
ENDBRANCH   9  10
ENDBRANCH   3   9
ENDBRANCH   2   7
ENDBRANCH   1   2
BRANCH   1  13
ATOM     13  C   UNL     1      47.572   5.450  14.427  0.00  0.00    +0.000 C 
BRANCH  13  14
ATOM     14  C   UNL     1      47.698   6.590  13.438  0.00  0.00    +0.000 A 
ATOM     15  C   UNL     1      48.915   6.828  12.784  0.00  0.00    +0.000 A 
ATOM     16  C   UNL     1      49.060   7.915  11.919  0.00  0.00    +0.000 A 
ATOM     17  C   UNL     1      47.987   8.775  11.693  0.00  0.00    +0.000 A 
ATOM     18  C   UNL     1      46.760   8.548  12.326  0.00  0.00    +0.000 A 
ATOM     19  C   UNL     1      46.623   7.465  13.211  0.00  0.00    +0.000 A 
BRANCH  18  20
ATOM     20  C   UNL     1      45.645   9.490  12.041  0.00  0.00    +0.000 C 
ATOM     21  N   UNL     1      44.403   8.954  11.847  0.00  0.00    +0.000 N 
ATOM     22  O   UNL     1      45.831  10.695  11.935  0.00  0.00    +0.000 OA
ATOM     23  H   UNL     1      44.261   7.969  11.668  0.00  0.00    +0.000 HD
ATOM     24  H   UNL     1      43.695   9.594  11.512  0.00  0.00    +0.000 HD
ENDBRANCH  18  20
ENDBRANCH  13  14
ENDBRANCH   1  13
TORSDOF 7
ENDMDL
MODEL 9
REMARK VINA RESULT:    -5.732      4.503      6.783
REMARK INTER + INTRA:          -8.823
REMARK INTER:                  -7.653
REMARK INTRA:                  -1.170
REMARK UNBOUND:                -0.913
REMARK  Name = 
REMARK  7 active torsions:
REMARK  status: ('A' for Active; 'I' for Inactive)
REMARK    1  A    between atoms: N_1  and  C_2
REMARK    2  A    between atoms: C_2  and  C_3
REMARK    3  A    between atoms: C_7  and  O_8
REMARK    4  A    between atoms: O_8  and  C_9
REMARK    5  A    between atoms: C_9  and  C_10
REMARK    6  A    between atoms: C_10  and  C_11
REMARK    7  A    between atoms: C_15  and  C_16
REMARK                            x       y       z     vdW  Elec       q    Type
REMARK                         _______ _______ _______ _____ _____    ______ ____
ROOT
ATOM      1  C   UNL     1      49.917   7.410  14.928  0.00  0.00    +0.000 C 
ENDROOT
BRANCH   1   2
ATOM      2  O   UNL     1      50.155   7.631  16.325  0.00  0.00    +0.000 OA
BRANCH   2   7
ATOM      3  C   UNL     1      48.174   4.985  17.909  0.00  0.00    +0.000 A 
ATOM      4  C   UNL     1      47.416   5.717  18.833  0.00  0.00    +0.000 A 
ATOM      5  C   UNL     1      47.545   7.098  18.919  0.00  0.00    +0.000 A 
ATOM      6  C   UNL     1      48.446   7.766  18.090  0.00  0.00    +0.000 A 
ATOM      7  C   UNL     1      49.230   7.060  17.172  0.00  0.00    +0.000 A 
ATOM      8  C   UNL     1      49.085   5.670  17.084  0.00  0.00    +0.000 A 
BRANCH   3   9
ATOM      9  C   UNL     1      48.016   3.486  17.839  0.00  0.00    +0.000 C 
BRANCH   9  10
ATOM     10  N   UNL     1      46.654   3.108  17.473  0.00  0.00    +0.000 NA
ATOM     11  H   UNL     1      46.024   3.881  17.673  0.00  0.00    +0.000 HD
ATOM     12  H   UNL     1      46.360   2.332  18.064  0.00  0.00    +0.000 HD
ENDBRANCH   9  10
ENDBRANCH   3   9
ENDBRANCH   2   7
ENDBRANCH   1   2
BRANCH   1  13
ATOM     13  C   UNL     1      48.680   8.171  14.451  0.00  0.00    +0.000 C 
BRANCH  13  14
ATOM     14  C   UNL     1      47.776   7.271  13.634  0.00  0.00    +0.000 A 
ATOM     15  C   UNL     1      46.998   7.804  12.597  0.00  0.00    +0.000 A 
ATOM     16  C   UNL     1      46.114   6.996  11.879  0.00  0.00    +0.000 A 
ATOM     17  C   UNL     1      46.002   5.641  12.187  0.00  0.00    +0.000 A 
ATOM     18  C   UNL     1      46.778   5.087  13.209  0.00  0.00    +0.000 A 
ATOM     19  C   UNL     1      47.652   5.906  13.943  0.00  0.00    +0.000 A 
BRANCH  18  20
ATOM     20  C   UNL     1      46.626   3.633  13.488  0.00  0.00    +0.000 C 
ATOM     21  N   UNL     1      45.659   2.958  12.798  0.00  0.00    +0.000 N 
ATOM     22  O   UNL     1      47.304   3.066  14.335  0.00  0.00    +0.000 OA
ATOM     23  H   UNL     1      44.921   3.434  12.298  0.00  0.00    +0.000 HD
ATOM     24  H   UNL     1      45.477   2.012  13.108  0.00  0.00    +0.000 HD
ENDBRANCH  18  20
ENDBRANCH  13  14
ENDBRANCH   1  13
TORSDOF 7
ENDMDL
