MODEL 1
REMARK VINA RESULT:    -8.185      0.000      0.000
REMARK INTER + INTRA:         -12.376
REMARK INTER:                 -11.534
REMARK INTRA:                  -0.841
REMARK UNBOUND:                -0.841
REMARK  Name = 
REMARK  8 active torsions:
REMARK  status: ('A' for Active; 'I' for Inactive)
REMARK    1  A    between atoms: C_1  and  N_2
REMARK    2  A    between atoms: N_2  and  C_3
REMARK    3  A    between atoms: N_2  and  C_24
REMARK    4  A    between atoms: C_3  and  C_4
REMARK    5  A    between atoms: C_7  and  C_8
REMARK    6  A    between atoms: C_8  and  N_9
REMARK    7  A    between atoms: C_10  and  C_12
REMARK    8  A    between atoms: C_24  and  C_25
REMARK                            x       y       z     vdW  Elec       q    Type
REMARK                         _______ _______ _______ _____ _____    ______ ____
ROOT
ATOM      1  C   UNL     1      44.579   5.370  10.831  0.00  0.00    +0.000 A 
ATOM      2  C   UNL     1      44.148   5.793  12.099  0.00  0.00    +0.000 A 
ATOM      3  C   UNL     1      44.939   6.633  12.882  0.00  0.00    +0.000 A 
ATOM      4  C   UNL     1      46.193   7.052  12.424  0.00  0.00    +0.000 A 
ATOM      5  C   UNL     1      46.652   6.587  11.184  0.00  0.00    +0.000 A 
ATOM      6  C   UNL     1      45.846   5.770  10.387  0.00  0.00    +0.000 A 
ENDROOT
BRANCH   1   7
ATOM      7  C   UNL     1      43.672   4.526   9.955  0.00  0.00    +0.000 C 
BRANCH   7   9
ATOM      8  C   UNL     1      43.419   2.617  11.451  0.00  0.00    +0.000 C 
ATOM      9  N   UNL     1      43.847   3.066  10.122  0.00  0.00    +0.000 NA
BRANCH   9  10
ATOM     10  C   UNL     1      45.267   2.718   9.879  0.00  0.00    +0.000 C 
BRANCH  10  11
ATOM     11  C   UNL     1      45.617   2.308   8.428  0.00  0.00    +0.000 C 
ATOM     12  C   UNL     1      46.198   3.476   7.627  0.00  0.00    +0.000 C 
ATOM     13  C   UNL     1      46.585   3.020   6.224  0.00  0.00    +0.000 C 
ATOM     14  C   UNL     1      47.469   1.781   6.288  0.00  0.00    +0.000 C 
ATOM     15  C   UNL     1      46.834   0.711   7.166  0.00  0.00    +0.000 C 
ATOM     16  O   UNL     1      46.564   1.227   8.472  0.00  0.00    +0.000 OA
ENDBRANCH  10  11
ENDBRANCH   9  10
ENDBRANCH   7   9
ENDBRANCH   1   7
BRANCH   4  17
ATOM     17  C   UNL     1      47.050   7.956  13.267  0.00  0.00    +0.000 C 
BRANCH  17  18
ATOM     18  N   UNL     1      47.457   7.300  14.482  0.00  0.00    +0.000 N 
ATOM     19  C   UNL     1      48.743   6.856  14.645  0.00  0.00    +0.000 C 
ATOM     20  O   UNL     1      49.607   7.034  13.791  0.00  0.00    +0.000 OA
ATOM     21  H   UNL     1      46.721   6.959  15.093  0.00  0.00    +0.000 HD
BRANCH  19  22
ATOM     22  C   UNL     1      49.052   6.196  15.921  0.00  0.00    +0.000 A 
ATOM     23  C   UNL     1      50.093   6.680  16.702  0.00  0.00    +0.000 A 
ATOM     24  S   UNL     1      50.298   5.835  18.169  0.00  0.00    +0.000 S 
ATOM     25  C   UNL     1      49.032   4.764  17.791  0.00  0.00    +0.000 A 
ATOM     26  N   UNL     1      48.698   3.753  18.636  0.00  0.00    +0.000 NA
ATOM     27  C   UNL     1      47.738   3.001  18.212  0.00  0.00    +0.000 A 
ATOM     28  N   UNL     1      47.078   3.169  17.023  0.00  0.00    +0.000 N 
ATOM     29  C   UNL     1      47.362   4.193  16.152  0.00  0.00    +0.000 A 
ATOM     30  O   UNL     1      46.721   4.345  15.116  0.00  0.00    +0.000 OA
ATOM     31  C   UNL     1      48.447   5.062  16.571  0.00  0.00    +0.000 A 
ATOM     32  H   UNL     1      46.329   2.549  16.755  0.00  0.00    +0.000 HD
ENDBRANCH  19  22
ENDBRANCH  17  18
ENDBRANCH   4  17
TORSDOF 7
ENDMDL
MODEL 2
REMARK VINA RESULT:    -7.765      2.453      3.038
REMARK INTER + INTRA:         -11.784
REMARK INTER:                 -10.871
REMARK INTRA:                  -0.913
REMARK UNBOUND:                -0.841
REMARK  Name = 
REMARK  8 active torsions:
REMARK  status: ('A' for Active; 'I' for Inactive)
REMARK    1  A    between atoms: C_1  and  N_2
REMARK    2  A    between atoms: N_2  and  C_3
REMARK    3  A    between atoms: N_2  and  C_24
REMARK    4  A    between atoms: C_3  and  C_4
REMARK    5  A    between atoms: C_7  and  C_8
REMARK    6  A    between atoms: C_8  and  N_9
REMARK    7  A    between atoms: C_10  and  C_12
REMARK    8  A    between atoms: C_24  and  C_25
REMARK                            x       y       z     vdW  Elec       q    Type
REMARK                         _______ _______ _______ _____ _____    ______ ____
ROOT
ATOM      1  C   UNL     1      46.099   4.871  12.751  0.00  0.00    +0.000 A 
ATOM      2  C   UNL     1      46.501   4.374  14.002  0.00  0.00    +0.000 A 
ATOM      3  C   UNL     1      47.350   5.110  14.827  0.00  0.00    +0.000 A 
ATOM      4  C   UNL     1      47.839   6.353  14.409  0.00  0.00    +0.000 A 
ATOM      5  C   UNL     1      47.485   6.828  13.138  0.00  0.00    +0.000 A 
ATOM      6  C   UNL     1      46.610   6.104  12.325  0.00  0.00    +0.000 A 
ENDROOT
BRANCH   1   7
ATOM      7  C   UNL     1      45.107   4.099  11.902  0.00  0.00    +0.000 C 
BRANCH   7   9
ATOM      8  C   UNL     1      42.962   5.247  11.725  0.00  0.00    +0.000 C 
ATOM      9  N   UNL     1      44.234   4.946  11.059  0.00  0.00    +0.000 NA
BRANCH   9  10
ATOM     10  C   UNL     1      44.002   4.264   9.763  0.00  0.00    +0.000 C 
BRANCH  10  11
ATOM     11  C   UNL     1      45.253   3.634   9.105  0.00  0.00    +0.000 C 
ATOM     12  C   UNL     1      45.048   2.151   8.787  0.00  0.00    +0.000 C 
ATOM     13  C   UNL     1      46.278   1.581   8.086  0.00  0.00    +0.000 C 
ATOM     14  C   UNL     1      46.664   2.448   6.895  0.00  0.00    +0.000 C 
ATOM     15  C   UNL     1      46.771   3.911   7.303  0.00  0.00    +0.000 C 
ATOM     16  O   UNL     1      45.549   4.357   7.897  0.00  0.00    +0.000 OA
ENDBRANCH  10  11
ENDBRANCH   9  10
ENDBRANCH   7   9
ENDBRANCH   1   7
BRANCH   4  17
ATOM     17  C   UNL     1      48.757   7.150  15.295  0.00  0.00    +0.000 C 
BRANCH  17  18
ATOM     18  N   UNL     1      49.827   6.330  15.800  0.00  0.00    +0.000 N 
ATOM     19  C   UNL     1      49.791   5.837  17.078  0.00  0.00    +0.000 C 
ATOM     20  O   UNL     1      48.838   6.033  17.826  0.00  0.00    +0.000 OA
ATOM     21  H   UNL     1      50.701   6.339  15.284  0.00  0.00    +0.000 HD
BRANCH  19  22
ATOM     22  C   UNL     1      50.936   5.015  17.496  0.00  0.00    +0.000 A 
ATOM     23  C   UNL     1      52.076   5.637  17.987  0.00  0.00    +0.000 A 
ATOM     24  S   UNL     1      53.297   4.548  18.468  0.00  0.00    +0.000 S 
ATOM     25  C   UNL     1      52.362   3.208  17.995  0.00  0.00    +0.000 A 
ATOM     26  N   UNL     1      52.844   1.943  18.116  0.00  0.00    +0.000 NA
ATOM     27  C   UNL     1      52.040   1.025  17.695  0.00  0.00    +0.000 A 
ATOM     28  N   UNL     1      50.797   1.254  17.167  0.00  0.00    +0.000 N 
ATOM     29  C   UNL     1      50.257   2.513  17.052  0.00  0.00    +0.000 A 
ATOM     30  O   UNL     1      49.120   2.681  16.619  0.00  0.00    +0.000 OA
ATOM     31  C   UNL     1      51.126   3.587  17.497  0.00  0.00    +0.000 A 
ATOM     32  H   UNL     1      50.215   0.488  16.863  0.00  0.00    +0.000 HD
ENDBRANCH  19  22
ENDBRANCH  17  18
ENDBRANCH   4  17
TORSDOF 7
ENDMDL
MODEL 3
REMARK VINA RESULT:    -7.596      1.889      2.363
REMARK INTER + INTRA:         -11.546
REMARK INTER:                 -10.794
REMARK INTRA:                  -0.752
REMARK UNBOUND:                -0.841
REMARK  Name = 
REMARK  8 active torsions:
REMARK  status: ('A' for Active; 'I' for Inactive)
REMARK    1  A    between atoms: C_1  and  N_2
REMARK    2  A    between atoms: N_2  and  C_3
REMARK    3  A    between atoms: N_2  and  C_24
REMARK    4  A    between atoms: C_3  and  C_4
REMARK    5  A    between atoms: C_7  and  C_8
REMARK    6  A    between atoms: C_8  and  N_9
REMARK    7  A    between atoms: C_10  and  C_12
REMARK    8  A    between atoms: C_24  and  C_25
REMARK                            x       y       z     vdW  Elec       q    Type
REMARK                         _______ _______ _______ _____ _____    ______ ____
ROOT
ATOM      1  C   UNL     1      45.928   4.483  12.503  0.00  0.00    +0.000 A 
ATOM      2  C   UNL     1      46.215   5.667  11.805  0.00  0.00    +0.000 A 
ATOM      3  C   UNL     1      47.075   6.624  12.341  0.00  0.00    +0.000 A 
ATOM      4  C   UNL     1      47.651   6.430  13.602  0.00  0.00    +0.000 A 
ATOM      5  C   UNL     1      47.323   5.275  14.326  0.00  0.00    +0.000 A 
ATOM      6  C   UNL     1      46.485   4.302  13.775  0.00  0.00    +0.000 A 
ENDROOT
BRANCH   1   7
ATOM      7  C   UNL     1      45.059   3.412  11.870  0.00  0.00    +0.000 C 
BRANCH   7   9
ATOM      8  C   UNL     1      43.280   4.549  10.648  0.00  0.00    +0.000 C 
ATOM      9  N   UNL     1      44.518   3.771  10.539  0.00  0.00    +0.000 NA
BRANCH   9  10
ATOM     10  C   UNL     1      44.295   2.532   9.757  0.00  0.00    +0.000 C 
BRANCH  10  11
ATOM     11  C   UNL     1      45.124   2.403   8.456  0.00  0.00    +0.000 C 
ATOM     12  C   UNL     1      45.789   3.727   8.067  0.00  0.00    +0.000 C 
ATOM     13  C   UNL     1      46.644   3.546   6.817  0.00  0.00    +0.000 C 
ATOM     14  C   UNL     1      47.598   2.371   6.985  0.00  0.00    +0.000 C 
ATOM     15  C   UNL     1      46.847   1.127   7.442  0.00  0.00    +0.000 C 
ATOM     16  O   UNL     1      46.127   1.390   8.648  0.00  0.00    +0.000 OA
ENDBRANCH  10  11
ENDBRANCH   9  10
ENDBRANCH   7   9
ENDBRANCH   1   7
BRANCH   4  17
ATOM     17  C   UNL     1      48.578   7.461  14.185  0.00  0.00    +0.000 C 
BRANCH  17  18
ATOM     18  N   UNL     1      48.469   7.502  15.620  0.00  0.00    +0.000 N 
ATOM     19  C   UNL     1      49.409   6.899  16.413  0.00  0.00    +0.000 C 
ATOM     20  O   UNL     1      50.396   6.340  15.945  0.00  0.00    +0.000 OA
ATOM     21  H   UNL     1      47.569   7.765  16.009  0.00  0.00    +0.000 HD
BRANCH  19  22
ATOM     22  C   UNL     1      49.202   6.996  17.865  0.00  0.00    +0.000 A 
ATOM     23  C   UNL     1      49.234   8.244  18.474  0.00  0.00    +0.000 A 
ATOM     24  S   UNL     1      48.935   8.194  20.152  0.00  0.00    +0.000 S 
ATOM     25  C   UNL     1      48.798   6.499  20.132  0.00  0.00    +0.000 A 
ATOM     26  N   UNL     1      48.565   5.804  21.276  0.00  0.00    +0.000 NA
ATOM     27  C   UNL     1      48.511   4.524  21.119  0.00  0.00    +0.000 A 
ATOM     28  N   UNL     1      48.663   3.874  19.922  0.00  0.00    +0.000 N 
ATOM     29  C   UNL     1      48.870   4.537  18.736  0.00  0.00    +0.000 A 
ATOM     30  O   UNL     1      48.954   3.928  17.673  0.00  0.00    +0.000 OA
ATOM     31  C   UNL     1      48.956   5.981  18.856  0.00  0.00    +0.000 A 
ATOM     32  H   UNL     1      48.600   2.869  19.868  0.00  0.00    +0.000 HD
ENDBRANCH  19  22
ENDBRANCH  17  18
ENDBRANCH   4  17
TORSDOF 7
ENDMDL
MODEL 4
REMARK VINA RESULT:    -7.295      2.936      8.327
REMARK INTER + INTRA:         -11.122
REMARK INTER:                  -9.512
REMARK INTRA:                  -1.610
REMARK UNBOUND:                -0.841
REMARK  Name = 
REMARK  8 active torsions:
REMARK  status: ('A' for Active; 'I' for Inactive)
REMARK    1  A    between atoms: C_1  and  N_2
REMARK    2  A    between atoms: N_2  and  C_3
REMARK    3  A    between atoms: N_2  and  C_24
REMARK    4  A    between atoms: C_3  and  C_4
REMARK    5  A    between atoms: C_7  and  C_8
REMARK    6  A    between atoms: C_8  and  N_9
REMARK    7  A    between atoms: C_10  and  C_12
REMARK    8  A    between atoms: C_24  and  C_25
REMARK                            x       y       z     vdW  Elec       q    Type
REMARK                         _______ _______ _______ _____ _____    ______ ____
ROOT
ATOM      1  C   UNL     1      48.877   7.784  16.220  0.00  0.00    +0.000 A 
ATOM      2  C   UNL     1      48.794   6.579  15.504  0.00  0.00    +0.000 A 
ATOM      3  C   UNL     1      48.365   6.561  14.177  0.00  0.00    +0.000 A 
ATOM      4  C   UNL     1      47.986   7.749  13.542  0.00  0.00    +0.000 A 
ATOM      5  C   UNL     1      48.014   8.947  14.270  0.00  0.00    +0.000 A 
ATOM      6  C   UNL     1      48.473   8.967  15.589  0.00  0.00    +0.000 A 
ENDROOT
BRANCH   1   7
ATOM      7  C   UNL     1      49.427   7.799  17.634  0.00  0.00    +0.000 C 
BRANCH   7   9
ATOM      8  C   UNL     1      48.075   8.188  19.627  0.00  0.00    +0.000 C 
ATOM      9  N   UNL     1      48.529   7.197  18.645  0.00  0.00    +0.000 NA
BRANCH   9  10
ATOM     10  C   UNL     1      49.234   6.077  19.313  0.00  0.00    +0.000 C 
BRANCH  10  11
ATOM     11  C   UNL     1      48.902   4.664  18.777  0.00  0.00    +0.000 C 
ATOM     12  C   UNL     1      47.555   4.627  18.052  0.00  0.00    +0.000 C 
ATOM     13  C   UNL     1      47.291   3.235  17.487  0.00  0.00    +0.000 C 
ATOM     14  C   UNL     1      48.480   2.757  16.662  0.00  0.00    +0.000 C 
ATOM     15  C   UNL     1      49.775   2.903  17.449  0.00  0.00    +0.000 C 
ATOM     16  O   UNL     1      49.951   4.255  17.882  0.00  0.00    +0.000 OA
ENDBRANCH  10  11
ENDBRANCH   9  10
ENDBRANCH   7   9
ENDBRANCH   1   7
BRANCH   4  17
ATOM     17  C   UNL     1      47.520   7.734  12.111  0.00  0.00    +0.000 C 
BRANCH  17  18
ATOM     18  N   UNL     1      46.845   6.501  11.800  0.00  0.00    +0.000 N 
ATOM     19  C   UNL     1      45.483   6.397  11.915  0.00  0.00    +0.000 C 
ATOM     20  O   UNL     1      44.782   7.349  12.243  0.00  0.00    +0.000 OA
ATOM     21  H   UNL     1      47.415   5.663  11.739  0.00  0.00    +0.000 HD
BRANCH  19  22
ATOM     22  C   UNL     1      44.895   5.093  11.576  0.00  0.00    +0.000 A 
ATOM     23  C   UNL     1      44.163   4.408  12.537  0.00  0.00    +0.000 A 
ATOM     24  S   UNL     1      43.512   2.934  11.978  0.00  0.00    +0.000 S 
ATOM     25  C   UNL     1      44.223   3.139  10.446  0.00  0.00    +0.000 A 
ATOM     26  N   UNL     1      44.075   2.197   9.477  0.00  0.00    +0.000 NA
ATOM     27  C   UNL     1      44.689   2.469   8.374  0.00  0.00    +0.000 A 
ATOM     28  N   UNL     1      45.434   3.596   8.150  0.00  0.00    +0.000 N 
ATOM     29  C   UNL     1      45.587   4.587   9.089  0.00  0.00    +0.000 A 
ATOM     30  O   UNL     1      46.222   5.609   8.840  0.00  0.00    +0.000 OA
ATOM     31  C   UNL     1      44.930   4.327  10.357  0.00  0.00    +0.000 A 
ATOM     32  H   UNL     1      45.882   3.751   7.259  0.00  0.00    +0.000 HD
ENDBRANCH  19  22
ENDBRANCH  17  18
ENDBRANCH   4  17
TORSDOF 7
ENDMDL
MODEL 5
REMARK VINA RESULT:    -7.295      2.788      4.805
REMARK INTER + INTRA:         -11.122
REMARK INTER:                 -10.275
REMARK INTRA:                  -0.847
REMARK UNBOUND:                -0.841
REMARK  Name = 
REMARK  8 active torsions:
REMARK  status: ('A' for Active; 'I' for Inactive)
REMARK    1  A    between atoms: C_1  and  N_2
REMARK    2  A    between atoms: N_2  and  C_3
REMARK    3  A    between atoms: N_2  and  C_24
REMARK    4  A    between atoms: C_3  and  C_4
REMARK    5  A    between atoms: C_7  and  C_8
REMARK    6  A    between atoms: C_8  and  N_9
REMARK    7  A    between atoms: C_10  and  C_12
REMARK    8  A    between atoms: C_24  and  C_25
REMARK                            x       y       z     vdW  Elec       q    Type
REMARK                         _______ _______ _______ _____ _____    ______ ____
ROOT
ATOM      1  C   UNL     1      45.628   3.322   7.842  0.00  0.00    +0.000 A 
ATOM      2  C   UNL     1      45.134   2.233   8.578  0.00  0.00    +0.000 A 
ATOM      3  C   UNL     1      44.691   2.397   9.890  0.00  0.00    +0.000 A 
ATOM      4  C   UNL     1      44.755   3.651  10.506  0.00  0.00    +0.000 A 
ATOM      5  C   UNL     1      45.299   4.729   9.794  0.00  0.00    +0.000 A 
ATOM      6  C   UNL     1      45.715   4.571   8.469  0.00  0.00    +0.000 A 
ENDROOT
BRANCH   1   7
ATOM      7  C   UNL     1      46.026   3.147   6.388  0.00  0.00    +0.000 C 
BRANCH   7   9
ATOM      8  C   UNL     1      48.255   2.251   6.813  0.00  0.00    +0.000 C 
ATOM      9  N   UNL     1      46.969   2.032   6.143  0.00  0.00    +0.000 NA
BRANCH   9  10
ATOM     10  C   UNL     1      47.157   1.870   4.681  0.00  0.00    +0.000 C 
BRANCH  10  11
ATOM     11  C   UNL     1      46.457   0.643   4.049  0.00  0.00    +0.000 C 
ATOM     12  C   UNL     1      45.797   0.987   2.711  0.00  0.00    +0.000 C 
ATOM     13  C   UNL     1      45.170  -0.258   2.090  0.00  0.00    +0.000 C 
ATOM     14  C   UNL     1      46.182  -1.395   2.035  0.00  0.00    +0.000 C 
ATOM     15  C   UNL     1      46.832  -1.606   3.396  0.00  0.00    +0.000 C 
ATOM     16  O   UNL     1      47.434  -0.395   3.858  0.00  0.00    +0.000 OA
ENDBRANCH  10  11
ENDBRANCH   9  10
ENDBRANCH   7   9
ENDBRANCH   1   7
BRANCH   4  17
ATOM     17  C   UNL     1      44.280   3.831  11.922  0.00  0.00    +0.000 C 
BRANCH  17  18
ATOM     18  N   UNL     1      45.193   4.652  12.674  0.00  0.00    +0.000 N 
ATOM     19  C   UNL     1      46.252   4.094  13.342  0.00  0.00    +0.000 C 
ATOM     20  O   UNL     1      46.491   2.891  13.296  0.00  0.00    +0.000 OA
ATOM     21  H   UNL     1      44.893   5.596  12.896  0.00  0.00    +0.000 HD
BRANCH  19  22
ATOM     22  C   UNL     1      47.121   5.020  14.082  0.00  0.00    +0.000 A 
ATOM     23  C   UNL     1      47.432   4.747  15.407  0.00  0.00    +0.000 A 
ATOM     24  S   UNL     1      48.482   5.891  16.113  0.00  0.00    +0.000 S 
ATOM     25  C   UNL     1      48.521   6.815  14.686  0.00  0.00    +0.000 A 
ATOM     26  N   UNL     1      49.234   7.970  14.622  0.00  0.00    +0.000 NA
ATOM     27  C   UNL     1      49.154   8.583  13.489  0.00  0.00    +0.000 A 
ATOM     28  N   UNL     1      48.430   8.145  12.411  0.00  0.00    +0.000 N 
ATOM     29  C   UNL     1      47.718   6.970  12.420  0.00  0.00    +0.000 A 
ATOM     30  O   UNL     1      47.118   6.581  11.422  0.00  0.00    +0.000 OA
ATOM     31  C   UNL     1      47.760   6.246  13.678  0.00  0.00    +0.000 A 
ATOM     32  H   UNL     1      48.416   8.670  11.550  0.00  0.00    +0.000 HD
ENDBRANCH  19  22
ENDBRANCH  17  18
ENDBRANCH   4  17
TORSDOF 7
ENDMDL
MODEL 6
REMARK VINA RESULT:    -7.017      2.258      2.733
REMARK INTER + INTRA:         -10.730
REMARK INTER:                 -10.530
REMARK INTRA:                  -0.200
REMARK UNBOUND:                -0.841
REMARK  Name = 
REMARK  8 active torsions:
REMARK  status: ('A' for Active; 'I' for Inactive)
REMARK    1  A    between atoms: C_1  and  N_2
REMARK    2  A    between atoms: N_2  and  C_3
REMARK    3  A    between atoms: N_2  and  C_24
REMARK    4  A    between atoms: C_3  and  C_4
REMARK    5  A    between atoms: C_7  and  C_8
REMARK    6  A    between atoms: C_8  and  N_9
REMARK    7  A    between atoms: C_10  and  C_12
REMARK    8  A    between atoms: C_24  and  C_25
REMARK                            x       y       z     vdW  Elec       q    Type
REMARK                         _______ _______ _______ _____ _____    ______ ____
ROOT
ATOM      1  C   UNL     1      44.687   5.684  11.811  0.00  0.00    +0.000 A 
ATOM      2  C   UNL     1      45.409   6.826  11.427  0.00  0.00    +0.000 A 
ATOM      3  C   UNL     1      46.554   7.217  12.121  0.00  0.00    +0.000 A 
ATOM      4  C   UNL     1      46.991   6.487  13.231  0.00  0.00    +0.000 A 
ATOM      5  C   UNL     1      46.242   5.379  13.652  0.00  0.00    +0.000 A 
ATOM      6  C   UNL     1      45.112   4.970  12.938  0.00  0.00    +0.000 A 
ENDROOT
BRANCH   1   7
ATOM      7  C   UNL     1      43.494   5.222  10.996  0.00  0.00    +0.000 C 
BRANCH   7   9
ATOM      8  C   UNL     1      43.816   2.812  10.798  0.00  0.00    +0.000 C 
ATOM      9  N   UNL     1      43.778   4.092  10.083  0.00  0.00    +0.000 NA
BRANCH   9  10
ATOM     10  C   UNL     1      45.061   4.344   9.385  0.00  0.00    +0.000 C 
BRANCH  10  11
ATOM     11  C   UNL     1      45.438   3.322   8.286  0.00  0.00    +0.000 C 
ATOM     12  C   UNL     1      46.422   3.909   7.271  0.00  0.00    +0.000 C 
ATOM     13  C   UNL     1      46.815   2.855   6.239  0.00  0.00    +0.000 C 
ATOM     14  C   UNL     1      47.285   1.580   6.929  0.00  0.00    +0.000 C 
ATOM     15  C   UNL     1      46.269   1.124   7.968  0.00  0.00    +0.000 C 
ATOM     16  O   UNL     1      46.016   2.164   8.914  0.00  0.00    +0.000 OA
ENDBRANCH  10  11
ENDBRANCH   9  10
ENDBRANCH   7   9
ENDBRANCH   1   7
BRANCH   4  17
ATOM     17  C   UNL     1      48.224   6.907  13.983  0.00  0.00    +0.000 C 
BRANCH  17  18
ATOM     18  N   UNL     1      48.073   6.675  15.396  0.00  0.00    +0.000 N 
ATOM     19  C   UNL     1      49.163   6.424  16.187  0.00  0.00    +0.000 C 
ATOM     20  O   UNL     1      50.307   6.429  15.742  0.00  0.00    +0.000 OA
ATOM     21  H   UNL     1      47.140   6.456  15.732  0.00  0.00    +0.000 HD
BRANCH  19  22
ATOM     22  C   UNL     1      48.899   6.196  17.615  0.00  0.00    +0.000 A 
ATOM     23  C   UNL     1      49.191   4.958  18.171  0.00  0.00    +0.000 A 
ATOM     24  S   UNL     1      48.867   4.866  19.843  0.00  0.00    +0.000 S 
ATOM     25  C   UNL     1      48.282   6.462  19.873  0.00  0.00    +0.000 A 
ATOM     26  N   UNL     1      47.809   7.010  21.023  0.00  0.00    +0.000 NA
ATOM     27  C   UNL     1      47.372   8.218  20.896  0.00  0.00    +0.000 A 
ATOM     28  N   UNL     1      47.368   8.931  19.725  0.00  0.00    +0.000 N 
ATOM     29  C   UNL     1      47.863   8.428  18.546  0.00  0.00    +0.000 A 
ATOM     30  O   UNL     1      47.889   9.109  17.524  0.00  0.00    +0.000 OA
ATOM     31  C   UNL     1      48.354   7.064  18.627  0.00  0.00    +0.000 A 
ATOM     32  H   UNL     1      47.019   9.877  19.697  0.00  0.00    +0.000 HD
ENDBRANCH  19  22
ENDBRANCH  17  18
ENDBRANCH   4  17
TORSDOF 7
ENDMDL
MODEL 7
REMARK VINA RESULT:    -6.876      3.730      9.108
REMARK INTER + INTRA:         -10.531
REMARK INTER:                  -8.983
REMARK INTRA:                  -1.548
REMARK UNBOUND:                -0.841
REMARK  Name = 
REMARK  8 active torsions:
REMARK  status: ('A' for Active; 'I' for Inactive)
REMARK    1  A    between atoms: C_1  and  N_2
REMARK    2  A    between atoms: N_2  and  C_3
REMARK    3  A    between atoms: N_2  and  C_24
REMARK    4  A    between atoms: C_3  and  C_4
REMARK    5  A    between atoms: C_7  and  C_8
REMARK    6  A    between atoms: C_8  and  N_9
REMARK    7  A    between atoms: C_10  and  C_12
REMARK    8  A    between atoms: C_24  and  C_25
REMARK                            x       y       z     vdW  Elec       q    Type
REMARK                         _______ _______ _______ _____ _____    ______ ____
ROOT
ATOM      1  C   UNL     1      51.315   3.605  18.149  0.00  0.00    +0.000 A 
ATOM      2  C   UNL     1      50.397   4.624  18.452  0.00  0.00    +0.000 A 
ATOM      3  C   UNL     1      49.058   4.516  18.077  0.00  0.00    +0.000 A 
ATOM      4  C   UNL     1      48.610   3.395  17.369  0.00  0.00    +0.000 A 
ATOM      5  C   UNL     1      49.535   2.402  17.016  0.00  0.00    +0.000 A 
ATOM      6  C   UNL     1      50.870   2.497  17.418  0.00  0.00    +0.000 A 
ENDROOT
BRANCH   1   7
ATOM      7  C   UNL     1      52.749   3.696  18.637  0.00  0.00    +0.000 C 
BRANCH   7   9
ATOM      8  C   UNL     1      54.856   3.496  17.424  0.00  0.00    +0.000 C 
ATOM      9  N   UNL     1      53.681   4.335  17.680  0.00  0.00    +0.000 NA
BRANCH   9  10
ATOM     10  C   UNL     1      54.083   5.660  18.208  0.00  0.00    +0.000 C 
BRANCH  10  11
ATOM     11  C   UNL     1      53.349   6.876  17.594  0.00  0.00    +0.000 C 
ATOM     12  C   UNL     1      52.668   6.525  16.268  0.00  0.00    +0.000 C 
ATOM     13  C   UNL     1      51.906   7.730  15.724  0.00  0.00    +0.000 C 
ATOM     14  C   UNL     1      50.982   8.304  16.790  0.00  0.00    +0.000 C 
ATOM     15  C   UNL     1      51.741   8.548  18.088  0.00  0.00    +0.000 C 
ATOM     16  O   UNL     1      52.369   7.345  18.537  0.00  0.00    +0.000 OA
ENDBRANCH  10  11
ENDBRANCH   9  10
ENDBRANCH   7   9
ENDBRANCH   1   7
BRANCH   4  17
ATOM     17  C   UNL     1      47.167   3.276  16.961  0.00  0.00    +0.000 C 
BRANCH  17  18
ATOM     18  N   UNL     1      46.810   4.301  16.015  0.00  0.00    +0.000 N 
ATOM     19  C   UNL     1      46.943   4.090  14.668  0.00  0.00    +0.000 C 
ATOM     20  O   UNL     1      47.326   3.018  14.210  0.00  0.00    +0.000 OA
ATOM     21  H   UNL     1      46.702   5.244  16.374  0.00  0.00    +0.000 HD
BRANCH  19  22
ATOM     22  C   UNL     1      46.554   5.202  13.789  0.00  0.00    +0.000 A 
ATOM     23  C   UNL     1      47.405   6.291  13.654  0.00  0.00    +0.000 A 
ATOM     24  S   UNL     1      46.833   7.476  12.570  0.00  0.00    +0.000 S 
ATOM     25  C   UNL     1      45.407   6.597  12.277  0.00  0.00    +0.000 A 
ATOM     26  N   UNL     1      44.450   7.079  11.441  0.00  0.00    +0.000 NA
ATOM     27  C   UNL     1      43.410   6.322  11.332  0.00  0.00    +0.000 A 
ATOM     28  N   UNL     1      43.240   5.126  11.978  0.00  0.00    +0.000 N 
ATOM     29  C   UNL     1      44.192   4.587  12.809  0.00  0.00    +0.000 A 
ATOM     30  O   UNL     1      44.030   3.489  13.336  0.00  0.00    +0.000 OA
ATOM     31  C   UNL     1      45.379   5.405  12.982  0.00  0.00    +0.000 A 
ATOM     32  H   UNL     1      42.403   4.579  11.841  0.00  0.00    +0.000 HD
ENDBRANCH  19  22
ENDBRANCH  17  18
ENDBRANCH   4  17
TORSDOF 7
ENDMDL
MODEL 8
REMARK VINA RESULT:    -6.752      3.833      9.607
REMARK INTER + INTRA:         -10.356
REMARK INTER:                  -8.825
REMARK INTRA:                  -1.531
REMARK UNBOUND:                -0.841
REMARK  Name = 
REMARK  8 active torsions:
REMARK  status: ('A' for Active; 'I' for Inactive)
REMARK    1  A    between atoms: C_1  and  N_2
REMARK    2  A    between atoms: N_2  and  C_3
REMARK    3  A    between atoms: N_2  and  C_24
REMARK    4  A    between atoms: C_3  and  C_4
REMARK    5  A    between atoms: C_7  and  C_8
REMARK    6  A    between atoms: C_8  and  N_9
REMARK    7  A    between atoms: C_10  and  C_12
REMARK    8  A    between atoms: C_24  and  C_25
REMARK                            x       y       z     vdW  Elec       q    Type
REMARK                         _______ _______ _______ _____ _____    ______ ____
ROOT
ATOM      1  C   UNL     1      48.647   5.778  20.311  0.00  0.00    +0.000 A 
ATOM      2  C   UNL     1      49.425   4.736  19.781  0.00  0.00    +0.000 A 
ATOM      3  C   UNL     1      49.034   4.070  18.620  0.00  0.00    +0.000 A 
ATOM      4  C   UNL     1      47.841   4.414  17.975  0.00  0.00    +0.000 A 
ATOM      5  C   UNL     1      47.034   5.416  18.532  0.00  0.00    +0.000 A 
ATOM      6  C   UNL     1      47.441   6.104  19.678  0.00  0.00    +0.000 A 
ENDROOT
BRANCH   1   7
ATOM      7  C   UNL     1      49.127   6.551  21.526  0.00  0.00    +0.000 C 
BRANCH   7   9
ATOM      8  C   UNL     1      51.314   7.323  22.280  0.00  0.00    +0.000 C 
ATOM      9  N   UNL     1      50.268   7.457  21.262  0.00  0.00    +0.000 NA
BRANCH   9  10
ATOM     10  C   UNL     1      49.772   8.853  21.194  0.00  0.00    +0.000 C 
BRANCH  10  11
ATOM     11  C   UNL     1      49.492   9.395  19.772  0.00  0.00    +0.000 C 
ATOM     12  C   UNL     1      50.145   8.531  18.690  0.00  0.00    +0.000 C 
ATOM     13  C   UNL     1      49.797   9.062  17.302  0.00  0.00    +0.000 C 
ATOM     14  C   UNL     1      48.291   9.243  17.160  0.00  0.00    +0.000 C 
ATOM     15  C   UNL     1      47.733  10.052  18.323  0.00  0.00    +0.000 C 
ATOM     16  O   UNL     1      48.068   9.439  19.570  0.00  0.00    +0.000 OA
ENDBRANCH  10  11
ENDBRANCH   9  10
ENDBRANCH   7   9
ENDBRANCH   1   7
BRANCH   4  17
ATOM     17  C   UNL     1      47.415   3.696  16.724  0.00  0.00    +0.000 C 
BRANCH  17  18
ATOM     18  N   UNL     1      46.920   4.622  15.738  0.00  0.00    +0.000 N 
ATOM     19  C   UNL     1      46.872   4.278  14.413  0.00  0.00    +0.000 C 
ATOM     20  O   UNL     1      47.204   3.165  14.015  0.00  0.00    +0.000 OA
ATOM     21  H   UNL     1      46.849   5.596  16.014  0.00  0.00    +0.000 HD
BRANCH  19  22
ATOM     22  C   UNL     1      46.354   5.298  13.490  0.00  0.00    +0.000 A 
ATOM     23  C   UNL     1      47.160   6.374  13.144  0.00  0.00    +0.000 A 
ATOM     24  S   UNL     1      46.432   7.445  12.034  0.00  0.00    +0.000 S 
ATOM     25  C   UNL     1      44.997   6.532  12.012  0.00  0.00    +0.000 A 
ATOM     26  N   UNL     1      43.933   6.925  11.264  0.00  0.00    +0.000 NA
ATOM     27  C   UNL     1      42.901   6.154  11.362  0.00  0.00    +0.000 A 
ATOM     28  N   UNL     1      42.838   5.025  12.135  0.00  0.00    +0.000 N 
ATOM     29  C   UNL     1      43.899   4.575  12.884  0.00  0.00    +0.000 A 
ATOM     30  O   UNL     1      43.826   3.532  13.530  0.00  0.00    +0.000 OA
ATOM     31  C   UNL     1      45.082   5.413  12.825  0.00  0.00    +0.000 A 
ATOM     32  H   UNL     1      42.001   4.461  12.160  0.00  0.00    +0.000 HD
ENDBRANCH  19  22
ENDBRANCH  17  18
ENDBRANCH   4  17
TORSDOF 7
ENDMDL
MODEL 9
REMARK VINA RESULT:    -6.620      4.023      9.161
REMARK INTER + INTRA:         -10.170
REMARK INTER:                  -8.145
REMARK INTRA:                  -2.025
REMARK UNBOUND:                -0.841
REMARK  Name = 
REMARK  8 active torsions:
REMARK  status: ('A' for Active; 'I' for Inactive)
REMARK    1  A    between atoms: C_1  and  N_2
REMARK    2  A    between atoms: N_2  and  C_3
REMARK    3  A    between atoms: N_2  and  C_24
REMARK    4  A    between atoms: C_3  and  C_4
REMARK    5  A    between atoms: C_7  and  C_8
REMARK    6  A    between atoms: C_8  and  N_9
REMARK    7  A    between atoms: C_10  and  C_12
REMARK    8  A    between atoms: C_24  and  C_25
REMARK                            x       y       z     vdW  Elec       q    Type
REMARK                         _______ _______ _______ _____ _____    ______ ____
ROOT
ATOM      1  C   UNL     1      51.547   3.510  18.015  0.00  0.00    +0.000 A 
ATOM      2  C   UNL     1      50.737   4.647  18.171  0.00  0.00    +0.000 A 
ATOM      3  C   UNL     1      49.390   4.623  17.812  0.00  0.00    +0.000 A 
ATOM      4  C   UNL     1      48.826   3.466  17.263  0.00  0.00    +0.000 A 
ATOM      5  C   UNL     1      49.644   2.347  17.053  0.00  0.00    +0.000 A 
ATOM      6  C   UNL     1      50.986   2.362  17.442  0.00  0.00    +0.000 A 
ENDROOT
BRANCH   1   7
ATOM      7  C   UNL     1      52.988   3.524  18.490  0.00  0.00    +0.000 C 
BRANCH   7   9
ATOM      8  C   UNL     1      55.034   3.195  17.203  0.00  0.00    +0.000 C 
ATOM      9  N   UNL     1      53.943   4.119  17.528  0.00  0.00    +0.000 NA
BRANCH   9  10
ATOM     10  C   UNL     1      54.473   5.384  18.091  0.00  0.00    +0.000 C 
BRANCH  10  11
ATOM     11  C   UNL     1      53.861   6.683  17.513  0.00  0.00    +0.000 C 
ATOM     12  C   UNL     1      53.169   6.441  16.169  0.00  0.00    +0.000 C 
ATOM     13  C   UNL     1      52.527   7.729  15.661  0.00  0.00    +0.000 C 
ATOM     14  C   UNL     1      51.645   8.348  16.737  0.00  0.00    +0.000 C 
ATOM     15  C   UNL     1      52.405   8.476  18.050  0.00  0.00    +0.000 C 
ATOM     16  O   UNL     1      52.915   7.206  18.462  0.00  0.00    +0.000 OA
ENDBRANCH  10  11
ENDBRANCH   9  10
ENDBRANCH   7   9
ENDBRANCH   1   7
BRANCH   4  17
ATOM     17  C   UNL     1      47.374   3.437  16.871  0.00  0.00    +0.000 C 
BRANCH  17  18
ATOM     18  N   UNL     1      47.068   4.491  15.940  0.00  0.00    +0.000 N 
ATOM     19  C   UNL     1      47.052   4.255  14.591  0.00  0.00    +0.000 C 
ATOM     20  O   UNL     1      47.255   3.139  14.122  0.00  0.00    +0.000 OA
ATOM     21  H   UNL     1      47.112   5.444  16.289  0.00  0.00    +0.000 HD
BRANCH  19  22
ATOM     22  C   UNL     1      46.732   5.401  13.728  0.00  0.00    +0.000 A 
ATOM     23  C   UNL     1      45.554   5.389  12.993  0.00  0.00    +0.000 A 
ATOM     24  S   UNL     1      45.306   6.806  12.076  0.00  0.00    +0.000 S 
ATOM     25  C   UNL     1      46.786   7.464  12.594  0.00  0.00    +0.000 A 
ATOM     26  N   UNL     1      47.204   8.678  12.147  0.00  0.00    +0.000 NA
ATOM     27  C   UNL     1      48.357   9.043  12.600  0.00  0.00    +0.000 A 
ATOM     28  N   UNL     1      49.128   8.309  13.461  0.00  0.00    +0.000 N 
ATOM     29  C   UNL     1      48.734   7.091  13.961  0.00  0.00    +0.000 A 
ATOM     30  O   UNL     1      49.427   6.479  14.769  0.00  0.00    +0.000 OA
ATOM     31  C   UNL     1      47.450   6.623  13.472  0.00  0.00    +0.000 A 
ATOM     32  H   UNL     1      50.019   8.658  13.784  0.00  0.00    +0.000 HD
ENDBRANCH  19  22
ENDBRANCH  17  18
ENDBRANCH   4  17
TORSDOF 7
ENDMDL
