MODEL 1
REMARK VINA RESULT:    -8.937      0.000      0.000
REMARK INTER + INTRA:         -13.067
REMARK INTER:                 -12.071
REMARK INTRA:                  -0.996
REMARK UNBOUND:                -0.996
REMARK  Name = 
REMARK  6 active torsions:
REMARK  status: ('A' for Active; 'I' for Inactive)
REMARK    1  A    between atoms: C_2  and  C_4
REMARK    2  A    between atoms: C_7  and  C_8
REMARK    3  A    between atoms: C_8  and  C_9
REMARK    4  A    between atoms: C_12  and  C_13
REMARK    5  A    between atoms: C_13  and  N_14
REMARK    6  A    between atoms: C_15  and  C_17
REMARK                            x       y       z     vdW  Elec       q    Type
REMARK                         _______ _______ _______ _____ _____    ______ ____
ROOT
ATOM      1  C   UNL     1      44.742   5.092  10.834  0.00  0.00    +0.000 A 
ATOM      2  C   UNL     1      45.865   5.771  10.341  0.00  0.00    +0.000 A 
ATOM      3  C   UNL     1      46.537   6.710  11.133  0.00  0.00    +0.000 A 
ATOM      4  C   UNL     1      46.097   6.991  12.434  0.00  0.00    +0.000 A 
ATOM      5  C   UNL     1      44.953   6.337  12.910  0.00  0.00    +0.000 A 
ATOM      6  C   UNL     1      44.288   5.390  12.126  0.00  0.00    +0.000 A 
ENDROOT
BRANCH   1   7
ATOM      7  C   UNL     1      44.068   4.020  10.003  0.00  0.00    +0.000 C 
BRANCH   7  11
ATOM      8  C   UNL     1      46.554   2.076   7.022  0.00  0.00    +0.000 A 
ATOM      9  C   UNL     1      46.130   1.353   8.138  0.00  0.00    +0.000 A 
ATOM     10  C   UNL     1      45.319   1.959   9.104  0.00  0.00    +0.000 A 
ATOM     11  C   UNL     1      44.930   3.301   8.978  0.00  0.00    +0.000 A 
ATOM     12  C   UNL     1      45.374   4.021   7.856  0.00  0.00    +0.000 A 
ATOM     13  C   UNL     1      46.184   3.417   6.887  0.00  0.00    +0.000 A 
BRANCH   8  15
ATOM     14  N   UNL     1      48.429   2.231   5.481  0.00  0.00    +0.000 N 
ATOM     15  C   UNL     1      47.414   1.460   5.979  0.00  0.00    +0.000 C 
ATOM     16  O   UNL     1      47.252   0.305   5.606  0.00  0.00    +0.000 OA
ATOM     17  H   UNL     1      49.072   1.776   4.846  0.00  0.00    +0.000 HD
ATOM     18  H   UNL     1      48.740   3.075   5.941  0.00  0.00    +0.000 HD
ENDBRANCH   8  15
ENDBRANCH   7  11
ENDBRANCH   1   7
BRANCH   4  19
ATOM     19  C   UNL     1      46.822   7.981  13.313  0.00  0.00    +0.000 C 
BRANCH  19  20
ATOM     20  N   UNL     1      47.321   7.363  14.516  0.00  0.00    +0.000 N 
ATOM     21  C   UNL     1      48.569   6.796  14.560  0.00  0.00    +0.000 C 
ATOM     22  O   UNL     1      49.329   6.805  13.595  0.00  0.00    +0.000 OA
ATOM     23  H   UNL     1      46.632   7.086  15.208  0.00  0.00    +0.000 HD
BRANCH  21  24
ATOM     24  C   UNL     1      48.979   6.227  15.850  0.00  0.00    +0.000 A 
ATOM     25  C   UNL     1      50.014   6.811  16.570  0.00  0.00    +0.000 A 
ATOM     26  S   UNL     1      50.338   6.036  18.055  0.00  0.00    +0.000 S 
ATOM     27  C   UNL     1      49.138   4.863  17.767  0.00  0.00    +0.000 A 
ATOM     28  N   UNL     1      48.920   3.855  18.655  0.00  0.00    +0.000 NA
ATOM     29  C   UNL     1      47.997   3.022  18.297  0.00  0.00    +0.000 A 
ATOM     30  N   UNL     1      47.266   3.116  17.140  0.00  0.00    +0.000 N 
ATOM     31  C   UNL     1      47.431   4.136  16.234  0.00  0.00    +0.000 A 
ATOM     32  O   UNL     1      46.722   4.221  15.238  0.00  0.00    +0.000 OA
ATOM     33  C   UNL     1      48.477   5.082  16.573  0.00  0.00    +0.000 A 
ATOM     34  H   UNL     1      46.547   2.442  16.928  0.00  0.00    +0.000 HD
ENDBRANCH  21  24
ENDBRANCH  19  20
ENDBRANCH   4  19
TORSDOF 6
ENDMDL
MODEL 2
REMARK VINA RESULT:    -8.245      1.453      1.703
REMARK INTER + INTRA:         -12.133
REMARK INTER:                 -10.867
REMARK INTRA:                  -1.266
REMARK UNBOUND:                -0.996
REMARK  Name = 
REMARK  6 active torsions:
REMARK  status: ('A' for Active; 'I' for Inactive)
REMARK    1  A    between atoms: C_2  and  C_4
REMARK    2  A    between atoms: C_7  and  C_8
REMARK    3  A    between atoms: C_8  and  C_9
REMARK    4  A    between atoms: C_12  and  C_13
REMARK    5  A    between atoms: C_13  and  N_14
REMARK    6  A    between atoms: C_15  and  C_17
REMARK                            x       y       z     vdW  Elec       q    Type
REMARK                         _______ _______ _______ _____ _____    ______ ____
ROOT
ATOM      1  C   UNL     1      44.782   5.480  11.261  0.00  0.00    +0.000 A 
ATOM      2  C   UNL     1      44.457   6.842  11.319  0.00  0.00    +0.000 A 
ATOM      3  C   UNL     1      45.170   7.714  12.150  0.00  0.00    +0.000 A 
ATOM      4  C   UNL     1      46.225   7.239  12.943  0.00  0.00    +0.000 A 
ATOM      5  C   UNL     1      46.523   5.871  12.911  0.00  0.00    +0.000 A 
ATOM      6  C   UNL     1      45.820   5.001  12.072  0.00  0.00    +0.000 A 
ENDROOT
BRANCH   1   7
ATOM      7  C   UNL     1      44.060   4.557  10.301  0.00  0.00    +0.000 C 
BRANCH   7  11
ATOM      8  C   UNL     1      46.574   2.410   7.488  0.00  0.00    +0.000 A 
ATOM      9  C   UNL     1      45.803   1.692   8.405  0.00  0.00    +0.000 A 
ATOM     10  C   UNL     1      44.979   2.367   9.311  0.00  0.00    +0.000 A 
ATOM     11  C   UNL     1      44.920   3.768   9.327  0.00  0.00    +0.000 A 
ATOM     12  C   UNL     1      45.710   4.478   8.407  0.00  0.00    +0.000 A 
ATOM     13  C   UNL     1      46.535   3.807   7.497  0.00  0.00    +0.000 A 
BRANCH   8  15
ATOM     14  N   UNL     1      48.499   2.450   6.002  0.00  0.00    +0.000 N 
ATOM     15  C   UNL     1      47.457   1.722   6.511  0.00  0.00    +0.000 C 
ATOM     16  O   UNL     1      47.290   0.550   6.201  0.00  0.00    +0.000 OA
ATOM     17  H   UNL     1      49.155   1.950   5.417  0.00  0.00    +0.000 HD
ATOM     18  H   UNL     1      48.807   3.315   6.423  0.00  0.00    +0.000 HD
ENDBRANCH   8  15
ENDBRANCH   7  11
ENDBRANCH   1   7
BRANCH   4  19
ATOM     19  C   UNL     1      47.023   8.166  13.827  0.00  0.00    +0.000 C 
BRANCH  19  20
ATOM     20  N   UNL     1      48.169   7.504  14.399  0.00  0.00    +0.000 N 
ATOM     21  C   UNL     1      48.919   8.101  15.381  0.00  0.00    +0.000 C 
ATOM     22  O   UNL     1      48.644   9.208  15.835  0.00  0.00    +0.000 OA
ATOM     23  H   UNL     1      48.580   6.751  13.858  0.00  0.00    +0.000 HD
BRANCH  21  24
ATOM     24  C   UNL     1      50.042   7.315  15.909  0.00  0.00    +0.000 A 
ATOM     25  C   UNL     1      51.343   7.783  15.770  0.00  0.00    +0.000 A 
ATOM     26  S   UNL     1      52.517   6.757  16.463  0.00  0.00    +0.000 S 
ATOM     27  C   UNL     1      51.332   5.628  16.932  0.00  0.00    +0.000 A 
ATOM     28  N   UNL     1      51.680   4.470  17.556  0.00  0.00    +0.000 NA
ATOM     29  C   UNL     1      50.683   3.693  17.832  0.00  0.00    +0.000 A 
ATOM     30  N   UNL     1      49.370   3.980  17.553  0.00  0.00    +0.000 N 
ATOM     31  C   UNL     1      48.973   5.153  16.955  0.00  0.00    +0.000 A 
ATOM     32  O   UNL     1      47.787   5.401  16.772  0.00  0.00    +0.000 OA
ATOM     33  C   UNL     1      50.058   6.045  16.596  0.00  0.00    +0.000 A 
ATOM     34  H   UNL     1      48.637   3.338  17.810  0.00  0.00    +0.000 HD
ENDBRANCH  21  24
ENDBRANCH  19  20
ENDBRANCH   4  19
TORSDOF 6
ENDMDL
MODEL 3
REMARK VINA RESULT:    -7.555      3.963      8.726
REMARK INTER + INTRA:         -11.201
REMARK INTER:                 -10.116
REMARK INTRA:                  -1.085
REMARK UNBOUND:                -0.996
REMARK  Name = 
REMARK  6 active torsions:
REMARK  status: ('A' for Active; 'I' for Inactive)
REMARK    1  A    between atoms: C_2  and  C_4
REMARK    2  A    between atoms: C_7  and  C_8
REMARK    3  A    between atoms: C_8  and  C_9
REMARK    4  A    between atoms: C_12  and  C_13
REMARK    5  A    between atoms: C_13  and  N_14
REMARK    6  A    between atoms: C_15  and  C_17
REMARK                            x       y       z     vdW  Elec       q    Type
REMARK                         _______ _______ _______ _____ _____    ______ ____
ROOT
ATOM      1  C   UNL     1      49.837   5.938  16.782  0.00  0.00    +0.000 A 
ATOM      2  C   UNL     1      48.567   5.583  16.306  0.00  0.00    +0.000 A 
ATOM      3  C   UNL     1      48.094   6.086  15.089  0.00  0.00    +0.000 A 
ATOM      4  C   UNL     1      48.881   6.958  14.322  0.00  0.00    +0.000 A 
ATOM      5  C   UNL     1      50.134   7.340  14.819  0.00  0.00    +0.000 A 
ATOM      6  C   UNL     1      50.614   6.828  16.029  0.00  0.00    +0.000 A 
ENDROOT
BRANCH   1   7
ATOM      7  C   UNL     1      50.376   5.328  18.060  0.00  0.00    +0.000 C 
BRANCH   7  11
ATOM      8  C   UNL     1      52.584   1.602  17.762  0.00  0.00    +0.000 A 
ATOM      9  C   UNL     1      51.247   1.640  17.363  0.00  0.00    +0.000 A 
ATOM     10  C   UNL     1      50.523   2.834  17.441  0.00  0.00    +0.000 A 
ATOM     11  C   UNL     1      51.116   4.007  17.932  0.00  0.00    +0.000 A 
ATOM     12  C   UNL     1      52.460   3.951  18.342  0.00  0.00    +0.000 A 
ATOM     13  C   UNL     1      53.188   2.758  18.263  0.00  0.00    +0.000 A 
BRANCH   8  15
ATOM     14  N   UNL     1      52.992  -0.677  18.506  0.00  0.00    +0.000 N 
ATOM     15  C   UNL     1      53.380   0.350  17.689  0.00  0.00    +0.000 C 
ATOM     16  O   UNL     1      54.316   0.222  16.910  0.00  0.00    +0.000 OA
ATOM     17  H   UNL     1      53.471  -1.559  18.382  0.00  0.00    +0.000 HD
ATOM     18  H   UNL     1      52.089  -0.691  18.960  0.00  0.00    +0.000 HD
ENDBRANCH   8  15
ENDBRANCH   7  11
ENDBRANCH   1   7
BRANCH   4  19
ATOM     19  C   UNL     1      48.400   7.491  12.996  0.00  0.00    +0.000 C 
BRANCH  19  20
ATOM     20  N   UNL     1      47.663   6.498  12.255  0.00  0.00    +0.000 N 
ATOM     21  C   UNL     1      46.409   6.761  11.765  0.00  0.00    +0.000 C 
ATOM     22  O   UNL     1      45.862   7.851  11.911  0.00  0.00    +0.000 OA
ATOM     23  H   UNL     1      47.951   5.532  12.373  0.00  0.00    +0.000 HD
BRANCH  21  24
ATOM     24  C   UNL     1      45.771   5.682  10.998  0.00  0.00    +0.000 A 
ATOM     25  C   UNL     1      45.888   5.651   9.614  0.00  0.00    +0.000 A 
ATOM     26  S   UNL     1      45.109   4.316   8.891  0.00  0.00    +0.000 S 
ATOM     27  C   UNL     1      44.548   3.758  10.399  0.00  0.00    +0.000 A 
ATOM     28  N   UNL     1      43.766   2.648  10.485  0.00  0.00    +0.000 NA
ATOM     29  C   UNL     1      43.391   2.353  11.687  0.00  0.00    +0.000 A 
ATOM     30  N   UNL     1      43.741   3.060  12.810  0.00  0.00    +0.000 N 
ATOM     31  C   UNL     1      44.557   4.167  12.771  0.00  0.00    +0.000 A 
ATOM     32  O   UNL     1      44.895   4.741  13.799  0.00  0.00    +0.000 OA
ATOM     33  C   UNL     1      44.980   4.558  11.440  0.00  0.00    +0.000 A 
ATOM     34  H   UNL     1      43.429   2.767  13.722  0.00  0.00    +0.000 HD
ENDBRANCH  21  24
ENDBRANCH  19  20
ENDBRANCH   4  19
TORSDOF 6
ENDMDL
MODEL 4
REMARK VINA RESULT:    -7.402      2.819      4.177
REMARK INTER + INTRA:         -10.994
REMARK INTER:                  -9.807
REMARK INTRA:                  -1.187
REMARK UNBOUND:                -0.996
REMARK  Name = 
REMARK  6 active torsions:
REMARK  status: ('A' for Active; 'I' for Inactive)
REMARK    1  A    between atoms: C_2  and  C_4
REMARK    2  A    between atoms: C_7  and  C_8
REMARK    3  A    between atoms: C_8  and  C_9
REMARK    4  A    between atoms: C_12  and  C_13
REMARK    5  A    between atoms: C_13  and  N_14
REMARK    6  A    between atoms: C_15  and  C_17
REMARK                            x       y       z     vdW  Elec       q    Type
REMARK                         _______ _______ _______ _____ _____    ______ ____
ROOT
ATOM      1  C   UNL     1      45.483   4.538  11.641  0.00  0.00    +0.000 A 
ATOM      2  C   UNL     1      45.775   3.591  12.633  0.00  0.00    +0.000 A 
ATOM      3  C   UNL     1      46.497   3.952  13.777  0.00  0.00    +0.000 A 
ATOM      4  C   UNL     1      46.945   5.270  13.951  0.00  0.00    +0.000 A 
ATOM      5  C   UNL     1      46.684   6.205  12.940  0.00  0.00    +0.000 A 
ATOM      6  C   UNL     1      45.952   5.849  11.804  0.00  0.00    +0.000 A 
ENDROOT
BRANCH   1   7
ATOM      7  C   UNL     1      44.634   4.161  10.446  0.00  0.00    +0.000 C 
BRANCH   7  11
ATOM      8  C   UNL     1      46.663   2.388   7.042  0.00  0.00    +0.000 A 
ATOM      9  C   UNL     1      46.545   3.778   7.123  0.00  0.00    +0.000 A 
ATOM     10  C   UNL     1      45.905   4.367   8.217  0.00  0.00    +0.000 A 
ATOM     11  C   UNL     1      45.359   3.580   9.242  0.00  0.00    +0.000 A 
ATOM     12  C   UNL     1      45.473   2.182   9.141  0.00  0.00    +0.000 A 
ATOM     13  C   UNL     1      46.116   1.590   8.049  0.00  0.00    +0.000 A 
BRANCH   8  15
ATOM     14  N   UNL     1      48.136   2.526   5.111  0.00  0.00    +0.000 N 
ATOM     15  C   UNL     1      47.339   1.733   5.893  0.00  0.00    +0.000 C 
ATOM     16  O   UNL     1      47.225   0.535   5.671  0.00  0.00    +0.000 OA
ATOM     17  H   UNL     1      48.673   2.059   4.393  0.00  0.00    +0.000 HD
ATOM     18  H   UNL     1      48.447   3.439   5.412  0.00  0.00    +0.000 HD
ENDBRANCH   8  15
ENDBRANCH   7  11
ENDBRANCH   1   7
BRANCH   4  19
ATOM     19  C   UNL     1      47.703   5.686  15.187  0.00  0.00    +0.000 C 
BRANCH  19  20
ATOM     20  N   UNL     1      48.334   6.972  15.020  0.00  0.00    +0.000 N 
ATOM     21  C   UNL     1      49.633   7.183  15.408  0.00  0.00    +0.000 C 
ATOM     22  O   UNL     1      50.327   6.292  15.891  0.00  0.00    +0.000 OA
ATOM     23  H   UNL     1      47.720   7.772  14.907  0.00  0.00    +0.000 HD
BRANCH  21  24
ATOM     24  C   UNL     1      50.176   8.524  15.157  0.00  0.00    +0.000 A 
ATOM     25  C   UNL     1      51.316   8.678  14.378  0.00  0.00    +0.000 A 
ATOM     26  S   UNL     1      51.789  10.304  14.171  0.00  0.00    +0.000 S 
ATOM     27  C   UNL     1      50.514  10.858  15.154  0.00  0.00    +0.000 A 
ATOM     28  N   UNL     1      50.366  12.182  15.424  0.00  0.00    +0.000 NA
ATOM     29  C   UNL     1      49.372  12.459  16.205  0.00  0.00    +0.000 A 
ATOM     30  N   UNL     1      48.507  11.530  16.725  0.00  0.00    +0.000 N 
ATOM     31  C   UNL     1      48.601  10.186  16.451  0.00  0.00    +0.000 A 
ATOM     32  O   UNL     1      47.777   9.391  16.887  0.00  0.00    +0.000 OA
ATOM     33  C   UNL     1      49.720   9.820  15.603  0.00  0.00    +0.000 A 
ATOM     34  H   UNL     1      47.740  11.813  17.314  0.00  0.00    +0.000 HD
ENDBRANCH  21  24
ENDBRANCH  19  20
ENDBRANCH   4  19
TORSDOF 6
ENDMDL
MODEL 5
REMARK VINA RESULT:    -7.381      5.037      7.133
REMARK INTER + INTRA:         -10.966
REMARK INTER:                  -9.778
REMARK INTRA:                  -1.188
REMARK UNBOUND:                -0.996
REMARK  Name = 
REMARK  6 active torsions:
REMARK  status: ('A' for Active; 'I' for Inactive)
REMARK    1  A    between atoms: C_2  and  C_4
REMARK    2  A    between atoms: C_7  and  C_8
REMARK    3  A    between atoms: C_8  and  C_9
REMARK    4  A    between atoms: C_12  and  C_13
REMARK    5  A    between atoms: C_13  and  N_14
REMARK    6  A    between atoms: C_15  and  C_17
REMARK                            x       y       z     vdW  Elec       q    Type
REMARK                         _______ _______ _______ _____ _____    ______ ____
ROOT
ATOM      1  C   UNL     1      50.934   8.509  11.128  0.00  0.00    +0.000 A 
ATOM      2  C   UNL     1      50.279   9.719  11.397  0.00  0.00    +0.000 A 
ATOM      3  C   UNL     1      48.994   9.728  11.953  0.00  0.00    +0.000 A 
ATOM      4  C   UNL     1      48.337   8.525  12.250  0.00  0.00    +0.000 A 
ATOM      5  C   UNL     1      48.980   7.318  11.945  0.00  0.00    +0.000 A 
ATOM      6  C   UNL     1      50.268   7.307  11.402  0.00  0.00    +0.000 A 
ENDROOT
BRANCH   1   7
ATOM      7  C   UNL     1      52.355   8.506  10.602  0.00  0.00    +0.000 C 
BRANCH   7  11
ATOM      8  C   UNL     1      53.326   5.522   7.602  0.00  0.00    +0.000 A 
ATOM      9  C   UNL     1      53.768   5.344   8.914  0.00  0.00    +0.000 A 
ATOM     10  C   UNL     1      53.455   6.289   9.896  0.00  0.00    +0.000 A 
ATOM     11  C   UNL     1      52.708   7.434   9.583  0.00  0.00    +0.000 A 
ATOM     12  C   UNL     1      52.280   7.607   8.255  0.00  0.00    +0.000 A 
ATOM     13  C   UNL     1      52.589   6.662   7.270  0.00  0.00    +0.000 A 
BRANCH   8  15
ATOM     14  N   UNL     1      53.420   3.218   6.832  0.00  0.00    +0.000 N 
ATOM     15  C   UNL     1      53.640   4.536   6.537  0.00  0.00    +0.000 C 
ATOM     16  O   UNL     1      54.042   4.880   5.432  0.00  0.00    +0.000 OA
ATOM     17  H   UNL     1      53.539   2.558   6.074  0.00  0.00    +0.000 HD
ATOM     18  H   UNL     1      52.861   2.929   7.622  0.00  0.00    +0.000 HD
ENDBRANCH   8  15
ENDBRANCH   7  11
ENDBRANCH   1   7
BRANCH   4  19
ATOM     19  C   UNL     1      46.963   8.512  12.872  0.00  0.00    +0.000 C 
BRANCH  19  20
ATOM     20  N   UNL     1      46.309   7.239  12.699  0.00  0.00    +0.000 N 
ATOM     21  C   UNL     1      45.297   7.077  11.787  0.00  0.00    +0.000 C 
ATOM     22  O   UNL     1      44.914   7.991  11.061  0.00  0.00    +0.000 OA
ATOM     23  H   UNL     1      46.393   6.574  13.461  0.00  0.00    +0.000 HD
BRANCH  21  24
ATOM     24  C   UNL     1      44.730   5.726  11.678  0.00  0.00    +0.000 A 
ATOM     25  C   UNL     1      43.983   5.201  12.725  0.00  0.00    +0.000 A 
ATOM     26  S   UNL     1      43.381   3.633  12.417  0.00  0.00    +0.000 S 
ATOM     27  C   UNL     1      44.138   3.583  10.892  0.00  0.00    +0.000 A 
ATOM     28  N   UNL     1      44.052   2.476  10.107  0.00  0.00    +0.000 NA
ATOM     29  C   UNL     1      44.695   2.566   8.988  0.00  0.00    +0.000 A 
ATOM     30  N   UNL     1      45.404   3.669   8.581  0.00  0.00    +0.000 N 
ATOM     31  C   UNL     1      45.489   4.819   9.330  0.00  0.00    +0.000 A 
ATOM     32  O   UNL     1      46.083   5.805   8.911  0.00  0.00    +0.000 OA
ATOM     33  C   UNL     1      44.809   4.758  10.609  0.00  0.00    +0.000 A 
ATOM     34  H   UNL     1      45.870   3.681   7.688  0.00  0.00    +0.000 HD
ENDBRANCH  21  24
ENDBRANCH  19  20
ENDBRANCH   4  19
TORSDOF 6
ENDMDL
MODEL 6
REMARK VINA RESULT:    -7.358      2.289      3.169
REMARK INTER + INTRA:         -10.935
REMARK INTER:                  -9.713
REMARK INTRA:                  -1.222
REMARK UNBOUND:                -0.996
REMARK  Name = 
REMARK  6 active torsions:
REMARK  status: ('A' for Active; 'I' for Inactive)
REMARK    1  A    between atoms: C_2  and  C_4
REMARK    2  A    between atoms: C_7  and  C_8
REMARK    3  A    between atoms: C_8  and  C_9
REMARK    4  A    between atoms: C_12  and  C_13
REMARK    5  A    between atoms: C_13  and  N_14
REMARK    6  A    between atoms: C_15  and  C_17
REMARK                            x       y       z     vdW  Elec       q    Type
REMARK                         _______ _______ _______ _____ _____    ______ ____
ROOT
ATOM      1  C   UNL     1      44.923   5.572  11.353  0.00  0.00    +0.000 A 
ATOM      2  C   UNL     1      44.499   6.906  11.415  0.00  0.00    +0.000 A 
ATOM      3  C   UNL     1      45.172   7.834  12.219  0.00  0.00    +0.000 A 
ATOM      4  C   UNL     1      46.284   7.444  12.980  0.00  0.00    +0.000 A 
ATOM      5  C   UNL     1      46.682   6.101  12.943  0.00  0.00    +0.000 A 
ATOM      6  C   UNL     1      46.019   5.176  12.131  0.00  0.00    +0.000 A 
ENDROOT
BRANCH   1   7
ATOM      7  C   UNL     1      44.240   4.592  10.420  0.00  0.00    +0.000 C 
BRANCH   7  11
ATOM      8  C   UNL     1      46.634   2.703   7.330  0.00  0.00    +0.000 A 
ATOM      9  C   UNL     1      46.607   4.096   7.420  0.00  0.00    +0.000 A 
ATOM     10  C   UNL     1      45.850   4.722   8.416  0.00  0.00    +0.000 A 
ATOM     11  C   UNL     1      45.097   3.970   9.330  0.00  0.00    +0.000 A 
ATOM     12  C   UNL     1      45.125   2.568   9.220  0.00  0.00    +0.000 A 
ATOM     13  C   UNL     1      45.882   1.939   8.226  0.00  0.00    +0.000 A 
BRANCH   8  15
ATOM     14  N   UNL     1      47.552   2.644   5.079  0.00  0.00    +0.000 N 
ATOM     15  C   UNL     1      47.429   2.009   6.285  0.00  0.00    +0.000 C 
ATOM     16  O   UNL     1      47.983   0.938   6.497  0.00  0.00    +0.000 OA
ATOM     17  H   UNL     1      48.175   2.219   4.405  0.00  0.00    +0.000 HD
ATOM     18  H   UNL     1      47.329   3.622   4.961  0.00  0.00    +0.000 HD
ENDBRANCH   8  15
ENDBRANCH   7  11
ENDBRANCH   1   7
BRANCH   4  19
ATOM     19  C   UNL     1      47.039   8.432  13.833  0.00  0.00    +0.000 C 
BRANCH  19  20
ATOM     20  N   UNL     1      48.127   7.806  14.542  0.00  0.00    +0.000 N 
ATOM     21  C   UNL     1      48.549   8.278  15.759  0.00  0.00    +0.000 C 
ATOM     22  O   UNL     1      48.015   9.235  16.313  0.00  0.00    +0.000 OA
ATOM     23  H   UNL     1      48.756   7.227  13.995  0.00  0.00    +0.000 HD
BRANCH  21  24
ATOM     24  C   UNL     1      49.644   7.538  16.399  0.00  0.00    +0.000 A 
ATOM     25  C   UNL     1      49.435   6.905  17.618  0.00  0.00    +0.000 A 
ATOM     26  S   UNL     1      50.806   6.072  18.200  0.00  0.00    +0.000 S 
ATOM     27  C   UNL     1      51.741   6.566  16.866  0.00  0.00    +0.000 A 
ATOM     28  N   UNL     1      53.053   6.219  16.767  0.00  0.00    +0.000 NA
ATOM     29  C   UNL     1      53.648   6.684  15.716  0.00  0.00    +0.000 A 
ATOM     30  N   UNL     1      53.044   7.451  14.752  0.00  0.00    +0.000 N 
ATOM     31  C   UNL     1      51.714   7.796  14.798  0.00  0.00    +0.000 A 
ATOM     32  O   UNL     1      51.194   8.435  13.891  0.00  0.00    +0.000 OA
ATOM     33  C   UNL     1      51.008   7.325  15.974  0.00  0.00    +0.000 A 
ATOM     34  H   UNL     1      53.561   7.768  13.947  0.00  0.00    +0.000 HD
ENDBRANCH  21  24
ENDBRANCH  19  20
ENDBRANCH   4  19
TORSDOF 6
ENDMDL
MODEL 7
REMARK VINA RESULT:    -7.098      2.591      3.212
REMARK INTER + INTRA:         -10.584
REMARK INTER:                  -9.539
REMARK INTRA:                  -1.045
REMARK UNBOUND:                -0.996
REMARK  Name = 
REMARK  6 active torsions:
REMARK  status: ('A' for Active; 'I' for Inactive)
REMARK    1  A    between atoms: C_2  and  C_4
REMARK    2  A    between atoms: C_7  and  C_8
REMARK    3  A    between atoms: C_8  and  C_9
REMARK    4  A    between atoms: C_12  and  C_13
REMARK    5  A    between atoms: C_13  and  N_14
REMARK    6  A    between atoms: C_15  and  C_17
REMARK                            x       y       z     vdW  Elec       q    Type
REMARK                         _______ _______ _______ _____ _____    ______ ____
ROOT
ATOM      1  C   UNL     1      44.757   5.440  11.119  0.00  0.00    +0.000 A 
ATOM      2  C   UNL     1      45.798   5.215  12.030  0.00  0.00    +0.000 A 
ATOM      3  C   UNL     1      46.320   6.265  12.794  0.00  0.00    +0.000 A 
ATOM      4  C   UNL     1      45.811   7.565  12.660  0.00  0.00    +0.000 A 
ATOM      5  C   UNL     1      44.796   7.794  11.722  0.00  0.00    +0.000 A 
ATOM      6  C   UNL     1      44.265   6.743  10.968  0.00  0.00    +0.000 A 
ENDROOT
BRANCH   1   7
ATOM      7  C   UNL     1      44.143   4.286  10.354  0.00  0.00    +0.000 C 
BRANCH   7  11
ATOM      8  C   UNL     1      46.655   2.526   7.282  0.00  0.00    +0.000 A 
ATOM      9  C   UNL     1      46.000   1.694   8.192  0.00  0.00    +0.000 A 
ATOM     10  C   UNL     1      45.178   2.242   9.181  0.00  0.00    +0.000 A 
ATOM     11  C   UNL     1      45.007   3.630   9.289  0.00  0.00    +0.000 A 
ATOM     12  C   UNL     1      45.682   4.457   8.374  0.00  0.00    +0.000 A 
ATOM     13  C   UNL     1      46.503   3.912   7.381  0.00  0.00    +0.000 A 
BRANCH   8  15
ATOM     14  N   UNL     1      47.933   2.839   5.236  0.00  0.00    +0.000 N 
ATOM     15  C   UNL     1      47.533   1.974   6.219  0.00  0.00    +0.000 C 
ATOM     16  O   UNL     1      47.917   0.811   6.234  0.00  0.00    +0.000 OA
ATOM     17  H   UNL     1      48.610   2.487   4.572  0.00  0.00    +0.000 HD
ATOM     18  H   UNL     1      47.846   3.841   5.334  0.00  0.00    +0.000 HD
ENDBRANCH   8  15
ENDBRANCH   7  11
ENDBRANCH   1   7
BRANCH   4  19
ATOM     19  C   UNL     1      46.342   8.707  13.492  0.00  0.00    +0.000 C 
BRANCH  19  20
ATOM     20  N   UNL     1      47.348   8.267  14.426  0.00  0.00    +0.000 N 
ATOM     21  C   UNL     1      48.572   8.883  14.497  0.00  0.00    +0.000 C 
ATOM     22  O   UNL     1      48.864   9.845  13.792  0.00  0.00    +0.000 OA
ATOM     23  H   UNL     1      47.250   7.326  14.794  0.00  0.00    +0.000 HD
BRANCH  21  24
ATOM     24  C   UNL     1      49.501   8.366  15.510  0.00  0.00    +0.000 A 
ATOM     25  C   UNL     1      50.126   7.140  15.318  0.00  0.00    +0.000 A 
ATOM     26  S   UNL     1      51.191   6.710  16.580  0.00  0.00    +0.000 S 
ATOM     27  C   UNL     1      50.819   8.125  17.450  0.00  0.00    +0.000 A 
ATOM     28  N   UNL     1      51.375   8.361  18.669  0.00  0.00    +0.000 NA
ATOM     29  C   UNL     1      50.984   9.461  19.228  0.00  0.00    +0.000 A 
ATOM     30  N   UNL     1      50.099  10.349  18.670  0.00  0.00    +0.000 N 
ATOM     31  C   UNL     1      49.541  10.165  17.427  0.00  0.00    +0.000 A 
ATOM     32  O   UNL     1      48.798  11.006  16.935  0.00  0.00    +0.000 OA
ATOM     33  C   UNL     1      49.923   8.929  16.770  0.00  0.00    +0.000 A 
ATOM     34  H   UNL     1      49.849  11.198  19.152  0.00  0.00    +0.000 HD
ENDBRANCH  21  24
ENDBRANCH  19  20
ENDBRANCH   4  19
TORSDOF 6
ENDMDL
MODEL 8
REMARK VINA RESULT:    -7.080      4.170      8.643
REMARK INTER + INTRA:         -10.559
REMARK INTER:                  -9.286
REMARK INTRA:                  -1.273
REMARK UNBOUND:                -0.996
REMARK  Name = 
REMARK  6 active torsions:
REMARK  status: ('A' for Active; 'I' for Inactive)
REMARK    1  A    between atoms: C_2  and  C_4
REMARK    2  A    between atoms: C_7  and  C_8
REMARK    3  A    between atoms: C_8  and  C_9
REMARK    4  A    between atoms: C_12  and  C_13
REMARK    5  A    between atoms: C_13  and  N_14
REMARK    6  A    between atoms: C_15  and  C_17
REMARK                            x       y       z     vdW  Elec       q    Type
REMARK                         _______ _______ _______ _____ _____    ______ ____
ROOT
ATOM      1  C   UNL     1      50.372   5.307  17.410  0.00  0.00    +0.000 A 
ATOM      2  C   UNL     1      51.152   6.211  16.676  0.00  0.00    +0.000 A 
ATOM      3  C   UNL     1      50.576   7.011  15.682  0.00  0.00    +0.000 A 
ATOM      4  C   UNL     1      49.205   6.922  15.400  0.00  0.00    +0.000 A 
ATOM      5  C   UNL     1      48.435   5.992  16.111  0.00  0.00    +0.000 A 
ATOM      6  C   UNL     1      49.007   5.201  17.112  0.00  0.00    +0.000 A 
ENDROOT
BRANCH   1   7
ATOM      7  C   UNL     1      50.985   4.503  18.537  0.00  0.00    +0.000 C 
BRANCH   7  11
ATOM      8  C   UNL     1      53.329   1.004  17.482  0.00  0.00    +0.000 A 
ATOM      9  C   UNL     1      51.942   0.977  17.316  0.00  0.00    +0.000 A 
ATOM     10  C   UNL     1      51.172   2.098  17.640  0.00  0.00    +0.000 A 
ATOM     11  C   UNL     1      51.770   3.261  18.148  0.00  0.00    +0.000 A 
ATOM     12  C   UNL     1      53.165   3.271  18.322  0.00  0.00    +0.000 A 
ATOM     13  C   UNL     1      53.939   2.151  17.996  0.00  0.00    +0.000 A 
BRANCH   8  15
ATOM     14  N   UNL     1      54.164  -0.583  15.841  0.00  0.00    +0.000 N 
ATOM     15  C   UNL     1      54.174  -0.170  17.145  0.00  0.00    +0.000 C 
ATOM     16  O   UNL     1      54.877  -0.723  17.981  0.00  0.00    +0.000 OA
ATOM     17  H   UNL     1      54.815  -1.317  15.594  0.00  0.00    +0.000 HD
ATOM     18  H   UNL     1      53.804  -0.004  15.095  0.00  0.00    +0.000 HD
ENDBRANCH   8  15
ENDBRANCH   7  11
ENDBRANCH   1   7
BRANCH   4  19
ATOM     19  C   UNL     1      48.559   7.793  14.351  0.00  0.00    +0.000 C 
BRANCH  19  20
ATOM     20  N   UNL     1      47.331   7.219  13.862  0.00  0.00    +0.000 N 
ATOM     21  C   UNL     1      47.055   7.166  12.519  0.00  0.00    +0.000 C 
ATOM     22  O   UNL     1      47.840   7.580  11.671  0.00  0.00    +0.000 OA
ATOM     23  H   UNL     1      46.564   7.146  14.523  0.00  0.00    +0.000 HD
BRANCH  21  24
ATOM     24  C   UNL     1      45.786   6.529  12.141  0.00  0.00    +0.000 A 
ATOM     25  C   UNL     1      44.777   7.284  11.557  0.00  0.00    +0.000 A 
ATOM     26  S   UNL     1      43.387   6.378  11.160  0.00  0.00    +0.000 S 
ATOM     27  C   UNL     1      44.067   4.953  11.796  0.00  0.00    +0.000 A 
ATOM     28  N   UNL     1      43.365   3.788  11.805  0.00  0.00    +0.000 NA
ATOM     29  C   UNL     1      43.993   2.792  12.341  0.00  0.00    +0.000 A 
ATOM     30  N   UNL     1      45.264   2.855  12.854  0.00  0.00    +0.000 N 
ATOM     31  C   UNL     1      46.020   4.004  12.835  0.00  0.00    +0.000 A 
ATOM     32  O   UNL     1      47.172   4.011  13.251  0.00  0.00    +0.000 OA
ATOM     33  C   UNL     1      45.348   5.159  12.272  0.00  0.00    +0.000 A 
ATOM     34  H   UNL     1      45.704   2.037  13.243  0.00  0.00    +0.000 HD
ENDBRANCH  21  24
ENDBRANCH  19  20
ENDBRANCH   4  19
TORSDOF 6
ENDMDL
MODEL 9
REMARK VINA RESULT:    -6.877      3.308      9.395
REMARK INTER + INTRA:         -10.286
REMARK INTER:                  -9.080
REMARK INTRA:                  -1.206
REMARK UNBOUND:                -0.996
REMARK  Name = 
REMARK  6 active torsions:
REMARK  status: ('A' for Active; 'I' for Inactive)
REMARK    1  A    between atoms: C_2  and  C_4
REMARK    2  A    between atoms: C_7  and  C_8
REMARK    3  A    between atoms: C_8  and  C_9
REMARK    4  A    between atoms: C_12  and  C_13
REMARK    5  A    between atoms: C_13  and  N_14
REMARK    6  A    between atoms: C_15  and  C_17
REMARK                            x       y       z     vdW  Elec       q    Type
REMARK                         _______ _______ _______ _____ _____    ______ ____
ROOT
ATOM      1  C   UNL     1      49.672   8.440  15.423  0.00  0.00    +0.000 A 
ATOM      2  C   UNL     1      48.377   8.922  15.191  0.00  0.00    +0.000 A 
ATOM      3  C   UNL     1      47.770   8.768  13.938  0.00  0.00    +0.000 A 
ATOM      4  C   UNL     1      48.450   8.131  12.890  0.00  0.00    +0.000 A 
ATOM      5  C   UNL     1      49.759   7.683  13.116  0.00  0.00    +0.000 A 
ATOM      6  C   UNL     1      50.361   7.825  14.370  0.00  0.00    +0.000 A 
ENDROOT
BRANCH   1   7
ATOM      7  C   UNL     1      50.291   8.538  16.802  0.00  0.00    +0.000 C 
BRANCH   7  11
ATOM      8  C   UNL     1      49.002   5.519  19.644  0.00  0.00    +0.000 A 
ATOM      9  C   UNL     1      49.620   6.681  20.111  0.00  0.00    +0.000 A 
ATOM     10  C   UNL     1      50.032   7.670  19.211  0.00  0.00    +0.000 A 
ATOM     11  C   UNL     1      49.847   7.510  17.830  0.00  0.00    +0.000 A 
ATOM     12  C   UNL     1      49.235   6.329  17.373  0.00  0.00    +0.000 A 
ATOM     13  C   UNL     1      48.819   5.339  18.270  0.00  0.00    +0.000 A 
BRANCH   8  15
ATOM     14  N   UNL     1      48.403   3.198  20.049  0.00  0.00    +0.000 N 
ATOM     15  C   UNL     1      48.552   4.453  20.574  0.00  0.00    +0.000 C 
ATOM     16  O   UNL     1      48.358   4.670  21.763  0.00  0.00    +0.000 OA
ATOM     17  H   UNL     1      48.194   2.456  20.704  0.00  0.00    +0.000 HD
ATOM     18  H   UNL     1      48.793   2.939  19.154  0.00  0.00    +0.000 HD
ENDBRANCH   8  15
ENDBRANCH   7  11
ENDBRANCH   1   7
BRANCH   4  19
ATOM     19  C   UNL     1      47.807   7.932  11.540  0.00  0.00    +0.000 C 
BRANCH  19  20
ATOM     20  N   UNL     1      47.047   6.708  11.485  0.00  0.00    +0.000 N 
ATOM     21  C   UNL     1      45.678   6.715  11.580  0.00  0.00    +0.000 C 
ATOM     22  O   UNL     1      45.033   7.754  11.695  0.00  0.00    +0.000 OA
ATOM     23  H   UNL     1      47.548   5.849  11.685  0.00  0.00    +0.000 HD
BRANCH  21  24
ATOM     24  C   UNL     1      45.013   5.410  11.478  0.00  0.00    +0.000 A 
ATOM     25  C   UNL     1      44.293   4.910  12.556  0.00  0.00    +0.000 A 
ATOM     26  S   UNL     1      43.566   3.396  12.252  0.00  0.00    +0.000 S 
ATOM     27  C   UNL     1      44.227   3.333  10.684  0.00  0.00    +0.000 A 
ATOM     28  N   UNL     1      44.017   2.255   9.881  0.00  0.00    +0.000 NA
ATOM     29  C   UNL     1      44.598   2.329   8.728  0.00  0.00    +0.000 A 
ATOM     30  N   UNL     1      45.357   3.390   8.303  0.00  0.00    +0.000 N 
ATOM     31  C   UNL     1      45.567   4.513   9.069  0.00  0.00    +0.000 A 
ATOM     32  O   UNL     1      46.203   5.466   8.636  0.00  0.00    +0.000 OA
ATOM     33  C   UNL     1      44.961   4.466  10.386  0.00  0.00    +0.000 A 
ATOM     34  H   UNL     1      45.769   3.393   7.383  0.00  0.00    +0.000 HD
ENDBRANCH  21  24
ENDBRANCH  19  20
ENDBRANCH   4  19
TORSDOF 6
ENDMDL
