MODEL 1
REMARK VINA RESULT:    -7.763      0.000      0.000
REMARK INTER + INTRA:          -9.760
REMARK INTER:                  -9.125
REMARK INTRA:                  -0.636
REMARK UNBOUND:                -0.636
REMARK  Name = 
REMARK  3 active torsions:
REMARK  status: ('A' for Active; 'I' for Inactive)
REMARK    1  A    between atoms: C_2  and  C_11
REMARK    2  A    between atoms: N_3  and  C_4
REMARK    3  A    between atoms: C_4  and  C_5
REMARK                            x       y       z     vdW  Elec       q    Type
REMARK                         _______ _______ _______ _____ _____    ______ ____
ROOT
ATOM      1  O   UNL     1      43.690   6.029  11.005  0.00  0.00    +0.000 OA
ATOM      2  C   UNL     1      44.836   5.591  10.926  0.00  0.00    +0.000 C 
ATOM      3  N   UNL     1      45.220   4.673   9.986  0.00  0.00    +0.000 N 
ATOM      4  H   UNL     1      46.186   4.382   9.933  0.00  0.00    +0.000 HD
ENDROOT
BRANCH   2   5
ATOM      5  C   UNL     1      45.881   5.987  11.870  0.00  0.00    +0.000 A 
ATOM      6  C   UNL     1      46.496   7.228  11.771  0.00  0.00    +0.000 A 
ATOM      7  S   UNL     1      47.643   7.513  13.004  0.00  0.00    +0.000 S 
ATOM      8  C   UNL     1      47.375   5.979  13.688  0.00  0.00    +0.000 A 
ATOM      9  N   UNL     1      48.039   5.577  14.810  0.00  0.00    +0.000 NA
ATOM     10  C   UNL     1      47.733   4.390  15.212  0.00  0.00    +0.000 A 
ATOM     11  N   UNL     1      46.834   3.558  14.595  0.00  0.00    +0.000 N 
ATOM     12  C   UNL     1      46.155   3.910  13.460  0.00  0.00    +0.000 A 
ATOM     13  O   UNL     1      45.356   3.136  12.941  0.00  0.00    +0.000 OA
ATOM     14  C   UNL     1      46.435   5.254  12.981  0.00  0.00    +0.000 A 
ATOM     15  H   UNL     1      46.636   2.640  14.961  0.00  0.00    +0.000 HD
ENDBRANCH   2   5
BRANCH   3  16
ATOM     16  C   UNL     1      44.359   4.207   8.929  0.00  0.00    +0.000 C 
BRANCH  16  17
ATOM     17  C   UNL     1      45.074   3.199   8.025  0.00  0.00    +0.000 C 
ATOM     18  C   UNL     1      45.573   1.983   8.826  0.00  0.00    +0.000 C 
ATOM     19  C   UNL     1      46.348   1.009   7.943  0.00  0.00    +0.000 C 
ATOM     20  C   UNL     1      47.504   1.705   7.235  0.00  0.00    +0.000 C 
ATOM     21  C   UNL     1      47.021   2.908   6.431  0.00  0.00    +0.000 C 
ATOM     22  C   UNL     1      46.239   3.887   7.301  0.00  0.00    +0.000 C 
ENDBRANCH  16  17
ENDBRANCH   3  16
TORSDOF 3
ENDMDL
MODEL 2
REMARK VINA RESULT:    -7.207      1.743      2.832
REMARK INTER + INTRA:          -9.106
REMARK INTER:                  -8.574
REMARK INTRA:                  -0.532
REMARK UNBOUND:                -0.636
REMARK  Name = 
REMARK  3 active torsions:
REMARK  status: ('A' for Active; 'I' for Inactive)
REMARK    1  A    between atoms: C_2  and  C_11
REMARK    2  A    between atoms: N_3  and  C_4
REMARK    3  A    between atoms: C_4  and  C_5
REMARK                            x       y       z     vdW  Elec       q    Type
REMARK                         _______ _______ _______ _____ _____    ______ ____
ROOT
ATOM      1  O   UNL     1      43.884   2.986  12.423  0.00  0.00    +0.000 OA
ATOM      2  C   UNL     1      44.742   3.647  11.844  0.00  0.00    +0.000 C 
ATOM      3  N   UNL     1      45.098   3.427  10.539  0.00  0.00    +0.000 N 
ATOM      4  H   UNL     1      45.776   4.031  10.095  0.00  0.00    +0.000 HD
ENDROOT
BRANCH   2   5
ATOM      5  C   UNL     1      45.495   4.702  12.522  0.00  0.00    +0.000 A 
ATOM      6  C   UNL     1      46.531   4.389  13.392  0.00  0.00    +0.000 A 
ATOM      7  S   UNL     1      47.316   5.765  14.030  0.00  0.00    +0.000 S 
ATOM      8  C   UNL     1      46.278   6.818  13.189  0.00  0.00    +0.000 A 
ATOM      9  N   UNL     1      46.417   8.172  13.278  0.00  0.00    +0.000 NA
ATOM     10  C   UNL     1      45.558   8.843  12.586  0.00  0.00    +0.000 A 
ATOM     11  N   UNL     1      44.563   8.289  11.819  0.00  0.00    +0.000 N 
ATOM     12  C   UNL     1      44.375   6.938  11.710  0.00  0.00    +0.000 A 
ATOM     13  O   UNL     1      43.475   6.485  11.009  0.00  0.00    +0.000 OA
ATOM     14  C   UNL     1      45.339   6.133  12.443  0.00  0.00    +0.000 A 
ATOM     15  H   UNL     1      43.924   8.869  11.298  0.00  0.00    +0.000 HD
ENDBRANCH   2   5
BRANCH   3  16
ATOM     16  C   UNL     1      44.433   2.481   9.680  0.00  0.00    +0.000 C 
BRANCH  16  17
ATOM     17  C   UNL     1      45.159   2.332   8.340  0.00  0.00    +0.000 C 
ATOM     18  C   UNL     1      46.161   1.164   8.372  0.00  0.00    +0.000 C 
ATOM     19  C   UNL     1      46.938   1.055   7.063  0.00  0.00    +0.000 C 
ATOM     20  C   UNL     1      47.640   2.365   6.727  0.00  0.00    +0.000 C 
ATOM     21  C   UNL     1      46.656   3.530   6.685  0.00  0.00    +0.000 C 
ATOM     22  C   UNL     1      45.868   3.646   7.986  0.00  0.00    +0.000 C 
ENDBRANCH  16  17
ENDBRANCH   3  16
TORSDOF 3
ENDMDL
MODEL 3
REMARK VINA RESULT:    -6.805      3.303      6.739
REMARK INTER + INTRA:          -8.634
REMARK INTER:                  -8.092
REMARK INTRA:                  -0.542
REMARK UNBOUND:                -0.636
REMARK  Name = 
REMARK  3 active torsions:
REMARK  status: ('A' for Active; 'I' for Inactive)
REMARK    1  A    between atoms: C_2  and  C_11
REMARK    2  A    between atoms: N_3  and  C_4
REMARK    3  A    between atoms: C_4  and  C_5
REMARK                            x       y       z     vdW  Elec       q    Type
REMARK                         _______ _______ _______ _____ _____    ______ ____
ROOT
ATOM      1  O   UNL     1      48.881   6.148  12.939  0.00  0.00    +0.000 OA
ATOM      2  C   UNL     1      47.805   6.229  13.526  0.00  0.00    +0.000 C 
ATOM      3  N   UNL     1      47.706   6.388  14.883  0.00  0.00    +0.000 N 
ATOM      4  H   UNL     1      46.797   6.498  15.311  0.00  0.00    +0.000 HD
ENDROOT
BRANCH   2   5
ATOM      5  C   UNL     1      46.528   6.114  12.821  0.00  0.00    +0.000 A 
ATOM      6  C   UNL     1      45.906   7.237  12.290  0.00  0.00    +0.000 A 
ATOM      7  S   UNL     1      44.460   6.876  11.456  0.00  0.00    +0.000 S 
ATOM      8  C   UNL     1      44.605   5.217  11.804  0.00  0.00    +0.000 A 
ATOM      9  N   UNL     1      43.685   4.315  11.357  0.00  0.00    +0.000 NA
ATOM     10  C   UNL     1      43.926   3.094  11.699  0.00  0.00    +0.000 A 
ATOM     11  N   UNL     1      44.994   2.687  12.457  0.00  0.00    +0.000 N 
ATOM     12  C   UNL     1      45.935   3.555  12.941  0.00  0.00    +0.000 A 
ATOM     13  O   UNL     1      46.878   3.148  13.613  0.00  0.00    +0.000 OA
ATOM     14  C   UNL     1      45.732   4.942  12.555  0.00  0.00    +0.000 A 
ATOM     15  H   UNL     1      45.129   1.715  12.689  0.00  0.00    +0.000 HD
ENDBRANCH   2   5
BRANCH   3  16
ATOM     16  C   UNL     1      48.841   6.587  15.747  0.00  0.00    +0.000 C 
BRANCH  16  17
ATOM     17  C   UNL     1      48.888   5.540  16.863  0.00  0.00    +0.000 C 
ATOM     18  C   UNL     1      50.312   4.988  17.055  0.00  0.00    +0.000 C 
ATOM     19  C   UNL     1      50.351   3.893  18.117  0.00  0.00    +0.000 C 
ATOM     20  C   UNL     1      49.373   2.772  17.792  0.00  0.00    +0.000 C 
ATOM     21  C   UNL     1      47.956   3.305  17.607  0.00  0.00    +0.000 C 
ATOM     22  C   UNL     1      47.904   4.405  16.551  0.00  0.00    +0.000 C 
ENDBRANCH  16  17
ENDBRANCH   3  16
TORSDOF 3
ENDMDL
MODEL 4
REMARK VINA RESULT:    -6.801      2.447      3.899
REMARK INTER + INTRA:          -8.630
REMARK INTER:                  -8.321
REMARK INTRA:                  -0.309
REMARK UNBOUND:                -0.636
REMARK  Name = 
REMARK  3 active torsions:
REMARK  status: ('A' for Active; 'I' for Inactive)
REMARK    1  A    between atoms: C_2  and  C_11
REMARK    2  A    between atoms: N_3  and  C_4
REMARK    3  A    between atoms: C_4  and  C_5
REMARK                            x       y       z     vdW  Elec       q    Type
REMARK                         _______ _______ _______ _____ _____    ______ ____
ROOT
ATOM      1  O   UNL     1      47.009   3.154  13.860  0.00  0.00    +0.000 OA
ATOM      2  C   UNL     1      46.713   4.314  14.136  0.00  0.00    +0.000 C 
ATOM      3  N   UNL     1      45.598   4.937  13.641  0.00  0.00    +0.000 N 
ATOM      4  H   UNL     1      45.373   5.876  13.938  0.00  0.00    +0.000 HD
ENDROOT
BRANCH   2   5
ATOM      5  C   UNL     1      47.561   5.146  14.990  0.00  0.00    +0.000 A 
ATOM      6  C   UNL     1      48.288   6.202  14.456  0.00  0.00    +0.000 A 
ATOM      7  S   UNL     1      49.162   7.081  15.630  0.00  0.00    +0.000 S 
ATOM      8  C   UNL     1      48.622   6.061  16.879  0.00  0.00    +0.000 A 
ATOM      9  N   UNL     1      48.992   6.271  18.176  0.00  0.00    +0.000 NA
ATOM     10  C   UNL     1      48.506   5.417  19.013  0.00  0.00    +0.000 A 
ATOM     11  N   UNL     1      47.692   4.364  18.678  0.00  0.00    +0.000 N 
ATOM     12  C   UNL     1      47.306   4.104  17.391  0.00  0.00    +0.000 A 
ATOM     13  O   UNL     1      46.573   3.153  17.135  0.00  0.00    +0.000 OA
ATOM     14  C   UNL     1      47.797   5.058  16.409  0.00  0.00    +0.000 A 
ATOM     15  H   UNL     1      47.341   3.732  19.381  0.00  0.00    +0.000 HD
ENDBRANCH   2   5
BRANCH   3  16
ATOM     16  C   UNL     1      44.604   4.272  12.839  0.00  0.00    +0.000 C 
BRANCH  16  17
ATOM     17  C   UNL     1      45.113   4.003  11.420  0.00  0.00    +0.000 C 
ATOM     18  C   UNL     1      45.215   5.304  10.605  0.00  0.00    +0.000 C 
ATOM     19  C   UNL     1      45.655   5.034   9.169  0.00  0.00    +0.000 C 
ATOM     20  C   UNL     1      44.728   4.036   8.486  0.00  0.00    +0.000 C 
ATOM     21  C   UNL     1      44.624   2.738   9.281  0.00  0.00    +0.000 C 
ATOM     22  C   UNL     1      44.191   2.995  10.721  0.00  0.00    +0.000 C 
ENDBRANCH  16  17
ENDBRANCH   3  16
TORSDOF 3
ENDMDL
MODEL 5
REMARK VINA RESULT:    -6.723      3.731      7.021
REMARK INTER + INTRA:          -8.538
REMARK INTER:                  -8.032
REMARK INTRA:                  -0.505
REMARK UNBOUND:                -0.636
REMARK  Name = 
REMARK  3 active torsions:
REMARK  status: ('A' for Active; 'I' for Inactive)
REMARK    1  A    between atoms: C_2  and  C_11
REMARK    2  A    between atoms: N_3  and  C_4
REMARK    3  A    between atoms: C_4  and  C_5
REMARK                            x       y       z     vdW  Elec       q    Type
REMARK                         _______ _______ _______ _____ _____    ______ ____
ROOT
ATOM      1  O   UNL     1      47.268   3.134  14.020  0.00  0.00    +0.000 OA
ATOM      2  C   UNL     1      46.867   4.192  14.499  0.00  0.00    +0.000 C 
ATOM      3  N   UNL     1      46.774   4.412  15.847  0.00  0.00    +0.000 N 
ATOM      4  H   UNL     1      46.483   5.317  16.190  0.00  0.00    +0.000 HD
ENDROOT
BRANCH   2   5
ATOM      5  C   UNL     1      46.406   5.296  13.657  0.00  0.00    +0.000 A 
ATOM      6  C   UNL     1      47.203   6.415  13.454  0.00  0.00    +0.000 A 
ATOM      7  S   UNL     1      46.506   7.557  12.393  0.00  0.00    +0.000 S 
ATOM      8  C   UNL     1      45.109   6.608  12.197  0.00  0.00    +0.000 A 
ATOM      9  N   UNL     1      44.090   7.005  11.381  0.00  0.00    +0.000 NA
ATOM     10  C   UNL     1      43.095   6.183  11.333  0.00  0.00    +0.000 A 
ATOM     11  N   UNL     1      43.015   5.005  12.031  0.00  0.00    +0.000 N 
ATOM     12  C   UNL     1      44.003   4.571  12.873  0.00  0.00    +0.000 A 
ATOM     13  O   UNL     1      43.892   3.509  13.476  0.00  0.00    +0.000 OA
ATOM     14  C   UNL     1      45.165   5.443  12.938  0.00  0.00    +0.000 A 
ATOM     15  H   UNL     1      42.210   4.404  11.948  0.00  0.00    +0.000 HD
ENDBRANCH   2   5
BRANCH   3  16
ATOM     16  C   UNL     1      47.237   3.478  16.841  0.00  0.00    +0.000 C 
BRANCH  16  17
ATOM     17  C   UNL     1      48.526   3.962  17.510  0.00  0.00    +0.000 C 
ATOM     18  C   UNL     1      48.922   5.365  17.017  0.00  0.00    +0.000 C 
ATOM     19  C   UNL     1      50.243   5.822  17.627  0.00  0.00    +0.000 C 
ATOM     20  C   UNL     1      51.356   4.817  17.355  0.00  0.00    +0.000 C 
ATOM     21  C   UNL     1      50.978   3.423  17.846  0.00  0.00    +0.000 C 
ATOM     22  C   UNL     1      49.655   2.956  17.248  0.00  0.00    +0.000 C 
ENDBRANCH  16  17
ENDBRANCH   3  16
TORSDOF 3
ENDMDL
MODEL 6
REMARK VINA RESULT:    -6.678      2.146      3.375
REMARK INTER + INTRA:          -8.484
REMARK INTER:                  -7.765
REMARK INTRA:                  -0.719
REMARK UNBOUND:                -0.636
REMARK  Name = 
REMARK  3 active torsions:
REMARK  status: ('A' for Active; 'I' for Inactive)
REMARK    1  A    between atoms: C_2  and  C_11
REMARK    2  A    between atoms: N_3  and  C_4
REMARK    3  A    between atoms: C_4  and  C_5
REMARK                            x       y       z     vdW  Elec       q    Type
REMARK                         _______ _______ _______ _____ _____    ______ ____
ROOT
ATOM      1  O   UNL     1      45.232   4.430  12.436  0.00  0.00    +0.000 OA
ATOM      2  C   UNL     1      45.444   5.332  11.630  0.00  0.00    +0.000 C 
ATOM      3  N   UNL     1      44.984   5.303  10.340  0.00  0.00    +0.000 N 
ATOM      4  H   UNL     1      45.144   6.093   9.731  0.00  0.00    +0.000 HD
ENDROOT
BRANCH   2   5
ATOM      5  C   UNL     1      46.252   6.502  11.973  0.00  0.00    +0.000 A 
ATOM      6  C   UNL     1      47.546   6.355  12.457  0.00  0.00    +0.000 A 
ATOM      7  S   UNL     1      48.335   7.843  12.738  0.00  0.00    +0.000 S 
ATOM      8  C   UNL     1      46.965   8.726  12.252  0.00  0.00    +0.000 A 
ATOM      9  N   UNL     1      46.971  10.090  12.234  0.00  0.00    +0.000 NA
ATOM     10  C   UNL     1      45.861  10.623  11.844  0.00  0.00    +0.000 A 
ATOM     11  N   UNL     1      44.740   9.922  11.478  0.00  0.00    +0.000 N 
ATOM     12  C   UNL     1      44.681   8.555  11.493  0.00  0.00    +0.000 A 
ATOM     13  O   UNL     1      43.658   7.967  11.154  0.00  0.00    +0.000 OA
ATOM     14  C   UNL     1      45.917   7.901  11.892  0.00  0.00    +0.000 A 
ATOM     15  H   UNL     1      43.903  10.397  11.178  0.00  0.00    +0.000 HD
ENDBRANCH   2   5
BRANCH   3  16
ATOM     16  C   UNL     1      44.117   4.274   9.826  0.00  0.00    +0.000 C 
BRANCH  16  17
ATOM     17  C   UNL     1      44.774   3.508   8.674  0.00  0.00    +0.000 C 
ATOM     18  C   UNL     1      45.332   2.153   9.147  0.00  0.00    +0.000 C 
ATOM     19  C   UNL     1      46.050   1.418   8.020  0.00  0.00    +0.000 C 
ATOM     20  C   UNL     1      47.153   2.277   7.414  0.00  0.00    +0.000 C 
ATOM     21  C   UNL     1      46.612   3.621   6.935  0.00  0.00    +0.000 C 
ATOM     22  C   UNL     1      45.885   4.364   8.051  0.00  0.00    +0.000 C 
ENDBRANCH  16  17
ENDBRANCH   3  16
TORSDOF 3
ENDMDL
MODEL 7
REMARK VINA RESULT:    -6.603      1.495      2.195
REMARK INTER + INTRA:          -8.397
REMARK INTER:                  -7.960
REMARK INTRA:                  -0.437
REMARK UNBOUND:                -0.636
REMARK  Name = 
REMARK  3 active torsions:
REMARK  status: ('A' for Active; 'I' for Inactive)
REMARK    1  A    between atoms: C_2  and  C_11
REMARK    2  A    between atoms: N_3  and  C_4
REMARK    3  A    between atoms: C_4  and  C_5
REMARK                            x       y       z     vdW  Elec       q    Type
REMARK                         _______ _______ _______ _____ _____    ______ ____
ROOT
ATOM      1  O   UNL     1      44.219   4.542  11.878  0.00  0.00    +0.000 OA
ATOM      2  C   UNL     1      44.836   5.368  11.209  0.00  0.00    +0.000 C 
ATOM      3  N   UNL     1      45.153   5.172   9.891  0.00  0.00    +0.000 N 
ATOM      4  H   UNL     1      45.619   5.903   9.372  0.00  0.00    +0.000 HD
ENDROOT
BRANCH   2   5
ATOM      5  C   UNL     1      45.327   6.619  11.785  0.00  0.00    +0.000 A 
ATOM      6  C   UNL     1      44.765   7.837  11.423  0.00  0.00    +0.000 A 
ATOM      7  S   UNL     1      45.441   9.166  12.256  0.00  0.00    +0.000 S 
ATOM      8  C   UNL     1      46.523   8.161  13.100  0.00  0.00    +0.000 A 
ATOM      9  N   UNL     1      47.398   8.670  14.015  0.00  0.00    +0.000 NA
ATOM     10  C   UNL     1      48.156   7.788  14.575  0.00  0.00    +0.000 A 
ATOM     11  N   UNL     1      48.132   6.444  14.301  0.00  0.00    +0.000 N 
ATOM     12  C   UNL     1      47.284   5.888  13.383  0.00  0.00    +0.000 A 
ATOM     13  O   UNL     1      47.293   4.679  13.171  0.00  0.00    +0.000 OA
ATOM     14  C   UNL     1      46.381   6.833  12.745  0.00  0.00    +0.000 A 
ATOM     15  H   UNL     1      48.750   5.804  14.776  0.00  0.00    +0.000 HD
ENDBRANCH   2   5
BRANCH   3  16
ATOM     16  C   UNL     1      44.707   4.037   9.124  0.00  0.00    +0.000 C 
BRANCH  16  17
ATOM     17  C   UNL     1      45.886   3.242   8.558  0.00  0.00    +0.000 C 
ATOM     18  C   UNL     1      46.269   3.731   7.150  0.00  0.00    +0.000 C 
ATOM     19  C   UNL     1      47.397   2.895   6.552  0.00  0.00    +0.000 C 
ATOM     20  C   UNL     1      47.038   1.414   6.534  0.00  0.00    +0.000 C 
ATOM     21  C   UNL     1      46.664   0.915   7.926  0.00  0.00    +0.000 C 
ATOM     22  C   UNL     1      45.541   1.747   8.537  0.00  0.00    +0.000 C 
ENDBRANCH  16  17
ENDBRANCH   3  16
TORSDOF 3
ENDMDL
MODEL 8
REMARK VINA RESULT:    -6.333      3.367      4.594
REMARK INTER + INTRA:          -8.080
REMARK INTER:                  -7.373
REMARK INTRA:                  -0.707
REMARK UNBOUND:                -0.636
REMARK  Name = 
REMARK  3 active torsions:
REMARK  status: ('A' for Active; 'I' for Inactive)
REMARK    1  A    between atoms: C_2  and  C_11
REMARK    2  A    between atoms: N_3  and  C_4
REMARK    3  A    between atoms: C_4  and  C_5
REMARK                            x       y       z     vdW  Elec       q    Type
REMARK                         _______ _______ _______ _____ _____    ______ ____
ROOT
ATOM      1  O   UNL     1      49.117   6.566  13.259  0.00  0.00    +0.000 OA
ATOM      2  C   UNL     1      48.181   6.370  14.030  0.00  0.00    +0.000 C 
ATOM      3  N   UNL     1      46.871   6.380  13.631  0.00  0.00    +0.000 N 
ATOM      4  H   UNL     1      46.141   6.164  14.296  0.00  0.00    +0.000 HD
ENDROOT
BRANCH   2   5
ATOM      5  C   UNL     1      48.392   6.153  15.462  0.00  0.00    +0.000 A 
ATOM      6  C   UNL     1      48.884   7.170  16.270  0.00  0.00    +0.000 A 
ATOM      7  S   UNL     1      48.998   6.728  17.915  0.00  0.00    +0.000 S 
ATOM      8  C   UNL     1      48.423   5.160  17.594  0.00  0.00    +0.000 A 
ATOM      9  N   UNL     1      48.257   4.247  18.594  0.00  0.00    +0.000 NA
ATOM     10  C   UNL     1      47.815   3.100  18.200  0.00  0.00    +0.000 A 
ATOM     11  N   UNL     1      47.533   2.772  16.897  0.00  0.00    +0.000 N 
ATOM     12  C   UNL     1      47.697   3.648  15.859  0.00  0.00    +0.000 A 
ATOM     13  O   UNL     1      47.428   3.315  14.709  0.00  0.00    +0.000 OA
ATOM     14  C   UNL     1      48.160   4.970  16.251  0.00  0.00    +0.000 A 
ATOM     15  H   UNL     1      47.186   1.857  16.654  0.00  0.00    +0.000 HD
ENDBRANCH   2   5
BRANCH   3  16
ATOM     16  C   UNL     1      46.457   6.510  12.258  0.00  0.00    +0.000 C 
BRANCH  16  17
ATOM     17  C   UNL     1      45.083   5.877  12.022  0.00  0.00    +0.000 C 
ATOM     18  C   UNL     1      44.742   4.852  13.119  0.00  0.00    +0.000 C 
ATOM     19  C   UNL     1      43.406   4.166  12.850  0.00  0.00    +0.000 C 
ATOM     20  C   UNL     1      43.386   3.515  11.473  0.00  0.00    +0.000 C 
ATOM     21  C   UNL     1      43.715   4.523  10.376  0.00  0.00    +0.000 C 
ATOM     22  C   UNL     1      45.046   5.220  10.636  0.00  0.00    +0.000 C 
ENDBRANCH  16  17
ENDBRANCH   3  16
TORSDOF 3
ENDMDL
MODEL 9
REMARK VINA RESULT:    -5.878      4.139      7.577
REMARK INTER + INTRA:          -7.545
REMARK INTER:                  -6.858
REMARK INTRA:                  -0.687
REMARK UNBOUND:                -0.636
REMARK  Name = 
REMARK  3 active torsions:
REMARK  status: ('A' for Active; 'I' for Inactive)
REMARK    1  A    between atoms: C_2  and  C_11
REMARK    2  A    between atoms: N_3  and  C_4
REMARK    3  A    between atoms: C_4  and  C_5
REMARK                            x       y       z     vdW  Elec       q    Type
REMARK                         _______ _______ _______ _____ _____    ______ ____
ROOT
ATOM      1  O   UNL     1      47.334   3.031  14.069  0.00  0.00    +0.000 OA
ATOM      2  C   UNL     1      46.904   4.089  14.522  0.00  0.00    +0.000 C 
ATOM      3  N   UNL     1      46.932   4.395  15.856  0.00  0.00    +0.000 N 
ATOM      4  H   UNL     1      46.611   5.300  16.171  0.00  0.00    +0.000 HD
ENDROOT
BRANCH   2   5
ATOM      5  C   UNL     1      46.281   5.099  13.666  0.00  0.00    +0.000 A 
ATOM      6  C   UNL     1      45.026   4.884  13.112  0.00  0.00    +0.000 A 
ATOM      7  S   UNL     1      44.456   6.210  12.199  0.00  0.00    +0.000 S 
ATOM      8  C   UNL     1      45.878   7.096  12.490  0.00  0.00    +0.000 A 
ATOM      9  N   UNL     1      46.041   8.357  11.996  0.00  0.00    +0.000 NA
ATOM     10  C   UNL     1      47.171   8.905  12.297  0.00  0.00    +0.000 A 
ATOM     11  N   UNL     1      48.160   8.309  13.037  0.00  0.00    +0.000 N 
ATOM     12  C   UNL     1      48.049   7.041  13.541  0.00  0.00    +0.000 A 
ATOM     13  O   UNL     1      48.958   6.547  14.202  0.00  0.00    +0.000 OA
ATOM     14  C   UNL     1      46.780   6.389  13.261  0.00  0.00    +0.000 A 
ATOM     15  H   UNL     1      49.021   8.792  13.242  0.00  0.00    +0.000 HD
ENDBRANCH   2   5
BRANCH   3  16
ATOM     16  C   UNL     1      47.561   3.565  16.851  0.00  0.00    +0.000 C 
BRANCH  16  17
ATOM     17  C   UNL     1      48.157   4.403  17.987  0.00  0.00    +0.000 C 
ATOM     18  C   UNL     1      47.116   5.374  18.573  0.00  0.00    +0.000 C 
ATOM     19  C   UNL     1      47.724   6.260  19.656  0.00  0.00    +0.000 C 
ATOM     20  C   UNL     1      48.940   7.016  19.134  0.00  0.00    +0.000 C 
ATOM     21  C   UNL     1      49.982   6.064  18.557  0.00  0.00    +0.000 C 
ATOM     22  C   UNL     1      49.386   5.167  17.477  0.00  0.00    +0.000 C 
ENDBRANCH  16  17
ENDBRANCH   3  16
TORSDOF 3
ENDMDL
