MODEL 1
REMARK VINA RESULT:    -8.198      0.000      0.000
REMARK INTER + INTRA:         -12.214
REMARK INTER:                 -11.073
REMARK INTRA:                  -1.141
REMARK UNBOUND:                -1.141
REMARK  Name = 
REMARK  6 active torsions:
REMARK  status: ('A' for Active; 'I' for Inactive)
REMARK    1  A    between atoms: C_2  and  C_4
REMARK    2  A    between atoms: C_7  and  C_8
REMARK    3  A    between atoms: C_8  and  C_9
REMARK    4  A    between atoms: C_9  and  N_10
REMARK    5  A    between atoms: N_10  and  C_11
REMARK    6  A    between atoms: C_15  and  C_16
REMARK                            x       y       z     vdW  Elec       q    Type
REMARK                         _______ _______ _______ _____ _____    ______ ____
ROOT
ATOM      1  N   UNL     1      43.684   5.552  12.309  0.00  0.00    +0.000 N 
ATOM      2  H   UNL     1      43.218   5.063  13.071  0.00  0.00    +0.000 HD
ENDROOT
BRANCH   1   3
ATOM      3  C   UNL     1      45.064   5.666  12.560  0.00  0.00    +0.000 A 
ATOM      4  C   UNL     1      45.889   6.557  11.865  0.00  0.00    +0.000 A 
ATOM      5  C   UNL     1      47.240   6.689  12.179  0.00  0.00    +0.000 A 
ATOM      6  C   UNL     1      47.779   5.969  13.239  0.00  0.00    +0.000 A 
ATOM      7  C   UNL     1      46.977   5.129  14.030  0.00  0.00    +0.000 A 
ATOM      8  C   UNL     1      45.622   4.982  13.657  0.00  0.00    +0.000 A 
BRANCH   7   9
ATOM      9  C   UNL     1      47.529   4.470  15.233  0.00  0.00    +0.000 A 
ATOM     10  C   UNL     1      47.821   5.191  16.395  0.00  0.00    +0.000 A 
ATOM     11  C   UNL     1      48.337   4.532  17.507  0.00  0.00    +0.000 A 
ATOM     12  C   UNL     1      48.546   3.164  17.442  0.00  0.00    +0.000 A 
ATOM     13  C   UNL     1      48.225   2.513  16.262  0.00  0.00    +0.000 A 
ATOM     14  N   UNL     1      47.720   3.128  15.165  0.00  0.00    +0.000 NA
ENDBRANCH   7   9
ENDBRANCH   1   3
BRANCH   1  15
ATOM     15  C   UNL     1      43.264   5.087  10.983  0.00  0.00    +0.000 C 
BRANCH  15  16
ATOM     16  C   UNL     1      43.536   3.589  10.813  0.00  0.00    +0.000 C 
BRANCH  16  20
ATOM     17  C   UNL     1      46.430   2.836   7.694  0.00  0.00    +0.000 A 
ATOM     18  C   UNL     1      46.036   4.146   7.983  0.00  0.00    +0.000 A 
ATOM     19  C   UNL     1      45.095   4.387   8.991  0.00  0.00    +0.000 A 
ATOM     20  C   UNL     1      44.543   3.324   9.718  0.00  0.00    +0.000 A 
ATOM     21  C   UNL     1      44.911   2.011   9.391  0.00  0.00    +0.000 A 
ATOM     22  C   UNL     1      45.848   1.767   8.381  0.00  0.00    +0.000 A 
BRANCH  17  24
ATOM     23  N   UNL     1      47.299   3.146   5.440  0.00  0.00    +0.000 N 
ATOM     24  C   UNL     1      47.456   2.541   6.658  0.00  0.00    +0.000 C 
ATOM     25  O   UNL     1      48.426   1.832   6.891  0.00  0.00    +0.000 OA
ATOM     26  H   UNL     1      48.068   3.045   4.791  0.00  0.00    +0.000 HD
ATOM     27  H   UNL     1      46.677   3.931   5.308  0.00  0.00    +0.000 HD
ENDBRANCH  17  24
ENDBRANCH  16  20
ENDBRANCH  15  16
ENDBRANCH   1  15
TORSDOF 6
ENDMDL
MODEL 2
REMARK VINA RESULT:    -7.897      2.137      4.391
REMARK INTER + INTRA:         -11.808
REMARK INTER:                 -10.926
REMARK INTRA:                  -0.882
REMARK UNBOUND:                -1.141
REMARK  Name = 
REMARK  6 active torsions:
REMARK  status: ('A' for Active; 'I' for Inactive)
REMARK    1  A    between atoms: C_2  and  C_4
REMARK    2  A    between atoms: C_7  and  C_8
REMARK    3  A    between atoms: C_8  and  C_9
REMARK    4  A    between atoms: C_9  and  N_10
REMARK    5  A    between atoms: N_10  and  C_11
REMARK    6  A    between atoms: C_15  and  C_16
REMARK                            x       y       z     vdW  Elec       q    Type
REMARK                         _______ _______ _______ _____ _____    ______ ____
ROOT
ATOM      1  N   UNL     1      43.695   4.012  12.871  0.00  0.00    +0.000 N 
ATOM      2  H   UNL     1      43.520   3.501  13.734  0.00  0.00    +0.000 HD
ENDROOT
BRANCH   1   3
ATOM      3  C   UNL     1      44.812   4.855  13.010  0.00  0.00    +0.000 A 
ATOM      4  C   UNL     1      46.082   4.381  13.358  0.00  0.00    +0.000 A 
ATOM      5  C   UNL     1      47.181   5.234  13.429  0.00  0.00    +0.000 A 
ATOM      6  C   UNL     1      47.039   6.576  13.094  0.00  0.00    +0.000 A 
ATOM      7  C   UNL     1      45.809   7.089  12.650  0.00  0.00    +0.000 A 
ATOM      8  C   UNL     1      44.704   6.208  12.633  0.00  0.00    +0.000 A 
BRANCH   7   9
ATOM      9  C   UNL     1      45.699   8.484  12.172  0.00  0.00    +0.000 A 
ATOM     10  C   UNL     1      46.710   9.421  12.407  0.00  0.00    +0.000 A 
ATOM     11  C   UNL     1      46.568  10.723  11.939  0.00  0.00    +0.000 A 
ATOM     12  C   UNL     1      45.423  11.066  11.239  0.00  0.00    +0.000 A 
ATOM     13  C   UNL     1      44.467  10.085  11.036  0.00  0.00    +0.000 A 
ATOM     14  N   UNL     1      44.579   8.810  11.479  0.00  0.00    +0.000 NA
ENDBRANCH   7   9
ENDBRANCH   1   3
BRANCH   1  15
ATOM     15  C   UNL     1      43.616   3.169  11.674  0.00  0.00    +0.000 C 
BRANCH  15  16
ATOM     16  C   UNL     1      43.696   4.015  10.399  0.00  0.00    +0.000 C 
BRANCH  16  20
ATOM     17  C   UNL     1      46.530   2.394   7.568  0.00  0.00    +0.000 A 
ATOM     18  C   UNL     1      45.817   1.539   8.415  0.00  0.00    +0.000 A 
ATOM     19  C   UNL     1      44.903   2.066   9.334  0.00  0.00    +0.000 A 
ATOM     20  C   UNL     1      44.693   3.450   9.413  0.00  0.00    +0.000 A 
ATOM     21  C   UNL     1      45.444   4.302   8.591  0.00  0.00    +0.000 A 
ATOM     22  C   UNL     1      46.361   3.777   7.675  0.00  0.00    +0.000 A 
BRANCH  17  24
ATOM     23  N   UNL     1      48.664   2.542   6.404  0.00  0.00    +0.000 N 
ATOM     24  C   UNL     1      47.480   1.869   6.551  0.00  0.00    +0.000 C 
ATOM     25  O   UNL     1      47.246   0.856   5.907  0.00  0.00    +0.000 OA
ATOM     26  H   UNL     1      49.354   2.103   5.808  0.00  0.00    +0.000 HD
ATOM     27  H   UNL     1      48.994   3.202   7.093  0.00  0.00    +0.000 HD
ENDBRANCH  17  24
ENDBRANCH  16  20
ENDBRANCH  15  16
ENDBRANCH   1  15
TORSDOF 6
ENDMDL
MODEL 3
REMARK VINA RESULT:    -7.778      2.477      7.424
REMARK INTER + INTRA:         -11.647
REMARK INTER:                 -10.543
REMARK INTRA:                  -1.103
REMARK UNBOUND:                -1.141
REMARK  Name = 
REMARK  6 active torsions:
REMARK  status: ('A' for Active; 'I' for Inactive)
REMARK    1  A    between atoms: C_2  and  C_4
REMARK    2  A    between atoms: C_7  and  C_8
REMARK    3  A    between atoms: C_8  and  C_9
REMARK    4  A    between atoms: C_9  and  N_10
REMARK    5  A    between atoms: N_10  and  C_11
REMARK    6  A    between atoms: C_15  and  C_16
REMARK                            x       y       z     vdW  Elec       q    Type
REMARK                         _______ _______ _______ _____ _____    ______ ____
ROOT
ATOM      1  N   UNL     1      44.501   6.641  10.721  0.00  0.00    +0.000 N 
ATOM      2  H   UNL     1      44.821   7.083   9.862  0.00  0.00    +0.000 HD
ENDROOT
BRANCH   1   3
ATOM      3  C   UNL     1      44.458   5.242  10.574  0.00  0.00    +0.000 A 
ATOM      4  C   UNL     1      43.570   4.432  11.291  0.00  0.00    +0.000 A 
ATOM      5  C   UNL     1      43.511   3.056  11.079  0.00  0.00    +0.000 A 
ATOM      6  C   UNL     1      44.304   2.471  10.097  0.00  0.00    +0.000 A 
ATOM      7  C   UNL     1      45.147   3.248   9.285  0.00  0.00    +0.000 A 
ATOM      8  C   UNL     1      45.217   4.634   9.556  0.00  0.00    +0.000 A 
BRANCH   7   9
ATOM      9  C   UNL     1      45.887   2.638   8.160  0.00  0.00    +0.000 A 
ATOM     10  C   UNL     1      46.195   3.364   7.005  0.00  0.00    +0.000 A 
ATOM     11  C   UNL     1      46.896   2.752   5.970  0.00  0.00    +0.000 A 
ATOM     12  C   UNL     1      47.281   1.428   6.108  0.00  0.00    +0.000 A 
ATOM     13  C   UNL     1      46.949   0.773   7.283  0.00  0.00    +0.000 A 
ATOM     14  N   UNL     1      46.270   1.344   8.307  0.00  0.00    +0.000 NA
ENDBRANCH   7   9
ENDBRANCH   1   3
BRANCH   1  15
ATOM     15  C   UNL     1      45.140   7.185  11.924  0.00  0.00    +0.000 C 
BRANCH  15  16
ATOM     16  C   UNL     1      46.632   6.842  11.957  0.00  0.00    +0.000 C 
BRANCH  16  20
ATOM     17  C   UNL     1      47.645   4.501  15.445  0.00  0.00    +0.000 A 
ATOM     18  C   UNL     1      48.169   5.788  15.288  0.00  0.00    +0.000 A 
ATOM     19  C   UNL     1      47.844   6.543  14.155  0.00  0.00    +0.000 A 
ATOM     20  C   UNL     1      46.991   6.020  13.173  0.00  0.00    +0.000 A 
ATOM     21  C   UNL     1      46.506   4.712  13.318  0.00  0.00    +0.000 A 
ATOM     22  C   UNL     1      46.834   3.955  14.447  0.00  0.00    +0.000 A 
BRANCH  17  24
ATOM     23  N   UNL     1      46.859   3.215  17.358  0.00  0.00    +0.000 N 
ATOM     24  C   UNL     1      47.935   3.683  16.653  0.00  0.00    +0.000 C 
ATOM     25  O   UNL     1      49.078   3.396  16.981  0.00  0.00    +0.000 OA
ATOM     26  H   UNL     1      47.064   2.555  18.097  0.00  0.00    +0.000 HD
ATOM     27  H   UNL     1      45.927   3.206  16.969  0.00  0.00    +0.000 HD
ENDBRANCH  17  24
ENDBRANCH  16  20
ENDBRANCH  15  16
ENDBRANCH   1  15
TORSDOF 6
ENDMDL
MODEL 4
REMARK VINA RESULT:    -7.301      1.574      2.126
REMARK INTER + INTRA:         -11.003
REMARK INTER:                 -10.199
REMARK INTRA:                  -0.804
REMARK UNBOUND:                -1.141
REMARK  Name = 
REMARK  6 active torsions:
REMARK  status: ('A' for Active; 'I' for Inactive)
REMARK    1  A    between atoms: C_2  and  C_4
REMARK    2  A    between atoms: C_7  and  C_8
REMARK    3  A    between atoms: C_8  and  C_9
REMARK    4  A    between atoms: C_9  and  N_10
REMARK    5  A    between atoms: N_10  and  C_11
REMARK    6  A    between atoms: C_15  and  C_16
REMARK                            x       y       z     vdW  Elec       q    Type
REMARK                         _______ _______ _______ _____ _____    ______ ____
ROOT
ATOM      1  N   UNL     1      45.611   5.019  11.894  0.00  0.00    +0.000 N 
ATOM      2  H   UNL     1      45.956   4.116  11.576  0.00  0.00    +0.000 HD
ENDROOT
BRANCH   1   3
ATOM      3  C   UNL     1      46.677   5.855  12.272  0.00  0.00    +0.000 A 
ATOM      4  C   UNL     1      47.160   6.884  11.456  0.00  0.00    +0.000 A 
ATOM      5  C   UNL     1      48.178   7.733  11.885  0.00  0.00    +0.000 A 
ATOM      6  C   UNL     1      48.695   7.602  13.170  0.00  0.00    +0.000 A 
ATOM      7  C   UNL     1      48.186   6.645  14.065  0.00  0.00    +0.000 A 
ATOM      8  C   UNL     1      47.185   5.771  13.583  0.00  0.00    +0.000 A 
BRANCH   7   9
ATOM      9  C   UNL     1      48.650   6.599  15.467  0.00  0.00    +0.000 A 
ATOM     10  C   UNL     1      48.896   7.767  16.197  0.00  0.00    +0.000 A 
ATOM     11  C   UNL     1      49.330   7.679  17.516  0.00  0.00    +0.000 A 
ATOM     12  C   UNL     1      49.504   6.429  18.086  0.00  0.00    +0.000 A 
ATOM     13  C   UNL     1      49.233   5.316  17.308  0.00  0.00    +0.000 A 
ATOM     14  N   UNL     1      48.808   5.371  16.022  0.00  0.00    +0.000 NA
ENDBRANCH   7   9
ENDBRANCH   1   3
BRANCH   1  15
ATOM     15  C   UNL     1      44.574   5.581  11.022  0.00  0.00    +0.000 C 
BRANCH  15  16
ATOM     16  C   UNL     1      43.857   4.478  10.238  0.00  0.00    +0.000 C 
BRANCH  16  20
ATOM     17  C   UNL     1      46.536   2.386   7.569  0.00  0.00    +0.000 A 
ATOM     18  C   UNL     1      45.761   1.671   8.488  0.00  0.00    +0.000 A 
ATOM     19  C   UNL     1      44.898   2.351   9.355  0.00  0.00    +0.000 A 
ATOM     20  C   UNL     1      44.799   3.748   9.309  0.00  0.00    +0.000 A 
ATOM     21  C   UNL     1      45.612   4.459   8.414  0.00  0.00    +0.000 A 
ATOM     22  C   UNL     1      46.479   3.782   7.551  0.00  0.00    +0.000 A 
BRANCH  17  24
ATOM     23  N   UNL     1      48.508   2.411   6.140  0.00  0.00    +0.000 N 
ATOM     24  C   UNL     1      47.435   1.698   6.605  0.00  0.00    +0.000 C 
ATOM     25  O   UNL     1      47.261   0.533   6.275  0.00  0.00    +0.000 OA
ATOM     26  H   UNL     1      49.182   1.893   5.592  0.00  0.00    +0.000 HD
ATOM     27  H   UNL     1      48.824   3.258   6.591  0.00  0.00    +0.000 HD
ENDBRANCH  17  24
ENDBRANCH  16  20
ENDBRANCH  15  16
ENDBRANCH   1  15
TORSDOF 6
ENDMDL
MODEL 5
REMARK VINA RESULT:    -6.910      3.096      4.296
REMARK INTER + INTRA:         -10.474
REMARK INTER:                  -9.799
REMARK INTRA:                  -0.675
REMARK UNBOUND:                -1.141
REMARK  Name = 
REMARK  6 active torsions:
REMARK  status: ('A' for Active; 'I' for Inactive)
REMARK    1  A    between atoms: C_2  and  C_4
REMARK    2  A    between atoms: C_7  and  C_8
REMARK    3  A    between atoms: C_8  and  C_9
REMARK    4  A    between atoms: C_9  and  N_10
REMARK    5  A    between atoms: N_10  and  C_11
REMARK    6  A    between atoms: C_15  and  C_16
REMARK                            x       y       z     vdW  Elec       q    Type
REMARK                         _______ _______ _______ _____ _____    ______ ____
ROOT
ATOM      1  N   UNL     1      45.458   5.268  11.708  0.00  0.00    +0.000 N 
ATOM      2  H   UNL     1      46.220   4.706  11.334  0.00  0.00    +0.000 HD
ENDROOT
BRANCH   1   3
ATOM      3  C   UNL     1      45.892   6.579  11.977  0.00  0.00    +0.000 A 
ATOM      4  C   UNL     1      45.154   7.477  12.756  0.00  0.00    +0.000 A 
ATOM      5  C   UNL     1      45.639   8.748  13.054  0.00  0.00    +0.000 A 
ATOM      6  C   UNL     1      46.907   9.125  12.623  0.00  0.00    +0.000 A 
ATOM      7  C   UNL     1      47.729   8.232  11.915  0.00  0.00    +0.000 A 
ATOM      8  C   UNL     1      47.189   6.967  11.590  0.00  0.00    +0.000 A 
BRANCH   7   9
ATOM      9  C   UNL     1      49.121   8.594  11.575  0.00  0.00    +0.000 A 
ATOM     10  C   UNL     1      49.508   9.926  11.392  0.00  0.00    +0.000 A 
ATOM     11  C   UNL     1      50.830  10.224  11.074  0.00  0.00    +0.000 A 
ATOM     12  C   UNL     1      51.743   9.189  10.951  0.00  0.00    +0.000 A 
ATOM     13  C   UNL     1      51.291   7.896  11.154  0.00  0.00    +0.000 A 
ATOM     14  N   UNL     1      50.012   7.576  11.466  0.00  0.00    +0.000 NA
ENDBRANCH   7   9
ENDBRANCH   1   3
BRANCH   1  15
ATOM     15  C   UNL     1      44.200   5.098  10.972  0.00  0.00    +0.000 C 
BRANCH  15  16
ATOM     16  C   UNL     1      44.023   3.647  10.514  0.00  0.00    +0.000 C 
BRANCH  16  20
ATOM     17  C   UNL     1      46.600   2.680   7.182  0.00  0.00    +0.000 A 
ATOM     18  C   UNL     1      46.172   1.674   8.054  0.00  0.00    +0.000 A 
ATOM     19  C   UNL     1      45.341   1.989   9.135  0.00  0.00    +0.000 A 
ATOM     20  C   UNL     1      44.930   3.312   9.352  0.00  0.00    +0.000 A 
ATOM     21  C   UNL     1      45.399   4.321   8.500  0.00  0.00    +0.000 A 
ATOM     22  C   UNL     1      46.233   4.007   7.422  0.00  0.00    +0.000 A 
BRANCH  17  24
ATOM     23  N   UNL     1      48.806   2.409   6.188  0.00  0.00    +0.000 N 
ATOM     24  C   UNL     1      47.450   2.379   6.000  0.00  0.00    +0.000 C 
ATOM     25  O   UNL     1      46.969   2.068   4.919  0.00  0.00    +0.000 OA
ATOM     26  H   UNL     1      49.369   2.075   5.417  0.00  0.00    +0.000 HD
ATOM     27  H   UNL     1      49.219   2.394   7.109  0.00  0.00    +0.000 HD
ENDBRANCH  17  24
ENDBRANCH  16  20
ENDBRANCH  15  16
ENDBRANCH   1  15
TORSDOF 6
ENDMDL
MODEL 6
REMARK VINA RESULT:    -6.871      3.631      7.002
REMARK INTER + INTRA:         -10.421
REMARK INTER:                  -9.565
REMARK INTRA:                  -0.857
REMARK UNBOUND:                -1.141
REMARK  Name = 
REMARK  6 active torsions:
REMARK  status: ('A' for Active; 'I' for Inactive)
REMARK    1  A    between atoms: C_2  and  C_4
REMARK    2  A    between atoms: C_7  and  C_8
REMARK    3  A    between atoms: C_8  and  C_9
REMARK    4  A    between atoms: C_9  and  N_10
REMARK    5  A    between atoms: N_10  and  C_11
REMARK    6  A    between atoms: C_15  and  C_16
REMARK                            x       y       z     vdW  Elec       q    Type
REMARK                         _______ _______ _______ _____ _____    ______ ____
ROOT
ATOM      1  N   UNL     1      43.548   6.673  11.469  0.00  0.00    +0.000 N 
ATOM      2  H   UNL     1      42.745   6.977  10.922  0.00  0.00    +0.000 HD
ENDROOT
BRANCH   1   3
ATOM      3  C   UNL     1      43.769   5.293  11.302  0.00  0.00    +0.000 A 
ATOM      4  C   UNL     1      43.096   4.322  12.051  0.00  0.00    +0.000 A 
ATOM      5  C   UNL     1      43.293   2.962  11.821  0.00  0.00    +0.000 A 
ATOM      6  C   UNL     1      44.130   2.548  10.790  0.00  0.00    +0.000 A 
ATOM      7  C   UNL     1      44.761   3.479   9.947  0.00  0.00    +0.000 A 
ATOM      8  C   UNL     1      44.576   4.850  10.237  0.00  0.00    +0.000 A 
BRANCH   7   9
ATOM      9  C   UNL     1      45.543   3.030   8.776  0.00  0.00    +0.000 A 
ATOM     10  C   UNL     1      45.902   3.912   7.752  0.00  0.00    +0.000 A 
ATOM     11  C   UNL     1      46.641   3.449   6.668  0.00  0.00    +0.000 A 
ATOM     12  C   UNL     1      47.014   2.116   6.627  0.00  0.00    +0.000 A 
ATOM     13  C   UNL     1      46.632   1.301   7.680  0.00  0.00    +0.000 A 
ATOM     14  N   UNL     1      45.914   1.725   8.748  0.00  0.00    +0.000 NA
ENDBRANCH   7   9
ENDBRANCH   1   3
BRANCH   1  15
ATOM     15  C   UNL     1      44.701   7.572  11.351  0.00  0.00    +0.000 C 
BRANCH  15  16
ATOM     16  C   UNL     1      45.550   7.546  12.626  0.00  0.00    +0.000 C 
BRANCH  16  20
ATOM     17  C   UNL     1      49.687   8.513  11.832  0.00  0.00    +0.000 A 
ATOM     18  C   UNL     1      48.699   9.493  11.697  0.00  0.00    +0.000 A 
ATOM     19  C   UNL     1      47.359   9.177  11.950  0.00  0.00    +0.000 A 
ATOM     20  C   UNL     1      46.997   7.881  12.342  0.00  0.00    +0.000 A 
ATOM     21  C   UNL     1      47.989   6.894  12.432  0.00  0.00    +0.000 A 
ATOM     22  C   UNL     1      49.327   7.207  12.175  0.00  0.00    +0.000 A 
BRANCH  17  24
ATOM     23  N   UNL     1      52.035   7.975  12.189  0.00  0.00    +0.000 N 
ATOM     24  C   UNL     1      51.125   8.820  11.611  0.00  0.00    +0.000 C 
ATOM     25  O   UNL     1      51.488   9.752  10.907  0.00  0.00    +0.000 OA
ATOM     26  H   UNL     1      53.002   8.115  11.925  0.00  0.00    +0.000 HD
ATOM     27  H   UNL     1      51.774   7.065  12.539  0.00  0.00    +0.000 HD
ENDBRANCH  17  24
ENDBRANCH  16  20
ENDBRANCH  15  16
ENDBRANCH   1  15
TORSDOF 6
ENDMDL
MODEL 7
REMARK VINA RESULT:    -6.734      3.219      8.312
REMARK INTER + INTRA:         -10.237
REMARK INTER:                  -9.705
REMARK INTRA:                  -0.532
REMARK UNBOUND:                -1.141
REMARK  Name = 
REMARK  6 active torsions:
REMARK  status: ('A' for Active; 'I' for Inactive)
REMARK    1  A    between atoms: C_2  and  C_4
REMARK    2  A    between atoms: C_7  and  C_8
REMARK    3  A    between atoms: C_8  and  C_9
REMARK    4  A    between atoms: C_9  and  N_10
REMARK    5  A    between atoms: N_10  and  C_11
REMARK    6  A    between atoms: C_15  and  C_16
REMARK                            x       y       z     vdW  Elec       q    Type
REMARK                         _______ _______ _______ _____ _____    ______ ____
ROOT
ATOM      1  N   UNL     1      45.992   5.448  13.989  0.00  0.00    +0.000 N 
ATOM      2  H   UNL     1      46.433   6.352  13.827  0.00  0.00    +0.000 HD
ENDROOT
BRANCH   1   3
ATOM      3  C   UNL     1      45.110   5.129  12.941  0.00  0.00    +0.000 A 
ATOM      4  C   UNL     1      43.771   5.536  12.926  0.00  0.00    +0.000 A 
ATOM      5  C   UNL     1      42.940   5.255  11.845  0.00  0.00    +0.000 A 
ATOM      6  C   UNL     1      43.453   4.608  10.725  0.00  0.00    +0.000 A 
ATOM      7  C   UNL     1      44.811   4.259  10.646  0.00  0.00    +0.000 A 
ATOM      8  C   UNL     1      45.617   4.517  11.778  0.00  0.00    +0.000 A 
BRANCH   7   9
ATOM      9  C   UNL     1      45.375   3.692   9.403  0.00  0.00    +0.000 A 
ATOM     10  C   UNL     1      45.451   2.310   9.196  0.00  0.00    +0.000 A 
ATOM     11  C   UNL     1      45.986   1.817   8.010  0.00  0.00    +0.000 A 
ATOM     12  C   UNL     1      46.432   2.711   7.049  0.00  0.00    +0.000 A 
ATOM     13  C   UNL     1      46.318   4.065   7.318  0.00  0.00    +0.000 A 
ATOM     14  N   UNL     1      45.800   4.573   8.462  0.00  0.00    +0.000 NA
ENDBRANCH   7   9
ENDBRANCH   1   3
BRANCH   1  15
ATOM     15  C   UNL     1      46.937   4.416  14.430  0.00  0.00    +0.000 C 
BRANCH  15  16
ATOM     16  C   UNL     1      46.890   4.242  15.951  0.00  0.00    +0.000 C 
BRANCH  16  20
ATOM     17  C   UNL     1      50.802   3.366  17.565  0.00  0.00    +0.000 A 
ATOM     18  C   UNL     1      49.951   2.324  17.183  0.00  0.00    +0.000 A 
ATOM     19  C   UNL     1      48.683   2.609  16.665  0.00  0.00    +0.000 A 
ATOM     20  C   UNL     1      48.256   3.937  16.522  0.00  0.00    +0.000 A 
ATOM     21  C   UNL     1      49.098   4.973  16.949  0.00  0.00    +0.000 A 
ATOM     22  C   UNL     1      50.364   4.690  17.471  0.00  0.00    +0.000 A 
BRANCH  17  24
ATOM     23  N   UNL     1      52.464   1.816  18.438  0.00  0.00    +0.000 N 
ATOM     24  C   UNL     1      52.171   3.105  18.083  0.00  0.00    +0.000 C 
ATOM     25  O   UNL     1      53.019   3.985  18.144  0.00  0.00    +0.000 OA
ATOM     26  H   UNL     1      53.432   1.625  18.662  0.00  0.00    +0.000 HD
ATOM     27  H   UNL     1      51.889   1.037  18.150  0.00  0.00    +0.000 HD
ENDBRANCH  17  24
ENDBRANCH  16  20
ENDBRANCH  15  16
ENDBRANCH   1  15
TORSDOF 6
ENDMDL
MODEL 8
REMARK VINA RESULT:    -6.713      3.492      8.457
REMARK INTER + INTRA:         -10.208
REMARK INTER:                  -9.608
REMARK INTRA:                  -0.600
REMARK UNBOUND:                -1.141
REMARK  Name = 
REMARK  6 active torsions:
REMARK  status: ('A' for Active; 'I' for Inactive)
REMARK    1  A    between atoms: C_2  and  C_4
REMARK    2  A    between atoms: C_7  and  C_8
REMARK    3  A    between atoms: C_8  and  C_9
REMARK    4  A    between atoms: C_9  and  N_10
REMARK    5  A    between atoms: N_10  and  C_11
REMARK    6  A    between atoms: C_15  and  C_16
REMARK                            x       y       z     vdW  Elec       q    Type
REMARK                         _______ _______ _______ _____ _____    ______ ____
ROOT
ATOM      1  N   UNL     1      45.851   6.160  13.666  0.00  0.00    +0.000 N 
ATOM      2  H   UNL     1      45.904   7.156  13.465  0.00  0.00    +0.000 HD
ENDROOT
BRANCH   1   3
ATOM      3  C   UNL     1      44.987   5.515  12.762  0.00  0.00    +0.000 A 
ATOM      4  C   UNL     1      43.594   5.636  12.829  0.00  0.00    +0.000 A 
ATOM      5  C   UNL     1      42.768   5.034  11.883  0.00  0.00    +0.000 A 
ATOM      6  C   UNL     1      43.327   4.344  10.812  0.00  0.00    +0.000 A 
ATOM      7  C   UNL     1      44.720   4.268  10.644  0.00  0.00    +0.000 A 
ATOM      8  C   UNL     1      45.530   4.850  11.646  0.00  0.00    +0.000 A 
BRANCH   7   9
ATOM      9  C   UNL     1      45.304   3.645   9.437  0.00  0.00    +0.000 A 
ATOM     10  C   UNL     1      45.806   4.417   8.384  0.00  0.00    +0.000 A 
ATOM     11  C   UNL     1      46.349   3.791   7.267  0.00  0.00    +0.000 A 
ATOM     12  C   UNL     1      46.387   2.407   7.221  0.00  0.00    +0.000 A 
ATOM     13  C   UNL     1      45.880   1.707   8.304  0.00  0.00    +0.000 A 
ATOM     14  N   UNL     1      45.347   2.289   9.405  0.00  0.00    +0.000 NA
ENDBRANCH   7   9
ENDBRANCH   1   3
BRANCH   1  15
ATOM     15  C   UNL     1      47.162   5.550  13.914  0.00  0.00    +0.000 C 
BRANCH  15  16
ATOM     16  C   UNL     1      47.019   4.230  14.678  0.00  0.00    +0.000 C 
BRANCH  16  20
ATOM     17  C   UNL     1      48.755   4.475  18.628  0.00  0.00    +0.000 A 
ATOM     18  C   UNL     1      48.846   5.562  17.753  0.00  0.00    +0.000 A 
ATOM     19  C   UNL     1      48.287   5.479  16.473  0.00  0.00    +0.000 A 
ATOM     20  C   UNL     1      47.632   4.312  16.057  0.00  0.00    +0.000 A 
ATOM     21  C   UNL     1      47.584   3.212  16.925  0.00  0.00    +0.000 A 
ATOM     22  C   UNL     1      48.146   3.291  18.203  0.00  0.00    +0.000 A 
BRANCH  17  24
ATOM     23  N   UNL     1      50.663   4.481  20.141  0.00  0.00    +0.000 N 
ATOM     24  C   UNL     1      49.302   4.538  20.010  0.00  0.00    +0.000 C 
ATOM     25  O   UNL     1      48.579   4.685  20.985  0.00  0.00    +0.000 OA
ATOM     26  H   UNL     1      51.029   4.657  21.068  0.00  0.00    +0.000 HD
ATOM     27  H   UNL     1      51.284   4.631  19.358  0.00  0.00    +0.000 HD
ENDBRANCH  17  24
ENDBRANCH  16  20
ENDBRANCH  15  16
ENDBRANCH   1  15
TORSDOF 6
ENDMDL
MODEL 9
REMARK VINA RESULT:    -6.622      2.875      5.288
REMARK INTER + INTRA:         -10.085
REMARK INTER:                  -9.208
REMARK INTRA:                  -0.878
REMARK UNBOUND:                -1.141
REMARK  Name = 
REMARK  6 active torsions:
REMARK  status: ('A' for Active; 'I' for Inactive)
REMARK    1  A    between atoms: C_2  and  C_4
REMARK    2  A    between atoms: C_7  and  C_8
REMARK    3  A    between atoms: C_8  and  C_9
REMARK    4  A    between atoms: C_9  and  N_10
REMARK    5  A    between atoms: N_10  and  C_11
REMARK    6  A    between atoms: C_15  and  C_16
REMARK                            x       y       z     vdW  Elec       q    Type
REMARK                         _______ _______ _______ _____ _____    ______ ____
ROOT
ATOM      1  N   UNL     1      48.259   6.502  15.870  0.00  0.00    +0.000 N 
ATOM      2  H   UNL     1      47.438   7.036  16.146  0.00  0.00    +0.000 HD
ENDROOT
BRANCH   1   3
ATOM      3  C   UNL     1      48.301   5.269  16.546  0.00  0.00    +0.000 A 
ATOM      4  C   UNL     1      47.161   4.488  16.771  0.00  0.00    +0.000 A 
ATOM      5  C   UNL     1      47.245   3.243  17.390  0.00  0.00    +0.000 A 
ATOM      6  C   UNL     1      48.487   2.728  17.746  0.00  0.00    +0.000 A 
ATOM      7  C   UNL     1      49.673   3.427  17.462  0.00  0.00    +0.000 A 
ATOM      8  C   UNL     1      49.550   4.707  16.874  0.00  0.00    +0.000 A 
BRANCH   7   9
ATOM      9  C   UNL     1      50.993   2.815  17.725  0.00  0.00    +0.000 A 
ATOM     10  C   UNL     1      51.283   1.503  17.336  0.00  0.00    +0.000 A 
ATOM     11  C   UNL     1      52.539   0.966  17.601  0.00  0.00    +0.000 A 
ATOM     12  C   UNL     1      53.485   1.749  18.242  0.00  0.00    +0.000 A 
ATOM     13  C   UNL     1      53.132   3.042  18.589  0.00  0.00    +0.000 A 
ATOM     14  N   UNL     1      51.918   3.591  18.343  0.00  0.00    +0.000 NA
ENDBRANCH   7   9
ENDBRANCH   1   3
BRANCH   1  15
ATOM     15  C   UNL     1      48.488   6.499  14.422  0.00  0.00    +0.000 C 
BRANCH  15  16
ATOM     16  C   UNL     1      47.397   7.289  13.692  0.00  0.00    +0.000 C 
BRANCH  16  20
ATOM     17  C   UNL     1      44.999   4.752  11.144  0.00  0.00    +0.000 A 
ATOM     18  C   UNL     1      45.266   4.371  12.463  0.00  0.00    +0.000 A 
ATOM     19  C   UNL     1      46.047   5.191  13.285  0.00  0.00    +0.000 A 
ATOM     20  C   UNL     1      46.564   6.400  12.797  0.00  0.00    +0.000 A 
ATOM     21  C   UNL     1      46.328   6.752  11.461  0.00  0.00    +0.000 A 
ATOM     22  C   UNL     1      45.552   5.931  10.637  0.00  0.00    +0.000 A 
BRANCH  17  24
ATOM     23  N   UNL     1      44.048   4.320   8.944  0.00  0.00    +0.000 N 
ATOM     24  C   UNL     1      44.141   3.927  10.252  0.00  0.00    +0.000 C 
ATOM     25  O   UNL     1      43.581   2.915  10.648  0.00  0.00    +0.000 OA
ATOM     26  H   UNL     1      43.573   3.682   8.320  0.00  0.00    +0.000 HD
ATOM     27  H   UNL     1      44.699   4.976   8.534  0.00  0.00    +0.000 HD
ENDBRANCH  17  24
ENDBRANCH  16  20
ENDBRANCH  15  16
ENDBRANCH   1  15
TORSDOF 6
ENDMDL
