MODEL 1
REMARK VINA RESULT:    -7.714      0.000      0.000
REMARK INTER + INTRA:         -10.837
REMARK INTER:                  -9.969
REMARK INTRA:                  -0.868
REMARK UNBOUND:                -0.868
REMARK  Name = 
REMARK  5 active torsions:
REMARK  status: ('A' for Active; 'I' for Inactive)
REMARK    1  A    between atoms: C_2  and  C_18
REMARK    2  A    between atoms: N_3  and  C_4
REMARK    3  A    between atoms: C_4  and  C_5
REMARK    4  A    between atoms: C_8  and  C_9
REMARK    5  A    between atoms: C_9  and  N_10
REMARK                            x       y       z     vdW  Elec       q    Type
REMARK                         _______ _______ _______ _____ _____    ______ ____
ROOT
ATOM      1  O   UNL     1      48.673   7.047  13.096  0.00  0.00    +0.000 OA
ATOM      2  C   UNL     1      47.963   6.679  14.027  0.00  0.00    +0.000 C 
ATOM      3  N   UNL     1      46.594   6.618  13.932  0.00  0.00    +0.000 N 
ATOM      4  H   UNL     1      46.033   6.544  14.770  0.00  0.00    +0.000 HD
ENDROOT
BRANCH   2   5
ATOM      5  C   UNL     1      48.543   6.272  15.308  0.00  0.00    +0.000 A 
ATOM      6  C   UNL     1      49.479   7.067  15.952  0.00  0.00    +0.000 A 
ATOM      7  S   UNL     1      49.941   6.457  17.481  0.00  0.00    +0.000 S 
ATOM      8  C   UNL     1      48.898   5.122  17.323  0.00  0.00    +0.000 A 
ATOM      9  N   UNL     1      48.753   4.215  18.325  0.00  0.00    +0.000 NA
ATOM     10  C   UNL     1      47.899   3.277  18.074  0.00  0.00    +0.000 A 
ATOM     11  N   UNL     1      47.193   3.160  16.910  0.00  0.00    +0.000 N 
ATOM     12  C   UNL     1      47.356   4.005  15.847  0.00  0.00    +0.000 A 
ATOM     13  O   UNL     1      46.804   3.777  14.778  0.00  0.00    +0.000 OA
ATOM     14  C   UNL     1      48.255   5.115  16.104  0.00  0.00    +0.000 A 
ATOM     15  H   UNL     1      46.564   2.381  16.754  0.00  0.00    +0.000 HD
ENDBRANCH   2   5
BRANCH   3  16
ATOM     16  C   UNL     1      45.941   7.146  12.762  0.00  0.00    +0.000 C 
BRANCH  16  17
ATOM     17  C   UNL     1      45.713   6.100  11.704  0.00  0.00    +0.000 A 
ATOM     18  C   UNL     1      45.045   4.910  12.024  0.00  0.00    +0.000 A 
ATOM     19  C   UNL     1      44.767   3.955  11.039  0.00  0.00    +0.000 A 
ATOM     20  C   UNL     1      45.161   4.164   9.711  0.00  0.00    +0.000 A 
ATOM     21  C   UNL     1      45.851   5.346   9.399  0.00  0.00    +0.000 A 
ATOM     22  C   UNL     1      46.131   6.301  10.384  0.00  0.00    +0.000 A 
BRANCH  20  23
ATOM     23  C   UNL     1      44.906   3.122   8.635  0.00  0.00    +0.000 C 
BRANCH  23  24
ATOM     24  N   UNL     1      46.113   2.622   7.938  0.00  0.00    +0.000 NA
ATOM     25  C   UNL     1      46.203   1.155   8.022  0.00  0.00    +0.000 C 
ATOM     26  C   UNL     1      47.298   0.550   7.140  0.00  0.00    +0.000 C 
ATOM     27  C   UNL     1      47.182   1.027   5.701  0.00  0.00    +0.000 C 
ATOM     28  C   UNL     1      47.223   2.546   5.671  0.00  0.00    +0.000 C 
ATOM     29  C   UNL     1      46.136   3.149   6.562  0.00  0.00    +0.000 C 
ENDBRANCH  23  24
ENDBRANCH  20  23
ENDBRANCH  16  17
ENDBRANCH   3  16
TORSDOF 5
ENDMDL
MODEL 2
REMARK VINA RESULT:    -7.215      1.973      2.869
REMARK INTER + INTRA:         -10.192
REMARK INTER:                  -9.736
REMARK INTRA:                  -0.456
REMARK UNBOUND:                -0.868
REMARK  Name = 
REMARK  5 active torsions:
REMARK  status: ('A' for Active; 'I' for Inactive)
REMARK    1  A    between atoms: C_2  and  C_18
REMARK    2  A    between atoms: N_3  and  C_4
REMARK    3  A    between atoms: C_4  and  C_5
REMARK    4  A    between atoms: C_8  and  C_9
REMARK    5  A    between atoms: C_9  and  N_10
REMARK                            x       y       z     vdW  Elec       q    Type
REMARK                         _______ _______ _______ _____ _____    ______ ____
ROOT
ATOM      1  O   UNL     1      50.351   6.673  15.538  0.00  0.00    +0.000 OA
ATOM      2  C   UNL     1      49.193   6.709  15.945  0.00  0.00    +0.000 C 
ATOM      3  N   UNL     1      48.111   6.644  15.101  0.00  0.00    +0.000 N 
ATOM      4  H   UNL     1      47.195   6.910  15.434  0.00  0.00    +0.000 HD
ENDROOT
BRANCH   2   5
ATOM      5  C   UNL     1      48.895   6.819  17.374  0.00  0.00    +0.000 A 
ATOM      6  C   UNL     1      48.488   8.023  17.929  0.00  0.00    +0.000 A 
ATOM      7  S   UNL     1      48.090   7.899  19.587  0.00  0.00    +0.000 S 
ATOM      8  C   UNL     1      48.444   6.235  19.603  0.00  0.00    +0.000 A 
ATOM      9  N   UNL     1      48.254   5.482  20.718  0.00  0.00    +0.000 NA
ATOM     10  C   UNL     1      48.532   4.228  20.567  0.00  0.00    +0.000 A 
ATOM     11  N   UNL     1      48.995   3.669  19.409  0.00  0.00    +0.000 N 
ATOM     12  C   UNL     1      49.271   4.395  18.285  0.00  0.00    +0.000 A 
ATOM     13  O   UNL     1      49.814   3.872  17.321  0.00  0.00    +0.000 OA
ATOM     14  C   UNL     1      48.910   5.798  18.382  0.00  0.00    +0.000 A 
ATOM     15  H   UNL     1      49.233   2.685  19.361  0.00  0.00    +0.000 HD
ENDBRANCH   2   5
BRANCH   3  16
ATOM     16  C   UNL     1      48.320   6.691  13.677  0.00  0.00    +0.000 C 
BRANCH  16  17
ATOM     17  C   UNL     1      47.139   6.173  12.901  0.00  0.00    +0.000 A 
ATOM     18  C   UNL     1      46.599   6.932  11.852  0.00  0.00    +0.000 A 
ATOM     19  C   UNL     1      45.543   6.438  11.078  0.00  0.00    +0.000 A 
ATOM     20  C   UNL     1      44.994   5.176  11.341  0.00  0.00    +0.000 A 
ATOM     21  C   UNL     1      45.521   4.429  12.407  0.00  0.00    +0.000 A 
ATOM     22  C   UNL     1      46.576   4.924  13.183  0.00  0.00    +0.000 A 
BRANCH  20  23
ATOM     23  C   UNL     1      43.821   4.639  10.540  0.00  0.00    +0.000 C 
BRANCH  23  24
ATOM     24  N   UNL     1      44.181   3.808   9.368  0.00  0.00    +0.000 NA
ATOM     25  C   UNL     1      45.287   4.413   8.609  0.00  0.00    +0.000 C 
ATOM     26  C   UNL     1      45.860   3.505   7.517  0.00  0.00    +0.000 C 
ATOM     27  C   UNL     1      46.234   2.139   8.069  0.00  0.00    +0.000 C 
ATOM     28  C   UNL     1      45.016   1.512   8.727  0.00  0.00    +0.000 C 
ATOM     29  C   UNL     1      44.439   2.426   9.810  0.00  0.00    +0.000 C 
ENDBRANCH  23  24
ENDBRANCH  20  23
ENDBRANCH  16  17
ENDBRANCH   3  16
TORSDOF 5
ENDMDL
MODEL 3
REMARK VINA RESULT:    -6.810      2.998      4.055
REMARK INTER + INTRA:          -9.668
REMARK INTER:                  -8.565
REMARK INTRA:                  -1.103
REMARK UNBOUND:                -0.868
REMARK  Name = 
REMARK  5 active torsions:
REMARK  status: ('A' for Active; 'I' for Inactive)
REMARK    1  A    between atoms: C_2  and  C_18
REMARK    2  A    between atoms: N_3  and  C_4
REMARK    3  A    between atoms: C_4  and  C_5
REMARK    4  A    between atoms: C_8  and  C_9
REMARK    5  A    between atoms: C_9  and  N_10
REMARK                            x       y       z     vdW  Elec       q    Type
REMARK                         _______ _______ _______ _____ _____    ______ ____
ROOT
ATOM      1  O   UNL     1      48.855   8.511  16.428  0.00  0.00    +0.000 OA
ATOM      2  C   UNL     1      49.284   7.418  16.072  0.00  0.00    +0.000 C 
ATOM      3  N   UNL     1      49.662   7.159  14.776  0.00  0.00    +0.000 N 
ATOM      4  H   UNL     1      49.782   6.204  14.467  0.00  0.00    +0.000 HD
ENDROOT
BRANCH   2   5
ATOM      5  C   UNL     1      49.426   6.313  17.022  0.00  0.00    +0.000 A 
ATOM      6  C   UNL     1      50.282   6.410  18.108  0.00  0.00    +0.000 A 
ATOM      7  S   UNL     1      50.210   5.053  19.145  0.00  0.00    +0.000 S 
ATOM      8  C   UNL     1      49.029   4.306  18.174  0.00  0.00    +0.000 A 
ATOM      9  N   UNL     1      48.469   3.120  18.527  0.00  0.00    +0.000 NA
ATOM     10  C   UNL     1      47.561   2.696  17.710  0.00  0.00    +0.000 A 
ATOM     11  N   UNL     1      47.178   3.344  16.569  0.00  0.00    +0.000 N 
ATOM     12  C   UNL     1      47.761   4.501  16.134  0.00  0.00    +0.000 A 
ATOM     13  O   UNL     1      47.480   4.968  15.038  0.00  0.00    +0.000 OA
ATOM     14  C   UNL     1      48.740   5.054  17.053  0.00  0.00    +0.000 A 
ATOM     15  H   UNL     1      46.487   2.943  15.946  0.00  0.00    +0.000 HD
ENDBRANCH   2   5
BRANCH   3  16
ATOM     16  C   UNL     1      49.409   8.143  13.755  0.00  0.00    +0.000 C 
BRANCH  16  17
ATOM     17  C   UNL     1      48.084   7.938  13.071  0.00  0.00    +0.000 A 
ATOM     18  C   UNL     1      47.938   6.934  12.104  0.00  0.00    +0.000 A 
ATOM     19  C   UNL     1      46.698   6.686  11.505  0.00  0.00    +0.000 A 
ATOM     20  C   UNL     1      45.574   7.446  11.852  0.00  0.00    +0.000 A 
ATOM     21  C   UNL     1      45.728   8.468  12.803  0.00  0.00    +0.000 A 
ATOM     22  C   UNL     1      46.969   8.717  13.400  0.00  0.00    +0.000 A 
BRANCH  20  23
ATOM     23  C   UNL     1      44.228   7.222  11.184  0.00  0.00    +0.000 C 
BRANCH  23  24
ATOM     24  N   UNL     1      43.617   5.894  11.419  0.00  0.00    +0.000 NA
ATOM     25  C   UNL     1      44.117   4.902  10.452  0.00  0.00    +0.000 C 
ATOM     26  C   UNL     1      43.702   3.463  10.770  0.00  0.00    +0.000 C 
ATOM     27  C   UNL     1      44.053   3.085  12.199  0.00  0.00    +0.000 C 
ATOM     28  C   UNL     1      43.403   4.072  13.154  0.00  0.00    +0.000 C 
ATOM     29  C   UNL     1      43.809   5.510  12.828  0.00  0.00    +0.000 C 
ENDBRANCH  23  24
ENDBRANCH  20  23
ENDBRANCH  16  17
ENDBRANCH   3  16
TORSDOF 5
ENDMDL
MODEL 4
REMARK VINA RESULT:    -6.724      2.726      3.799
REMARK INTER + INTRA:          -9.558
REMARK INTER:                  -9.059
REMARK INTRA:                  -0.499
REMARK UNBOUND:                -0.868
REMARK  Name = 
REMARK  5 active torsions:
REMARK  status: ('A' for Active; 'I' for Inactive)
REMARK    1  A    between atoms: C_2  and  C_18
REMARK    2  A    between atoms: N_3  and  C_4
REMARK    3  A    between atoms: C_4  and  C_5
REMARK    4  A    between atoms: C_8  and  C_9
REMARK    5  A    between atoms: C_9  and  N_10
REMARK                            x       y       z     vdW  Elec       q    Type
REMARK                         _______ _______ _______ _____ _____    ______ ____
ROOT
ATOM      1  O   UNL     1      49.847   5.746  16.040  0.00  0.00    +0.000 OA
ATOM      2  C   UNL     1      48.798   6.329  16.299  0.00  0.00    +0.000 C 
ATOM      3  N   UNL     1      47.921   6.739  15.324  0.00  0.00    +0.000 N 
ATOM      4  H   UNL     1      47.200   7.412  15.545  0.00  0.00    +0.000 HD
ENDROOT
BRANCH   2   5
ATOM      5  C   UNL     1      48.413   6.618  17.681  0.00  0.00    +0.000 A 
ATOM      6  C   UNL     1      48.232   5.597  18.602  0.00  0.00    +0.000 A 
ATOM      7  S   UNL     1      47.893   6.164  20.178  0.00  0.00    +0.000 S 
ATOM      8  C   UNL     1      47.986   7.786  19.673  0.00  0.00    +0.000 A 
ATOM      9  N   UNL     1      47.855   8.811  20.555  0.00  0.00    +0.000 NA
ATOM     10  C   UNL     1      47.986   9.985  20.030  0.00  0.00    +0.000 A 
ATOM     11  N   UNL     1      48.220  10.223  18.705  0.00  0.00    +0.000 N 
ATOM     12  C   UNL     1      48.288   9.230  17.767  0.00  0.00    +0.000 A 
ATOM     13  O   UNL     1      48.360   9.500  16.576  0.00  0.00    +0.000 OA
ATOM     14  C   UNL     1      48.215   7.888  18.317  0.00  0.00    +0.000 A 
ATOM     15  H   UNL     1      48.274  11.167  18.343  0.00  0.00    +0.000 HD
ENDBRANCH   2   5
BRANCH   3  16
ATOM     16  C   UNL     1      48.300   6.629  13.939  0.00  0.00    +0.000 C 
BRANCH  16  17
ATOM     17  C   UNL     1      47.163   6.181  13.061  0.00  0.00    +0.000 A 
ATOM     18  C   UNL     1      46.366   5.092  13.443  0.00  0.00    +0.000 A 
ATOM     19  C   UNL     1      45.264   4.702  12.673  0.00  0.00    +0.000 A 
ATOM     20  C   UNL     1      44.940   5.386  11.494  0.00  0.00    +0.000 A 
ATOM     21  C   UNL     1      45.754   6.460  11.101  0.00  0.00    +0.000 A 
ATOM     22  C   UNL     1      46.858   6.849  11.871  0.00  0.00    +0.000 A 
BRANCH  20  23
ATOM     23  C   UNL     1      43.774   4.954  10.622  0.00  0.00    +0.000 C 
BRANCH  23  24
ATOM     24  N   UNL     1      44.126   4.077   9.481  0.00  0.00    +0.000 NA
ATOM     25  C   UNL     1      45.333   4.563   8.792  0.00  0.00    +0.000 C 
ATOM     26  C   UNL     1      45.884   3.590   7.746  0.00  0.00    +0.000 C 
ATOM     27  C   UNL     1      46.088   2.201   8.330  0.00  0.00    +0.000 C 
ATOM     28  C   UNL     1      44.775   1.703   8.911  0.00  0.00    +0.000 C 
ATOM     29  C   UNL     1      44.220   2.682   9.948  0.00  0.00    +0.000 C 
ENDBRANCH  23  24
ENDBRANCH  20  23
ENDBRANCH  16  17
ENDBRANCH   3  16
TORSDOF 5
ENDMDL
MODEL 5
REMARK VINA RESULT:    -6.600      3.867      8.276
REMARK INTER + INTRA:          -9.396
REMARK INTER:                  -8.481
REMARK INTRA:                  -0.916
REMARK UNBOUND:                -0.868
REMARK  Name = 
REMARK  5 active torsions:
REMARK  status: ('A' for Active; 'I' for Inactive)
REMARK    1  A    between atoms: C_2  and  C_18
REMARK    2  A    between atoms: N_3  and  C_4
REMARK    3  A    between atoms: C_4  and  C_5
REMARK    4  A    between atoms: C_8  and  C_9
REMARK    5  A    between atoms: C_9  and  N_10
REMARK                            x       y       z     vdW  Elec       q    Type
REMARK                         _______ _______ _______ _____ _____    ______ ____
ROOT
ATOM      1  O   UNL     1      47.745   7.162  11.627  0.00  0.00    +0.000 OA
ATOM      2  C   UNL     1      46.877   7.028  12.485  0.00  0.00    +0.000 C 
ATOM      3  N   UNL     1      47.075   7.381  13.797  0.00  0.00    +0.000 N 
ATOM      4  H   UNL     1      46.443   7.045  14.511  0.00  0.00    +0.000 HD
ENDROOT
BRANCH   2   5
ATOM      5  C   UNL     1      45.561   6.481  12.151  0.00  0.00    +0.000 A 
ATOM      6  C   UNL     1      44.577   7.280  11.588  0.00  0.00    +0.000 A 
ATOM      7  S   UNL     1      43.160   6.416  11.180  0.00  0.00    +0.000 S 
ATOM      8  C   UNL     1      43.827   4.953  11.738  0.00  0.00    +0.000 A 
ATOM      9  N   UNL     1      43.152   3.779  11.625  0.00  0.00    +0.000 NA
ATOM     10  C   UNL     1      43.801   2.748  12.059  0.00  0.00    +0.000 A 
ATOM     11  N   UNL     1      45.052   2.792  12.609  0.00  0.00    +0.000 N 
ATOM     12  C   UNL     1      45.740   3.956  12.810  0.00  0.00    +0.000 A 
ATOM     13  O   UNL     1      46.795   3.957  13.431  0.00  0.00    +0.000 OA
ATOM     14  C   UNL     1      45.083   5.135  12.276  0.00  0.00    +0.000 A 
ATOM     15  H   UNL     1      45.496   1.956  12.968  0.00  0.00    +0.000 HD
ENDBRANCH   2   5
BRANCH   3  16
ATOM     16  C   UNL     1      48.389   7.779  14.233  0.00  0.00    +0.000 C 
BRANCH  16  17
ATOM     17  C   UNL     1      48.973   6.835  15.249  0.00  0.00    +0.000 A 
ATOM     18  C   UNL     1      50.311   6.968  15.646  0.00  0.00    +0.000 A 
ATOM     19  C   UNL     1      50.853   6.141  16.637  0.00  0.00    +0.000 A 
ATOM     20  C   UNL     1      50.070   5.152  17.248  0.00  0.00    +0.000 A 
ATOM     21  C   UNL     1      48.738   5.005  16.830  0.00  0.00    +0.000 A 
ATOM     22  C   UNL     1      48.196   5.831  15.837  0.00  0.00    +0.000 A 
BRANCH  20  23
ATOM     23  C   UNL     1      50.649   4.217  18.295  0.00  0.00    +0.000 C 
BRANCH  23  24
ATOM     24  N   UNL     1      51.792   3.389  17.844  0.00  0.00    +0.000 NA
ATOM     25  C   UNL     1      52.898   3.439  18.814  0.00  0.00    +0.000 C 
ATOM     26  C   UNL     1      54.019   2.437  18.528  0.00  0.00    +0.000 C 
ATOM     27  C   UNL     1      53.478   1.027  18.360  0.00  0.00    +0.000 C 
ATOM     28  C   UNL     1      52.433   1.018  17.257  0.00  0.00    +0.000 C 
ATOM     29  C   UNL     1      51.318   2.027  17.540  0.00  0.00    +0.000 C 
ENDBRANCH  23  24
ENDBRANCH  20  23
ENDBRANCH  16  17
ENDBRANCH   3  16
TORSDOF 5
ENDMDL
MODEL 6
REMARK VINA RESULT:    -6.443      3.780      9.417
REMARK INTER + INTRA:          -9.194
REMARK INTER:                  -8.418
REMARK INTRA:                  -0.775
REMARK UNBOUND:                -0.868
REMARK  Name = 
REMARK  5 active torsions:
REMARK  status: ('A' for Active; 'I' for Inactive)
REMARK    1  A    between atoms: C_2  and  C_18
REMARK    2  A    between atoms: N_3  and  C_4
REMARK    3  A    between atoms: C_4  and  C_5
REMARK    4  A    between atoms: C_8  and  C_9
REMARK    5  A    between atoms: C_9  and  N_10
REMARK                            x       y       z     vdW  Elec       q    Type
REMARK                         _______ _______ _______ _____ _____    ______ ____
ROOT
ATOM      1  O   UNL     1      47.759   6.914  11.740  0.00  0.00    +0.000 OA
ATOM      2  C   UNL     1      46.907   6.586  12.561  0.00  0.00    +0.000 C 
ATOM      3  N   UNL     1      47.149   6.577  13.913  0.00  0.00    +0.000 N 
ATOM      4  H   UNL     1      46.522   6.085  14.534  0.00  0.00    +0.000 HD
ENDROOT
BRANCH   2   5
ATOM      5  C   UNL     1      45.563   6.188  12.140  0.00  0.00    +0.000 A 
ATOM      6  C   UNL     1      44.692   7.103  11.568  0.00  0.00    +0.000 A 
ATOM      7  S   UNL     1      43.221   6.402  11.053  0.00  0.00    +0.000 S 
ATOM      8  C   UNL     1      43.713   4.858  11.573  0.00  0.00    +0.000 A 
ATOM      9  N   UNL     1      42.934   3.763  11.373  0.00  0.00    +0.000 NA
ATOM     10  C   UNL     1      43.457   2.655  11.789  0.00  0.00    +0.000 A 
ATOM     11  N   UNL     1      44.675   2.552  12.398  0.00  0.00    +0.000 N 
ATOM     12  C   UNL     1      45.462   3.632  12.687  0.00  0.00    +0.000 A 
ATOM     13  O   UNL     1      46.479   3.502  13.357  0.00  0.00    +0.000 OA
ATOM     14  C   UNL     1      44.951   4.891  12.178  0.00  0.00    +0.000 A 
ATOM     15  H   UNL     1      45.017   1.661  12.739  0.00  0.00    +0.000 HD
ENDBRANCH   2   5
BRANCH   3  16
ATOM     16  C   UNL     1      48.488   6.806  14.394  0.00  0.00    +0.000 C 
BRANCH  16  17
ATOM     17  C   UNL     1      48.736   6.173  15.737  0.00  0.00    +0.000 A 
ATOM     18  C   UNL     1      49.793   6.622  16.542  0.00  0.00    +0.000 A 
ATOM     19  C   UNL     1      49.999   6.090  17.820  0.00  0.00    +0.000 A 
ATOM     20  C   UNL     1      49.159   5.087  18.319  0.00  0.00    +0.000 A 
ATOM     21  C   UNL     1      48.117   4.622  17.501  0.00  0.00    +0.000 A 
ATOM     22  C   UNL     1      47.911   5.152  16.221  0.00  0.00    +0.000 A 
BRANCH  20  23
ATOM     23  C   UNL     1      49.390   4.467  19.686  0.00  0.00    +0.000 C 
BRANCH  23  24
ATOM     24  N   UNL     1      49.021   5.319  20.840  0.00  0.00    +0.000 NA
ATOM     25  C   UNL     1      50.107   6.255  21.176  0.00  0.00    +0.000 C 
ATOM     26  C   UNL     1      49.715   7.314  22.209  0.00  0.00    +0.000 C 
ATOM     27  C   UNL     1      48.445   8.045  21.805  0.00  0.00    +0.000 C 
ATOM     28  C   UNL     1      47.329   7.034  21.597  0.00  0.00    +0.000 C 
ATOM     29  C   UNL     1      47.727   5.970  20.572  0.00  0.00    +0.000 C 
ENDBRANCH  23  24
ENDBRANCH  20  23
ENDBRANCH  16  17
ENDBRANCH   3  16
TORSDOF 5
ENDMDL
MODEL 7
REMARK VINA RESULT:    -6.407      4.613      7.341
REMARK INTER + INTRA:          -9.147
REMARK INTER:                  -8.376
REMARK INTRA:                  -0.771
REMARK UNBOUND:                -0.868
REMARK  Name = 
REMARK  5 active torsions:
REMARK  status: ('A' for Active; 'I' for Inactive)
REMARK    1  A    between atoms: C_2  and  C_18
REMARK    2  A    between atoms: N_3  and  C_4
REMARK    3  A    between atoms: C_4  and  C_5
REMARK    4  A    between atoms: C_8  and  C_9
REMARK    5  A    between atoms: C_9  and  N_10
REMARK                            x       y       z     vdW  Elec       q    Type
REMARK                         _______ _______ _______ _____ _____    ______ ____
ROOT
ATOM      1  O   UNL     1      44.640   7.645  11.111  0.00  0.00    +0.000 OA
ATOM      2  C   UNL     1      45.032   6.768  11.875  0.00  0.00    +0.000 C 
ATOM      3  N   UNL     1      45.861   7.031  12.938  0.00  0.00    +0.000 N 
ATOM      4  H   UNL     1      46.349   6.273  13.396  0.00  0.00    +0.000 HD
ENDROOT
BRANCH   2   5
ATOM      5  C   UNL     1      44.625   5.373  11.698  0.00  0.00    +0.000 A 
ATOM      6  C   UNL     1      43.934   4.699  12.693  0.00  0.00    +0.000 A 
ATOM      7  S   UNL     1      43.466   3.120  12.234  0.00  0.00    +0.000 S 
ATOM      8  C   UNL     1      44.167   3.300  10.695  0.00  0.00    +0.000 A 
ATOM      9  N   UNL     1      44.071   2.324   9.755  0.00  0.00    +0.000 NA
ATOM     10  C   UNL     1      44.621   2.620   8.622  0.00  0.00    +0.000 A 
ATOM     11  N   UNL     1      45.268   3.794   8.356  0.00  0.00    +0.000 N 
ATOM     12  C   UNL     1      45.453   4.776   9.290  0.00  0.00    +0.000 A 
ATOM     13  O   UNL     1      46.157   5.746   9.044  0.00  0.00    +0.000 OA
ATOM     14  C   UNL     1      44.794   4.520  10.558  0.00  0.00    +0.000 A 
ATOM     15  H   UNL     1      45.714   3.955   7.461  0.00  0.00    +0.000 HD
ENDBRANCH   2   5
BRANCH   3  16
ATOM     16  C   UNL     1      46.427   8.347  13.086  0.00  0.00    +0.000 C 
BRANCH  16  17
ATOM     17  C   UNL     1      47.832   8.437  12.555  0.00  0.00    +0.000 A 
ATOM     18  C   UNL     1      48.285   9.622  11.958  0.00  0.00    +0.000 A 
ATOM     19  C   UNL     1      49.607   9.747  11.518  0.00  0.00    +0.000 A 
ATOM     20  C   UNL     1      50.507   8.681  11.653  0.00  0.00    +0.000 A 
ATOM     21  C   UNL     1      50.044   7.487  12.229  0.00  0.00    +0.000 A 
ATOM     22  C   UNL     1      48.721   7.362  12.668  0.00  0.00    +0.000 A 
BRANCH  20  23
ATOM     23  C   UNL     1      51.935   8.780  11.144  0.00  0.00    +0.000 C 
BRANCH  23  24
ATOM     24  N   UNL     1      52.165   8.228   9.789  0.00  0.00    +0.000 NA
ATOM     25  C   UNL     1      52.947   9.161   8.963  0.00  0.00    +0.000 C 
ATOM     26  C   UNL     1      53.413   8.568   7.630  0.00  0.00    +0.000 C 
ATOM     27  C   UNL     1      54.138   7.248   7.831  0.00  0.00    +0.000 C 
ATOM     28  C   UNL     1      53.230   6.285   8.578  0.00  0.00    +0.000 C 
ATOM     29  C   UNL     1      52.757   6.883   9.904  0.00  0.00    +0.000 C 
ENDBRANCH  23  24
ENDBRANCH  20  23
ENDBRANCH  16  17
ENDBRANCH   3  16
TORSDOF 5
ENDMDL
MODEL 8
REMARK VINA RESULT:    -6.382      1.725      2.429
REMARK INTER + INTRA:          -9.115
REMARK INTER:                  -8.448
REMARK INTRA:                  -0.666
REMARK UNBOUND:                -0.868
REMARK  Name = 
REMARK  5 active torsions:
REMARK  status: ('A' for Active; 'I' for Inactive)
REMARK    1  A    between atoms: C_2  and  C_18
REMARK    2  A    between atoms: N_3  and  C_4
REMARK    3  A    between atoms: C_4  and  C_5
REMARK    4  A    between atoms: C_8  and  C_9
REMARK    5  A    between atoms: C_9  and  N_10
REMARK                            x       y       z     vdW  Elec       q    Type
REMARK                         _______ _______ _______ _____ _____    ______ ____
ROOT
ATOM      1  O   UNL     1      49.452   8.697  15.387  0.00  0.00    +0.000 OA
ATOM      2  C   UNL     1      49.404   7.483  15.214  0.00  0.00    +0.000 C 
ATOM      3  N   UNL     1      48.707   6.912  14.177  0.00  0.00    +0.000 N 
ATOM      4  H   UNL     1      48.491   5.925  14.197  0.00  0.00    +0.000 HD
ENDROOT
BRANCH   2   5
ATOM      5  C   UNL     1      50.102   6.561  16.111  0.00  0.00    +0.000 A 
ATOM      6  C   UNL     1      51.441   6.746  16.424  0.00  0.00    +0.000 A 
ATOM      7  S   UNL     1      52.024   5.621  17.571  0.00  0.00    +0.000 S 
ATOM      8  C   UNL     1      50.504   4.865  17.684  0.00  0.00    +0.000 A 
ATOM      9  N   UNL     1      50.284   3.843  18.552  0.00  0.00    +0.000 NA
ATOM     10  C   UNL     1      49.071   3.395  18.550  0.00  0.00    +0.000 A 
ATOM     11  N   UNL     1      48.069   3.867  17.749  0.00  0.00    +0.000 N 
ATOM     12  C   UNL     1      48.259   4.843  16.810  0.00  0.00    +0.000 A 
ATOM     13  O   UNL     1      47.367   5.133  16.023  0.00  0.00    +0.000 OA
ATOM     14  C   UNL     1      49.588   5.426  16.820  0.00  0.00    +0.000 A 
ATOM     15  H   UNL     1      47.146   3.450  17.764  0.00  0.00    +0.000 HD
ENDBRANCH   2   5
BRANCH   3  16
ATOM     16  C   UNL     1      47.870   7.739  13.346  0.00  0.00    +0.000 C 
BRANCH  16  17
ATOM     17  C   UNL     1      46.801   6.952  12.635  0.00  0.00    +0.000 A 
ATOM     18  C   UNL     1      46.798   5.552  12.700  0.00  0.00    +0.000 A 
ATOM     19  C   UNL     1      45.776   4.806  12.102  0.00  0.00    +0.000 A 
ATOM     20  C   UNL     1      44.737   5.446  11.413  0.00  0.00    +0.000 A 
ATOM     21  C   UNL     1      44.756   6.847  11.329  0.00  0.00    +0.000 A 
ATOM     22  C   UNL     1      45.780   7.593  11.926  0.00  0.00    +0.000 A 
BRANCH  20  23
ATOM     23  C   UNL     1      43.641   4.655  10.720  0.00  0.00    +0.000 C 
BRANCH  23  24
ATOM     24  N   UNL     1      44.069   3.886   9.529  0.00  0.00    +0.000 NA
ATOM     25  C   UNL     1      45.199   4.544   8.852  0.00  0.00    +0.000 C 
ATOM     26  C   UNL     1      45.837   3.698   7.747  0.00  0.00    +0.000 C 
ATOM     27  C   UNL     1      46.210   2.313   8.251  0.00  0.00    +0.000 C 
ATOM     28  C   UNL     1      44.974   1.637   8.822  0.00  0.00    +0.000 C 
ATOM     29  C   UNL     1      44.331   2.489   9.917  0.00  0.00    +0.000 C 
ENDBRANCH  23  24
ENDBRANCH  20  23
ENDBRANCH  16  17
ENDBRANCH   3  16
TORSDOF 5
ENDMDL
MODEL 9
REMARK VINA RESULT:    -6.328      4.104      9.095
REMARK INTER + INTRA:          -9.045
REMARK INTER:                  -8.553
REMARK INTRA:                  -0.492
REMARK UNBOUND:                -0.868
REMARK  Name = 
REMARK  5 active torsions:
REMARK  status: ('A' for Active; 'I' for Inactive)
REMARK    1  A    between atoms: C_2  and  C_18
REMARK    2  A    between atoms: N_3  and  C_4
REMARK    3  A    between atoms: C_4  and  C_5
REMARK    4  A    between atoms: C_8  and  C_9
REMARK    5  A    between atoms: C_9  and  N_10
REMARK                            x       y       z     vdW  Elec       q    Type
REMARK                         _______ _______ _______ _____ _____    ______ ____
ROOT
ATOM      1  O   UNL     1      47.309   3.161  14.023  0.00  0.00    +0.000 OA
ATOM      2  C   UNL     1      46.947   4.215  14.537  0.00  0.00    +0.000 C 
ATOM      3  N   UNL     1      46.942   4.410  15.897  0.00  0.00    +0.000 N 
ATOM      4  H   UNL     1      46.424   5.183  16.293  0.00  0.00    +0.000 HD
ENDROOT
BRANCH   2   5
ATOM      5  C   UNL     1      46.499   5.343  13.718  0.00  0.00    +0.000 A 
ATOM      6  C   UNL     1      47.313   6.446  13.515  0.00  0.00    +0.000 A 
ATOM      7  S   UNL     1      46.638   7.592  12.442  0.00  0.00    +0.000 S 
ATOM      8  C   UNL     1      45.246   6.640  12.215  0.00  0.00    +0.000 A 
ATOM      9  N   UNL     1      44.267   7.012  11.349  0.00  0.00    +0.000 NA
ATOM     10  C   UNL     1      43.290   6.170  11.256  0.00  0.00    +0.000 A 
ATOM     11  N   UNL     1      43.201   5.003  11.962  0.00  0.00    +0.000 N 
ATOM     12  C   UNL     1      44.123   4.620  12.896  0.00  0.00    +0.000 A 
ATOM     13  O   UNL     1      43.928   3.638  13.600  0.00  0.00    +0.000 OA
ATOM     14  C   UNL     1      45.274   5.499  12.988  0.00  0.00    +0.000 A 
ATOM     15  H   UNL     1      42.392   4.400  11.877  0.00  0.00    +0.000 HD
ENDBRANCH   2   5
BRANCH   3  16
ATOM     16  C   UNL     1      47.220   3.301  16.773  0.00  0.00    +0.000 C 
BRANCH  16  17
ATOM     17  C   UNL     1      48.631   3.315  17.294  0.00  0.00    +0.000 A 
ATOM     18  C   UNL     1      49.543   2.332  16.883  0.00  0.00    +0.000 A 
ATOM     19  C   UNL     1      50.877   2.367  17.306  0.00  0.00    +0.000 A 
ATOM     20  C   UNL     1      51.328   3.381  18.161  0.00  0.00    +0.000 A 
ATOM     21  C   UNL     1      50.407   4.350  18.590  0.00  0.00    +0.000 A 
ATOM     22  C   UNL     1      49.072   4.314  18.169  0.00  0.00    +0.000 A 
BRANCH  20  23
ATOM     23  C   UNL     1      52.760   3.414  18.665  0.00  0.00    +0.000 C 
BRANCH  23  24
ATOM     24  N   UNL     1      53.544   4.607  18.271  0.00  0.00    +0.000 NA
ATOM     25  C   UNL     1      52.935   5.284  17.114  0.00  0.00    +0.000 C 
ATOM     26  C   UNL     1      53.561   6.643  16.790  0.00  0.00    +0.000 C 
ATOM     27  C   UNL     1      53.600   7.544  18.014  0.00  0.00    +0.000 C 
ATOM     28  C   UNL     1      54.352   6.840  19.131  0.00  0.00    +0.000 C 
ATOM     29  C   UNL     1      53.733   5.477  19.446  0.00  0.00    +0.000 C 
ENDBRANCH  23  24
ENDBRANCH  20  23
ENDBRANCH  16  17
ENDBRANCH   3  16
TORSDOF 5
ENDMDL
