MODEL 1
REMARK VINA RESULT:    -7.191      0.000      0.000
REMARK INTER + INTRA:          -9.222
REMARK INTER:                  -8.662
REMARK INTRA:                  -0.560
REMARK UNBOUND:                -0.560
REMARK  Name = 
REMARK  5 active torsions:
REMARK  status: ('A' for Active; 'I' for Inactive)
REMARK    1  A    between atoms: C_1  and  C_2
REMARK    2  A    between atoms: C_2  and  N_3
REMARK    3  A    between atoms: C_2  and  C_14
REMARK    4  A    between atoms: C_7  and  C_8
REMARK    5  A    between atoms: C_8  and  O_10
REMARK                            x       y       z     vdW  Elec       q    Type
REMARK                         _______ _______ _______ _____ _____    ______ ____
ROOT
ATOM      1  N   UNL     1      45.381   3.796  12.109  0.00  0.00    +0.000 N 
ATOM      2  C   UNL     1      45.847   5.047  12.527  0.00  0.00    +0.000 A 
ATOM      3  C   UNL     1      46.857   5.075  13.483  0.00  0.00    +0.000 A 
ATOM      4  C   UNL     1      47.367   6.300  13.914  0.00  0.00    +0.000 A 
ATOM      5  C   UNL     1      46.865   7.496  13.389  0.00  0.00    +0.000 A 
ATOM      6  C   UNL     1      45.846   7.365  12.458  0.00  0.00    +0.000 A 
ATOM      7 CL   UNL     1      45.077   8.685  11.660  0.00  0.00    +0.000 Cl
ATOM      8  N   UNL     1      45.330   6.183  12.032  0.00  0.00    +0.000 NA
ATOM      9  H   UNL     1      46.184   3.239  11.825  0.00  0.00    +0.000 HD
ENDROOT
BRANCH   1  11
ATOM     10  C   UNL     1      43.253   2.743  11.471  0.00  0.00    +0.000 C 
ATOM     11  C   UNL     1      44.324   3.766  11.091  0.00  0.00    +0.000 C 
BRANCH  11  12
ATOM     12  C   UNL     1      44.970   3.406   9.757  0.00  0.00    +0.000 A 
ATOM     13  C   UNL     1      45.350   4.421   8.862  0.00  0.00    +0.000 A 
ATOM     14  C   UNL     1      46.006   4.111   7.666  0.00  0.00    +0.000 A 
ATOM     15  C   UNL     1      46.290   2.782   7.354  0.00  0.00    +0.000 A 
ATOM     16 CL   UNL     1      47.136   2.415   5.902  0.00  0.00    +0.000 Cl
ATOM     17  C   UNL     1      45.902   1.768   8.226  0.00  0.00    +0.000 A 
ATOM     18  F   UNL     1      46.169   0.484   7.948  0.00  0.00    +0.000 F 
ATOM     19  C   UNL     1      45.244   2.069   9.416  0.00  0.00    +0.000 A 
ENDBRANCH  11  12
ENDBRANCH   1  11
BRANCH   5  20
ATOM     20  C   UNL     1      47.477   8.756  13.881  0.00  0.00    +0.000 C 
ATOM     21  O   UNL     1      48.126   9.474  13.132  0.00  0.00    +0.000 OA
BRANCH  20  22
ATOM     22  O   UNL     1      47.288   9.093  15.171  0.00  0.00    +0.000 OA
ATOM     23  H   UNL     1      47.949   9.680  15.586  0.00  0.00    +0.000 HD
ENDBRANCH  20  22
ENDBRANCH   5  20
TORSDOF 4
ENDMDL
MODEL 2
REMARK VINA RESULT:    -6.765      2.048      2.658
REMARK INTER + INTRA:          -8.709
REMARK INTER:                  -9.292
REMARK INTRA:                   0.583
REMARK UNBOUND:                -0.560
REMARK  Name = 
REMARK  5 active torsions:
REMARK  status: ('A' for Active; 'I' for Inactive)
REMARK    1  A    between atoms: C_1  and  C_2
REMARK    2  A    between atoms: C_2  and  N_3
REMARK    3  A    between atoms: C_2  and  C_14
REMARK    4  A    between atoms: C_7  and  C_8
REMARK    5  A    between atoms: C_8  and  O_10
REMARK                            x       y       z     vdW  Elec       q    Type
REMARK                         _______ _______ _______ _____ _____    ______ ____
ROOT
ATOM      1  N   UNL     1      44.211   5.943  10.571  0.00  0.00    +0.000 N 
ATOM      2  C   UNL     1      45.258   6.001  11.497  0.00  0.00    +0.000 A 
ATOM      3  C   UNL     1      45.847   7.239  11.731  0.00  0.00    +0.000 A 
ATOM      4  C   UNL     1      46.881   7.348  12.662  0.00  0.00    +0.000 A 
ATOM      5  C   UNL     1      47.327   6.217  13.355  0.00  0.00    +0.000 A 
ATOM      6  C   UNL     1      46.692   5.027  13.037  0.00  0.00    +0.000 A 
ATOM      7 CL   UNL     1      47.051   3.505  13.762  0.00  0.00    +0.000 Cl
ATOM      8  N   UNL     1      45.690   4.898  12.129  0.00  0.00    +0.000 NA
ATOM      9  H   UNL     1      43.521   6.645  10.831  0.00  0.00    +0.000 HD
ENDROOT
BRANCH   1  11
ATOM     10  C   UNL     1      43.289   3.942  11.663  0.00  0.00    +0.000 C 
ATOM     11  C   UNL     1      43.582   4.638  10.333  0.00  0.00    +0.000 C 
BRANCH  11  12
ATOM     12  C   UNL     1      44.539   3.807   9.484  0.00  0.00    +0.000 A 
ATOM     13  C   UNL     1      44.611   2.415   9.665  0.00  0.00    +0.000 A 
ATOM     14  C   UNL     1      45.431   1.630   8.848  0.00  0.00    +0.000 A 
ATOM     15  C   UNL     1      46.187   2.230   7.841  0.00  0.00    +0.000 A 
ATOM     16 CL   UNL     1      47.160   1.249   6.815  0.00  0.00    +0.000 Cl
ATOM     17  C   UNL     1      46.135   3.610   7.667  0.00  0.00    +0.000 A 
ATOM     18  F   UNL     1      46.850   4.207   6.702  0.00  0.00    +0.000 F 
ATOM     19  C   UNL     1      45.325   4.398   8.479  0.00  0.00    +0.000 A 
ENDBRANCH  11  12
ENDBRANCH   1  11
BRANCH   5  20
ATOM     20  C   UNL     1      48.414   6.421  14.345  0.00  0.00    +0.000 C 
ATOM     21  O   UNL     1      48.224   6.220  15.538  0.00  0.00    +0.000 OA
BRANCH  20  22
ATOM     22  O   UNL     1      49.618   6.820  13.895  0.00  0.00    +0.000 OA
ATOM     23  H   UNL     1      50.070   7.533  14.385  0.00  0.00    +0.000 HD
ENDBRANCH  20  22
ENDBRANCH   5  20
TORSDOF 4
ENDMDL
MODEL 3
REMARK VINA RESULT:    -6.156      5.425      7.615
REMARK INTER + INTRA:          -7.976
REMARK INTER:                  -7.472
REMARK INTRA:                  -0.504
REMARK UNBOUND:                -0.560
REMARK  Name = 
REMARK  5 active torsions:
REMARK  status: ('A' for Active; 'I' for Inactive)
REMARK    1  A    between atoms: C_1  and  C_2
REMARK    2  A    between atoms: C_2  and  N_3
REMARK    3  A    between atoms: C_2  and  C_14
REMARK    4  A    between atoms: C_7  and  C_8
REMARK    5  A    between atoms: C_8  and  O_10
REMARK                            x       y       z     vdW  Elec       q    Type
REMARK                         _______ _______ _______ _____ _____    ______ ____
ROOT
ATOM      1  N   UNL     1      47.940   5.435  15.640  0.00  0.00    +0.000 N 
ATOM      2  C   UNL     1      47.237   5.433  14.431  0.00  0.00    +0.000 A 
ATOM      3  C   UNL     1      47.386   6.533  13.593  0.00  0.00    +0.000 A 
ATOM      4  C   UNL     1      46.720   6.565  12.367  0.00  0.00    +0.000 A 
ATOM      5  C   UNL     1      45.904   5.496  11.982  0.00  0.00    +0.000 A 
ATOM      6  C   UNL     1      45.802   4.456  12.893  0.00  0.00    +0.000 A 
ATOM      7 CL   UNL     1      44.873   3.026  12.644  0.00  0.00    +0.000 Cl
ATOM      8  N   UNL     1      46.435   4.410  14.094  0.00  0.00    +0.000 NA
ATOM      9  H   UNL     1      48.919   5.623  15.436  0.00  0.00    +0.000 HD
ENDROOT
BRANCH   1  11
ATOM     10  C   UNL     1      46.954   4.634  17.745  0.00  0.00    +0.000 C 
ATOM     11  C   UNL     1      47.792   4.269  16.519  0.00  0.00    +0.000 C 
BRANCH  11  12
ATOM     12  C   UNL     1      49.189   3.814  16.931  0.00  0.00    +0.000 A 
ATOM     13  C   UNL     1      50.147   4.762  17.330  0.00  0.00    +0.000 A 
ATOM     14  C   UNL     1      51.409   4.357  17.777  0.00  0.00    +0.000 A 
ATOM     15  C   UNL     1      51.725   3.000  17.829  0.00  0.00    +0.000 A 
ATOM     16 CL   UNL     1      53.265   2.512  18.421  0.00  0.00    +0.000 Cl
ATOM     17  C   UNL     1      50.788   2.056  17.419  0.00  0.00    +0.000 A 
ATOM     18  F   UNL     1      51.069   0.745  17.466  0.00  0.00    +0.000 F 
ATOM     19  C   UNL     1      49.531   2.452  16.968  0.00  0.00    +0.000 A 
ENDBRANCH  11  12
ENDBRANCH   1  11
BRANCH   5  20
ATOM     20  C   UNL     1      45.250   5.594  10.653  0.00  0.00    +0.000 C 
ATOM     21  O   UNL     1      45.897   5.464   9.622  0.00  0.00    +0.000 OA
BRANCH  20  22
ATOM     22  O   UNL     1      43.923   5.818  10.612  0.00  0.00    +0.000 OA
ATOM     23  H   UNL     1      43.381   5.221  10.061  0.00  0.00    +0.000 HD
ENDBRANCH  20  22
ENDBRANCH   5  20
TORSDOF 4
ENDMDL
MODEL 4
REMARK VINA RESULT:    -6.044      4.733      6.329
REMARK INTER + INTRA:          -7.841
REMARK INTER:                  -7.262
REMARK INTRA:                  -0.579
REMARK UNBOUND:                -0.560
REMARK  Name = 
REMARK  5 active torsions:
REMARK  status: ('A' for Active; 'I' for Inactive)
REMARK    1  A    between atoms: C_1  and  C_2
REMARK    2  A    between atoms: C_2  and  N_3
REMARK    3  A    between atoms: C_2  and  C_14
REMARK    4  A    between atoms: C_7  and  C_8
REMARK    5  A    between atoms: C_8  and  O_10
REMARK                            x       y       z     vdW  Elec       q    Type
REMARK                         _______ _______ _______ _____ _____    ______ ____
ROOT
ATOM      1  N   UNL     1      48.208   6.951  14.956  0.00  0.00    +0.000 N 
ATOM      2  C   UNL     1      48.464   6.269  16.151  0.00  0.00    +0.000 A 
ATOM      3  C   UNL     1      48.490   7.010  17.326  0.00  0.00    +0.000 A 
ATOM      4  C   UNL     1      48.721   6.368  18.544  0.00  0.00    +0.000 A 
ATOM      5  C   UNL     1      48.927   4.985  18.582  0.00  0.00    +0.000 A 
ATOM      6  C   UNL     1      48.903   4.338  17.357  0.00  0.00    +0.000 A 
ATOM      7 CL   UNL     1      49.114   2.640  17.144  0.00  0.00    +0.000 Cl
ATOM      8  N   UNL     1      48.688   4.945  16.161  0.00  0.00    +0.000 NA
ATOM      9  H   UNL     1      47.356   7.494  15.079  0.00  0.00    +0.000 HD
ENDROOT
BRANCH   1  11
ATOM     10  C   UNL     1      48.962   6.874  12.617  0.00  0.00    +0.000 C 
ATOM     11  C   UNL     1      48.168   6.167  13.716  0.00  0.00    +0.000 C 
BRANCH  11  12
ATOM     12  C   UNL     1      46.706   6.007  13.312  0.00  0.00    +0.000 A 
ATOM     13  C   UNL     1      45.988   7.110  12.819  0.00  0.00    +0.000 A 
ATOM     14  C   UNL     1      44.668   6.965  12.379  0.00  0.00    +0.000 A 
ATOM     15  C   UNL     1      44.053   5.715  12.428  0.00  0.00    +0.000 A 
ATOM     16 CL   UNL     1      42.444   5.540  11.844  0.00  0.00    +0.000 Cl
ATOM     17  C   UNL     1      44.750   4.621  12.932  0.00  0.00    +0.000 A 
ATOM     18  F   UNL     1      44.180   3.408  12.983  0.00  0.00    +0.000 F 
ATOM     19  C   UNL     1      46.063   4.758  13.376  0.00  0.00    +0.000 A 
ENDBRANCH  11  12
ENDBRANCH   1  11
BRANCH   5  20
ATOM     20  C   UNL     1      49.141   4.374  19.918  0.00  0.00    +0.000 C 
ATOM     21  O   UNL     1      50.048   4.757  20.647  0.00  0.00    +0.000 OA
BRANCH  20  22
ATOM     22  O   UNL     1      48.302   3.397  20.312  0.00  0.00    +0.000 OA
ATOM     23  H   UNL     1      47.979   3.424  21.233  0.00  0.00    +0.000 HD
ENDBRANCH  20  22
ENDBRANCH   5  20
TORSDOF 4
ENDMDL
MODEL 5
REMARK VINA RESULT:    -5.562      4.612      6.866
REMARK INTER + INTRA:          -7.260
REMARK INTER:                  -6.686
REMARK INTRA:                  -0.575
REMARK UNBOUND:                -0.560
REMARK  Name = 
REMARK  5 active torsions:
REMARK  status: ('A' for Active; 'I' for Inactive)
REMARK    1  A    between atoms: C_1  and  C_2
REMARK    2  A    between atoms: C_2  and  N_3
REMARK    3  A    between atoms: C_2  and  C_14
REMARK    4  A    between atoms: C_7  and  C_8
REMARK    5  A    between atoms: C_8  and  O_10
REMARK                            x       y       z     vdW  Elec       q    Type
REMARK                         _______ _______ _______ _____ _____    ______ ____
ROOT
ATOM      1  N   UNL     1      47.101   8.130  12.124  0.00  0.00    +0.000 N 
ATOM      2  C   UNL     1      46.452   6.890  12.104  0.00  0.00    +0.000 A 
ATOM      3  C   UNL     1      45.336   6.757  11.285  0.00  0.00    +0.000 A 
ATOM      4  C   UNL     1      44.670   5.533  11.218  0.00  0.00    +0.000 A 
ATOM      5  C   UNL     1      45.120   4.444  11.972  0.00  0.00    +0.000 A 
ATOM      6  C   UNL     1      46.226   4.682  12.773  0.00  0.00    +0.000 A 
ATOM      7 CL   UNL     1      46.975   3.500  13.780  0.00  0.00    +0.000 Cl
ATOM      8  N   UNL     1      46.883   5.867  12.859  0.00  0.00    +0.000 NA
ATOM      9  H   UNL     1      47.305   8.394  11.163  0.00  0.00    +0.000 HD
ENDROOT
BRANCH   1  11
ATOM     10  C   UNL     1      48.070   9.380  14.007  0.00  0.00    +0.000 C 
ATOM     11  C   UNL     1      48.285   8.267  12.980  0.00  0.00    +0.000 C 
BRANCH  11  12
ATOM     12  C   UNL     1      49.477   8.582  12.080  0.00  0.00    +0.000 A 
ATOM     13  C   UNL     1      49.816   9.918  11.805  0.00  0.00    +0.000 A 
ATOM     14  C   UNL     1      50.946  10.225  11.039  0.00  0.00    +0.000 A 
ATOM     15  C   UNL     1      51.747   9.198  10.542  0.00  0.00    +0.000 A 
ATOM     16 CL   UNL     1      53.158   9.589   9.637  0.00  0.00    +0.000 Cl
ATOM     17  C   UNL     1      51.408   7.872  10.794  0.00  0.00    +0.000 A 
ATOM     18  F   UNL     1      52.168   6.869  10.329  0.00  0.00    +0.000 F 
ATOM     19  C   UNL     1      50.282   7.559  11.551  0.00  0.00    +0.000 A 
ENDBRANCH  11  12
ENDBRANCH   1  11
BRANCH   5  20
ATOM     20  C   UNL     1      44.372   3.170  11.827  0.00  0.00    +0.000 C 
ATOM     21  O   UNL     1      43.637   2.766  12.719  0.00  0.00    +0.000 OA
BRANCH  20  22
ATOM     22  O   UNL     1      44.512   2.478  10.681  0.00  0.00    +0.000 OA
ATOM     23  H   UNL     1      43.861   1.774  10.495  0.00  0.00    +0.000 HD
ENDBRANCH  20  22
ENDBRANCH   5  20
TORSDOF 4
ENDMDL
MODEL 6
REMARK VINA RESULT:    -5.315      4.499      6.955
REMARK INTER + INTRA:          -6.962
REMARK INTER:                  -6.397
REMARK INTRA:                  -0.566
REMARK UNBOUND:                -0.560
REMARK  Name = 
REMARK  5 active torsions:
REMARK  status: ('A' for Active; 'I' for Inactive)
REMARK    1  A    between atoms: C_1  and  C_2
REMARK    2  A    between atoms: C_2  and  N_3
REMARK    3  A    between atoms: C_2  and  C_14
REMARK    4  A    between atoms: C_7  and  C_8
REMARK    5  A    between atoms: C_8  and  O_10
REMARK                            x       y       z     vdW  Elec       q    Type
REMARK                         _______ _______ _______ _____ _____    ______ ____
ROOT
ATOM      1  N   UNL     1      47.333   8.109  13.232  0.00  0.00    +0.000 N 
ATOM      2  C   UNL     1      46.419   7.216  12.664  0.00  0.00    +0.000 A 
ATOM      3  C   UNL     1      45.374   7.747  11.915  0.00  0.00    +0.000 A 
ATOM      4  C   UNL     1      44.450   6.892  11.312  0.00  0.00    +0.000 A 
ATOM      5  C   UNL     1      44.572   5.507  11.461  0.00  0.00    +0.000 A 
ATOM      6  C   UNL     1      45.633   5.075  12.242  0.00  0.00    +0.000 A 
ATOM      7 CL   UNL     1      46.002   3.422  12.562  0.00  0.00    +0.000 Cl
ATOM      8  N   UNL     1      46.537   5.890  12.844  0.00  0.00    +0.000 NA
ATOM      9  H   UNL     1      47.672   8.725  12.496  0.00  0.00    +0.000 HD
ENDROOT
BRANCH   1  11
ATOM     10  C   UNL     1      48.441   8.129  15.427  0.00  0.00    +0.000 C 
ATOM     11  C   UNL     1      48.442   7.547  14.012  0.00  0.00    +0.000 C 
BRANCH  11  12
ATOM     12  C   UNL     1      49.741   7.886  13.287  0.00  0.00    +0.000 A 
ATOM     13  C   UNL     1      50.803   8.483  13.988  0.00  0.00    +0.000 A 
ATOM     14  C   UNL     1      52.024   8.737  13.354  0.00  0.00    +0.000 A 
ATOM     15  C   UNL     1      52.196   8.393  12.014  0.00  0.00    +0.000 A 
ATOM     16 CL   UNL     1      53.716   8.670  11.257  0.00  0.00    +0.000 Cl
ATOM     17  C   UNL     1      51.144   7.817  11.307  0.00  0.00    +0.000 A 
ATOM     18  F   UNL     1      51.288   7.475  10.019  0.00  0.00    +0.000 F 
ATOM     19  C   UNL     1      49.923   7.567  11.930  0.00  0.00    +0.000 A 
ENDBRANCH  11  12
ENDBRANCH   1  11
BRANCH   5  20
ATOM     20  C   UNL     1      43.564   4.665  10.769  0.00  0.00    +0.000 C 
ATOM     21  O   UNL     1      42.790   3.960  11.404  0.00  0.00    +0.000 OA
BRANCH  20  22
ATOM     22  O   UNL     1      43.515   4.708   9.424  0.00  0.00    +0.000 OA
ATOM     23  H   UNL     1      42.654   4.535   8.998  0.00  0.00    +0.000 HD
ENDBRANCH  20  22
ENDBRANCH   5  20
TORSDOF 4
ENDMDL
MODEL 7
REMARK VINA RESULT:    -5.306      2.969      3.810
REMARK INTER + INTRA:          -6.952
REMARK INTER:                  -6.442
REMARK INTRA:                  -0.510
REMARK UNBOUND:                -0.560
REMARK  Name = 
REMARK  5 active torsions:
REMARK  status: ('A' for Active; 'I' for Inactive)
REMARK    1  A    between atoms: C_1  and  C_2
REMARK    2  A    between atoms: C_2  and  N_3
REMARK    3  A    between atoms: C_2  and  C_14
REMARK    4  A    between atoms: C_7  and  C_8
REMARK    5  A    between atoms: C_8  and  O_10
REMARK                            x       y       z     vdW  Elec       q    Type
REMARK                         _______ _______ _______ _____ _____    ______ ____
ROOT
ATOM      1  N   UNL     1      46.372   6.909  12.850  0.00  0.00    +0.000 N 
ATOM      2  C   UNL     1      47.683   7.299  13.145  0.00  0.00    +0.000 A 
ATOM      3  C   UNL     1      48.156   7.057  14.430  0.00  0.00    +0.000 A 
ATOM      4  C   UNL     1      49.465   7.410  14.762  0.00  0.00    +0.000 A 
ATOM      5  C   UNL     1      50.297   8.007  13.808  0.00  0.00    +0.000 A 
ATOM      6  C   UNL     1      49.727   8.225  12.564  0.00  0.00    +0.000 A 
ATOM      7 CL   UNL     1      50.550   8.930  11.223  0.00  0.00    +0.000 Cl
ATOM      8  N   UNL     1      48.454   7.897  12.223  0.00  0.00    +0.000 NA
ATOM      9  H   UNL     1      46.267   5.931  13.113  0.00  0.00    +0.000 HD
ENDROOT
BRANCH   1  11
ATOM     10  C   UNL     1      44.698   8.129  11.525  0.00  0.00    +0.000 C 
ATOM     11  C   UNL     1      45.876   7.153  11.491  0.00  0.00    +0.000 C 
BRANCH  11  12
ATOM     12  C   UNL     1      45.451   5.811  10.901  0.00  0.00    +0.000 A 
ATOM     13  C   UNL     1      45.745   5.509   9.560  0.00  0.00    +0.000 A 
ATOM     14  C   UNL     1      45.424   4.257   9.024  0.00  0.00    +0.000 A 
ATOM     15  C   UNL     1      44.809   3.295   9.824  0.00  0.00    +0.000 A 
ATOM     16 CL   UNL     1      44.459   1.745   9.166  0.00  0.00    +0.000 Cl
ATOM     17  C   UNL     1      44.499   3.593  11.148  0.00  0.00    +0.000 A 
ATOM     18  F   UNL     1      43.911   2.681  11.937  0.00  0.00    +0.000 F 
ATOM     19  C   UNL     1      44.810   4.839  11.687  0.00  0.00    +0.000 A 
ENDBRANCH  11  12
ENDBRANCH   1  11
BRANCH   5  20
ATOM     20  C   UNL     1      51.682   8.330  14.233  0.00  0.00    +0.000 C 
ATOM     21  O   UNL     1      52.106   9.478  14.177  0.00  0.00    +0.000 OA
BRANCH  20  22
ATOM     22  O   UNL     1      52.455   7.330  14.695  0.00  0.00    +0.000 OA
ATOM     23  H   UNL     1      52.817   6.700  14.042  0.00  0.00    +0.000 HD
ENDBRANCH  20  22
ENDBRANCH   5  20
TORSDOF 4
ENDMDL
MODEL 8
REMARK VINA RESULT:    -5.213      4.888      8.194
REMARK INTER + INTRA:          -6.839
REMARK INTER:                  -6.400
REMARK INTRA:                  -0.439
REMARK UNBOUND:                -0.560
REMARK  Name = 
REMARK  5 active torsions:
REMARK  status: ('A' for Active; 'I' for Inactive)
REMARK    1  A    between atoms: C_1  and  C_2
REMARK    2  A    between atoms: C_2  and  N_3
REMARK    3  A    between atoms: C_2  and  C_14
REMARK    4  A    between atoms: C_7  and  C_8
REMARK    5  A    between atoms: C_8  and  O_10
REMARK                            x       y       z     vdW  Elec       q    Type
REMARK                         _______ _______ _______ _____ _____    ______ ____
ROOT
ATOM      1  N   UNL     1      47.959   5.728  14.420  0.00  0.00    +0.000 N 
ATOM      2  C   UNL     1      46.896   5.423  13.562  0.00  0.00    +0.000 A 
ATOM      3  C   UNL     1      46.550   4.085  13.411  0.00  0.00    +0.000 A 
ATOM      4  C   UNL     1      45.483   3.736  12.582  0.00  0.00    +0.000 A 
ATOM      5  C   UNL     1      44.766   4.727  11.902  0.00  0.00    +0.000 A 
ATOM      6  C   UNL     1      45.201   6.028  12.100  0.00  0.00    +0.000 A 
ATOM      7 CL   UNL     1      44.474   7.419  11.388  0.00  0.00    +0.000 Cl
ATOM      8  N   UNL     1      46.241   6.388  12.896  0.00  0.00    +0.000 NA
ATOM      9  H   UNL     1      47.778   5.283  15.317  0.00  0.00    +0.000 HD
ENDROOT
BRANCH   1  11
ATOM     10  C   UNL     1      49.540   7.482  13.735  0.00  0.00    +0.000 C 
ATOM     11  C   UNL     1      48.317   7.142  14.588  0.00  0.00    +0.000 C 
BRANCH  11  12
ATOM     12  C   UNL     1      48.604   7.377  16.068  0.00  0.00    +0.000 A 
ATOM     13  C   UNL     1      48.564   8.681  16.593  0.00  0.00    +0.000 A 
ATOM     14  C   UNL     1      48.756   8.907  17.960  0.00  0.00    +0.000 A 
ATOM     15  C   UNL     1      48.989   7.831  18.815  0.00  0.00    +0.000 A 
ATOM     16 CL   UNL     1      49.181   8.116  20.501  0.00  0.00    +0.000 Cl
ATOM     17  C   UNL     1      49.048   6.538  18.301  0.00  0.00    +0.000 A 
ATOM     18  F   UNL     1      49.267   5.488  19.107  0.00  0.00    +0.000 F 
ATOM     19  C   UNL     1      48.863   6.306  16.941  0.00  0.00    +0.000 A 
ENDBRANCH  11  12
ENDBRANCH   1  11
BRANCH   5  20
ATOM     20  C   UNL     1      43.630   4.276  11.059  0.00  0.00    +0.000 C 
ATOM     21  O   UNL     1      43.503   4.678   9.910  0.00  0.00    +0.000 OA
BRANCH  20  22
ATOM     22  O   UNL     1      42.753   3.403  11.588  0.00  0.00    +0.000 OA
ATOM     23  H   UNL     1      42.382   2.721  10.997  0.00  0.00    +0.000 HD
ENDBRANCH  20  22
ENDBRANCH   5  20
TORSDOF 4
ENDMDL
MODEL 9
REMARK VINA RESULT:    -4.986      4.743      8.138
REMARK INTER + INTRA:          -6.566
REMARK INTER:                  -6.475
REMARK INTRA:                  -0.091
REMARK UNBOUND:                -0.560
REMARK  Name = 
REMARK  5 active torsions:
REMARK  status: ('A' for Active; 'I' for Inactive)
REMARK    1  A    between atoms: C_1  and  C_2
REMARK    2  A    between atoms: C_2  and  N_3
REMARK    3  A    between atoms: C_2  and  C_14
REMARK    4  A    between atoms: C_7  and  C_8
REMARK    5  A    between atoms: C_8  and  O_10
REMARK                            x       y       z     vdW  Elec       q    Type
REMARK                         _______ _______ _______ _____ _____    ______ ____
ROOT
ATOM      1  N   UNL     1      47.148   7.021  13.576  0.00  0.00    +0.000 N 
ATOM      2  C   UNL     1      46.398   6.078  12.863  0.00  0.00    +0.000 A 
ATOM      3  C   UNL     1      45.652   5.159  13.593  0.00  0.00    +0.000 A 
ATOM      4  C   UNL     1      44.873   4.214  12.924  0.00  0.00    +0.000 A 
ATOM      5  C   UNL     1      44.844   4.189  11.526  0.00  0.00    +0.000 A 
ATOM      6  C   UNL     1      45.636   5.131  10.889  0.00  0.00    +0.000 A 
ATOM      7 CL   UNL     1      45.757   5.310   9.179  0.00  0.00    +0.000 Cl
ATOM      8  N   UNL     1      46.407   6.053  11.521  0.00  0.00    +0.000 NA
ATOM      9  H   UNL     1      46.528   7.480  14.239  0.00  0.00    +0.000 HD
ENDROOT
BRANCH   1  11
ATOM     10  C   UNL     1      49.170   7.336  12.214  0.00  0.00    +0.000 C 
ATOM     11  C   UNL     1      47.925   7.999  12.805  0.00  0.00    +0.000 C 
BRANCH  11  12
ATOM     12  C   UNL     1      48.311   9.135  13.748  0.00  0.00    +0.000 A 
ATOM     13  C   UNL     1      48.292   8.932  15.138  0.00  0.00    +0.000 A 
ATOM     14  C   UNL     1      48.708   9.941  16.014  0.00  0.00    +0.000 A 
ATOM     15  C   UNL     1      49.149  11.162  15.506  0.00  0.00    +0.000 A 
ATOM     16 CL   UNL     1      49.700  12.380  16.589  0.00  0.00    +0.000 Cl
ATOM     17  C   UNL     1      49.155  11.378  14.131  0.00  0.00    +0.000 A 
ATOM     18  F   UNL     1      49.579  12.543  13.620  0.00  0.00    +0.000 F 
ATOM     19  C   UNL     1      48.736  10.380  13.254  0.00  0.00    +0.000 A 
ENDBRANCH  11  12
ENDBRANCH   1  11
BRANCH   5  20
ATOM     20  C   UNL     1      43.971   3.169  10.890  0.00  0.00    +0.000 C 
ATOM     21  O   UNL     1      44.341   2.557   9.897  0.00  0.00    +0.000 OA
BRANCH  20  22
ATOM     22  O   UNL     1      42.769   2.926  11.445  0.00  0.00    +0.000 OA
ATOM     23  H   UNL     1      42.586   3.321  12.319  0.00  0.00    +0.000 HD
ENDBRANCH  20  22
ENDBRANCH   5  20
TORSDOF 4
ENDMDL
