MODEL 1
REMARK VINA RESULT:    -8.108      0.000      0.000
REMARK INTER + INTRA:         -12.211
REMARK INTER:                 -11.425
REMARK INTRA:                  -0.785
REMARK UNBOUND:                -0.785
REMARK  Name = 
REMARK  7 active torsions:
REMARK  status: ('A' for Active; 'I' for Inactive)
REMARK    1  A    between atoms: C_2  and  C_20
REMARK    2  A    between atoms: N_3  and  C_4
REMARK    3  A    between atoms: C_4  and  C_5
REMARK    4  A    between atoms: C_8  and  N_9
REMARK    5  A    between atoms: N_9  and  C_10
REMARK    6  A    between atoms: C_10  and  C_11
REMARK    7  A    between atoms: C_11  and  C_12
REMARK                            x       y       z     vdW  Elec       q    Type
REMARK                         _______ _______ _______ _____ _____    ______ ____
ROOT
ATOM      1  C   UNL     1      46.981   6.121  13.339  0.00  0.00    +0.000 A 
ATOM      2  C   UNL     1      46.849   6.808  12.129  0.00  0.00    +0.000 A 
ATOM      3  C   UNL     1      45.842   6.464  11.225  0.00  0.00    +0.000 A 
ATOM      4  C   UNL     1      44.964   5.411  11.497  0.00  0.00    +0.000 A 
ATOM      5  C   UNL     1      45.028   4.806  12.756  0.00  0.00    +0.000 A 
ATOM      6  C   UNL     1      46.034   5.144  13.666  0.00  0.00    +0.000 A 
ENDROOT
BRANCH   4   7
ATOM      7  N   UNL     1      43.979   4.966  10.603  0.00  0.00    +0.000 N 
ATOM      8  H   UNL     1      43.714   5.731   9.982  0.00  0.00    +0.000 HD
BRANCH   7   9
ATOM      9  C   UNL     1      44.220   3.721   9.866  0.00  0.00    +0.000 C 
BRANCH   9  10
ATOM     10  C   UNL     1      44.679   4.003   8.426  0.00  0.00    +0.000 C 
BRANCH  10  11
ATOM     11  C   UNL     1      45.689   3.003   7.941  0.00  0.00    +0.000 A 
ATOM     12  C   UNL     1      46.664   3.349   7.004  0.00  0.00    +0.000 A 
ATOM     13  C   UNL     1      47.582   2.392   6.583  0.00  0.00    +0.000 A 
ATOM     14  C   UNL     1      47.497   1.118   7.119  0.00  0.00    +0.000 A 
ATOM     15  N   UNL     1      46.573   0.748   8.032  0.00  0.00    +0.000 NA
ATOM     16  C   UNL     1      45.689   1.695   8.417  0.00  0.00    +0.000 A 
ENDBRANCH  10  11
ENDBRANCH   9  10
ENDBRANCH   7   9
ENDBRANCH   4   7
BRANCH   1  17
ATOM     17  C   UNL     1      48.107   6.452  14.275  0.00  0.00    +0.000 C 
BRANCH  17  20
ATOM     18  O   UNL     1      50.090   6.199  16.202  0.00  0.00    +0.000 OA
ATOM     19  C   UNL     1      49.003   5.670  16.410  0.00  0.00    +0.000 C 
ATOM     20  N   UNL     1      47.959   5.758  15.525  0.00  0.00    +0.000 N 
ATOM     21  H   UNL     1      47.040   5.435  15.802  0.00  0.00    +0.000 HD
BRANCH  19  22
ATOM     22  C   UNL     1      48.722   4.897  17.611  0.00  0.00    +0.000 A 
ATOM     23  C   UNL     1      48.547   3.520  17.694  0.00  0.00    +0.000 A 
ATOM     24  N   UNL     1      48.411   3.183  19.017  0.00  0.00    +0.000 N 
ATOM     25  C   UNL     1      48.487   4.305  19.791  0.00  0.00    +0.000 A 
ATOM     26  N   UNL     1      48.430   4.303  21.136  0.00  0.00    +0.000 NA
ATOM     27  C   UNL     1      48.519   5.546  21.664  0.00  0.00    +0.000 A 
ATOM     28  C   UNL     1      48.618   6.729  20.945  0.00  0.00    +0.000 A 
ATOM     29  C   UNL     1      48.675   6.669  19.552  0.00  0.00    +0.000 A 
ATOM     30  C   UNL     1      48.631   5.401  18.947  0.00  0.00    +0.000 A 
ATOM     31  H   UNL     1      48.303   2.254  19.395  0.00  0.00    +0.000 HD
ENDBRANCH  19  22
ENDBRANCH  17  20
ENDBRANCH   1  17
TORSDOF 7
ENDMDL
MODEL 2
REMARK VINA RESULT:    -8.060      1.652      2.432
REMARK INTER + INTRA:         -12.144
REMARK INTER:                 -10.981
REMARK INTRA:                  -1.163
REMARK UNBOUND:                -0.785
REMARK  Name = 
REMARK  7 active torsions:
REMARK  status: ('A' for Active; 'I' for Inactive)
REMARK    1  A    between atoms: C_2  and  C_20
REMARK    2  A    between atoms: N_3  and  C_4
REMARK    3  A    between atoms: C_4  and  C_5
REMARK    4  A    between atoms: C_8  and  N_9
REMARK    5  A    between atoms: N_9  and  C_10
REMARK    6  A    between atoms: C_10  and  C_11
REMARK    7  A    between atoms: C_11  and  C_12
REMARK                            x       y       z     vdW  Elec       q    Type
REMARK                         _______ _______ _______ _____ _____    ______ ____
ROOT
ATOM      1  C   UNL     1      46.094   6.586  12.441  0.00  0.00    +0.000 A 
ATOM      2  C   UNL     1      46.073   6.490  11.047  0.00  0.00    +0.000 A 
ATOM      3  C   UNL     1      45.390   5.446  10.420  0.00  0.00    +0.000 A 
ATOM      4  C   UNL     1      44.739   4.463  11.170  0.00  0.00    +0.000 A 
ATOM      5  C   UNL     1      44.666   4.630  12.556  0.00  0.00    +0.000 A 
ATOM      6  C   UNL     1      45.348   5.671  13.192  0.00  0.00    +0.000 A 
ENDROOT
BRANCH   4   7
ATOM      7  N   UNL     1      44.098   3.350  10.607  0.00  0.00    +0.000 N 
ATOM      8  H   UNL     1      43.094   3.410  10.783  0.00  0.00    +0.000 HD
BRANCH   7   9
ATOM      9  C   UNL     1      44.388   3.013   9.209  0.00  0.00    +0.000 C 
BRANCH   9  10
ATOM     10  C   UNL     1      45.544   2.005   9.105  0.00  0.00    +0.000 C 
BRANCH  10  11
ATOM     11  C   UNL     1      46.288   2.120   7.805  0.00  0.00    +0.000 A 
ATOM     12  C   UNL     1      46.189   3.262   7.009  0.00  0.00    +0.000 A 
ATOM     13  C   UNL     1      46.898   3.329   5.813  0.00  0.00    +0.000 A 
ATOM     14  C   UNL     1      47.689   2.249   5.456  0.00  0.00    +0.000 A 
ATOM     15  N   UNL     1      47.815   1.132   6.203  0.00  0.00    +0.000 NA
ATOM     16  C   UNL     1      47.111   1.091   7.356  0.00  0.00    +0.000 A 
ENDBRANCH  10  11
ENDBRANCH   9  10
ENDBRANCH   7   9
ENDBRANCH   4   7
BRANCH   1  17
ATOM     17  C   UNL     1      46.886   7.672  13.110  0.00  0.00    +0.000 C 
BRANCH  17  20
ATOM     18  O   UNL     1      49.474   6.789  13.592  0.00  0.00    +0.000 OA
ATOM     19  C   UNL     1      48.677   6.799  14.525  0.00  0.00    +0.000 C 
ATOM     20  N   UNL     1      47.385   7.236  14.386  0.00  0.00    +0.000 N 
ATOM     21  H   UNL     1      46.809   7.365  15.208  0.00  0.00    +0.000 HD
BRANCH  19  22
ATOM     22  C   UNL     1      49.027   6.343  15.862  0.00  0.00    +0.000 A 
ATOM     23  C   UNL     1      49.858   6.988  16.772  0.00  0.00    +0.000 A 
ATOM     24  N   UNL     1      49.837   6.283  17.949  0.00  0.00    +0.000 N 
ATOM     25  C   UNL     1      49.021   5.195  17.822  0.00  0.00    +0.000 A 
ATOM     26  N   UNL     1      48.758   4.326  18.815  0.00  0.00    +0.000 NA
ATOM     27  C   UNL     1      47.925   3.330  18.432  0.00  0.00    +0.000 A 
ATOM     28  C   UNL     1      47.404   3.154  17.157  0.00  0.00    +0.000 A 
ATOM     29  C   UNL     1      47.710   4.089  16.168  0.00  0.00    +0.000 A 
ATOM     30  C   UNL     1      48.536   5.171  16.520  0.00  0.00    +0.000 A 
ATOM     31  H   UNL     1      50.315   6.522  18.805  0.00  0.00    +0.000 HD
ENDBRANCH  19  22
ENDBRANCH  17  20
ENDBRANCH   1  17
TORSDOF 7
ENDMDL
MODEL 3
REMARK VINA RESULT:    -7.734      1.798      2.286
REMARK INTER + INTRA:         -11.684
REMARK INTER:                 -10.858
REMARK INTRA:                  -0.826
REMARK UNBOUND:                -0.785
REMARK  Name = 
REMARK  7 active torsions:
REMARK  status: ('A' for Active; 'I' for Inactive)
REMARK    1  A    between atoms: C_2  and  C_20
REMARK    2  A    between atoms: N_3  and  C_4
REMARK    3  A    between atoms: C_4  and  C_5
REMARK    4  A    between atoms: C_8  and  N_9
REMARK    5  A    between atoms: N_9  and  C_10
REMARK    6  A    between atoms: C_10  and  C_11
REMARK    7  A    between atoms: C_11  and  C_12
REMARK                            x       y       z     vdW  Elec       q    Type
REMARK                         _______ _______ _______ _____ _____    ______ ____
ROOT
ATOM      1  C   UNL     1      46.252   4.147  13.226  0.00  0.00    +0.000 A 
ATOM      2  C   UNL     1      46.264   5.442  12.702  0.00  0.00    +0.000 A 
ATOM      3  C   UNL     1      45.568   5.737  11.528  0.00  0.00    +0.000 A 
ATOM      4  C   UNL     1      44.870   4.742  10.840  0.00  0.00    +0.000 A 
ATOM      5  C   UNL     1      44.766   3.478  11.431  0.00  0.00    +0.000 A 
ATOM      6  C   UNL     1      45.461   3.175  12.605  0.00  0.00    +0.000 A 
ENDROOT
BRANCH   4   7
ATOM      7  N   UNL     1      44.212   4.952   9.619  0.00  0.00    +0.000 N 
ATOM      8  H   UNL     1      44.298   5.933   9.351  0.00  0.00    +0.000 HD
BRANCH   7   9
ATOM      9  C   UNL     1      44.515   4.052   8.501  0.00  0.00    +0.000 C 
BRANCH   9  10
ATOM     10  C   UNL     1      45.964   4.228   8.018  0.00  0.00    +0.000 C 
BRANCH  10  11
ATOM     11  C   UNL     1      46.447   3.054   7.216  0.00  0.00    +0.000 A 
ATOM     12  C   UNL     1      46.728   3.169   5.854  0.00  0.00    +0.000 A 
ATOM     13  C   UNL     1      47.176   2.056   5.148  0.00  0.00    +0.000 A 
ATOM     14  C   UNL     1      47.333   0.863   5.833  0.00  0.00    +0.000 A 
ATOM     15  N   UNL     1      47.078   0.714   7.151  0.00  0.00    +0.000 NA
ATOM     16  C   UNL     1      46.638   1.809   7.810  0.00  0.00    +0.000 A 
ENDBRANCH  10  11
ENDBRANCH   9  10
ENDBRANCH   7   9
ENDBRANCH   4   7
BRANCH   1  17
ATOM     17  C   UNL     1      47.057   3.823  14.452  0.00  0.00    +0.000 C 
BRANCH  17  20
ATOM     18  O   UNL     1      48.748   3.931  16.652  0.00  0.00    +0.000 OA
ATOM     19  C   UNL     1      48.210   4.968  16.277  0.00  0.00    +0.000 C 
ATOM     20  N   UNL     1      47.376   5.014  15.189  0.00  0.00    +0.000 N 
ATOM     21  H   UNL     1      47.073   5.911  14.829  0.00  0.00    +0.000 HD
BRANCH  19  22
ATOM     22  C   UNL     1      48.403   6.242  16.954  0.00  0.00    +0.000 A 
ATOM     23  C   UNL     1      48.848   7.430  16.384  0.00  0.00    +0.000 A 
ATOM     24  N   UNL     1      48.786   8.414  17.337  0.00  0.00    +0.000 N 
ATOM     25  C   UNL     1      48.319   7.894  18.510  0.00  0.00    +0.000 A 
ATOM     26  N   UNL     1      48.104   8.614  19.626  0.00  0.00    +0.000 NA
ATOM     27  C   UNL     1      47.648   7.862  20.655  0.00  0.00    +0.000 A 
ATOM     28  C   UNL     1      47.444   6.489  20.628  0.00  0.00    +0.000 A 
ATOM     29  C   UNL     1      47.681   5.795  19.441  0.00  0.00    +0.000 A 
ATOM     30  C   UNL     1      48.115   6.531  18.325  0.00  0.00    +0.000 A 
ATOM     31  H   UNL     1      49.012   9.390  17.214  0.00  0.00    +0.000 HD
ENDBRANCH  19  22
ENDBRANCH  17  20
ENDBRANCH   1  17
TORSDOF 7
ENDMDL
MODEL 4
REMARK VINA RESULT:    -7.297      4.555     11.707
REMARK INTER + INTRA:         -11.068
REMARK INTER:                 -10.001
REMARK INTRA:                  -1.066
REMARK UNBOUND:                -0.785
REMARK  Name = 
REMARK  7 active torsions:
REMARK  status: ('A' for Active; 'I' for Inactive)
REMARK    1  A    between atoms: C_2  and  C_20
REMARK    2  A    between atoms: N_3  and  C_4
REMARK    3  A    between atoms: C_4  and  C_5
REMARK    4  A    between atoms: C_8  and  N_9
REMARK    5  A    between atoms: N_9  and  C_10
REMARK    6  A    between atoms: C_10  and  C_11
REMARK    7  A    between atoms: C_11  and  C_12
REMARK                            x       y       z     vdW  Elec       q    Type
REMARK                         _______ _______ _______ _____ _____    ______ ____
ROOT
ATOM      1  C   UNL     1      46.143   3.284   7.801  0.00  0.00    +0.000 A 
ATOM      2  C   UNL     1      45.529   2.176   8.392  0.00  0.00    +0.000 A 
ATOM      3  C   UNL     1      44.669   2.339   9.479  0.00  0.00    +0.000 A 
ATOM      4  C   UNL     1      44.425   3.606  10.016  0.00  0.00    +0.000 A 
ATOM      5  C   UNL     1      44.950   4.718   9.349  0.00  0.00    +0.000 A 
ATOM      6  C   UNL     1      45.813   4.563   8.261  0.00  0.00    +0.000 A 
ENDROOT
BRANCH   4   7
ATOM      7  N   UNL     1      43.632   3.833  11.150  0.00  0.00    +0.000 N 
ATOM      8  H   UNL     1      42.709   3.423  11.007  0.00  0.00    +0.000 HD
BRANCH   7   9
ATOM      9  C   UNL     1      44.184   3.490  12.466  0.00  0.00    +0.000 C 
BRANCH   9  10
ATOM     10  C   UNL     1      44.350   4.739  13.346  0.00  0.00    +0.000 C 
BRANCH  10  11
ATOM     11  C   UNL     1      45.635   5.466  13.072  0.00  0.00    +0.000 A 
ATOM     12  C   UNL     1      45.658   6.653  12.340  0.00  0.00    +0.000 A 
ATOM     13  C   UNL     1      46.871   7.296  12.110  0.00  0.00    +0.000 A 
ATOM     14  C   UNL     1      48.023   6.729  12.629  0.00  0.00    +0.000 A 
ATOM     15  N   UNL     1      48.041   5.586  13.347  0.00  0.00    +0.000 NA
ATOM     16  C   UNL     1      46.850   4.980  13.549  0.00  0.00    +0.000 A 
ENDBRANCH  10  11
ENDBRANCH   9  10
ENDBRANCH   7   9
ENDBRANCH   4   7
BRANCH   1  17
ATOM     17  C   UNL     1      47.118   3.094   6.676  0.00  0.00    +0.000 C 
BRANCH  17  20
ATOM     18  O   UNL     1      48.436   1.014   5.391  0.00  0.00    +0.000 OA
ATOM     19  C   UNL     1      47.288   1.280   5.046  0.00  0.00    +0.000 C 
ATOM     20  N   UNL     1      46.554   2.276   5.637  0.00  0.00    +0.000 N 
ATOM     21  H   UNL     1      45.568   2.364   5.424  0.00  0.00    +0.000 HD
BRANCH  19  22
ATOM     22  C   UNL     1      46.604   0.568   3.977  0.00  0.00    +0.000 A 
ATOM     23  C   UNL     1      45.986   1.129   2.865  0.00  0.00    +0.000 A 
ATOM     24  N   UNL     1      45.559   0.110   2.050  0.00  0.00    +0.000 N 
ATOM     25  C   UNL     1      45.878  -1.094   2.610  0.00  0.00    +0.000 A 
ATOM     26  N   UNL     1      45.631  -2.286   2.035  0.00  0.00    +0.000 NA
ATOM     27  C   UNL     1      46.037  -3.328   2.797  0.00  0.00    +0.000 A 
ATOM     28  C   UNL     1      46.614  -3.237   4.056  0.00  0.00    +0.000 A 
ATOM     29  C   UNL     1      46.849  -1.974   4.601  0.00  0.00    +0.000 A 
ATOM     30  C   UNL     1      46.488  -0.851   3.836  0.00  0.00    +0.000 A 
ATOM     31  H   UNL     1      45.104   0.203   1.155  0.00  0.00    +0.000 HD
ENDBRANCH  19  22
ENDBRANCH  17  20
ENDBRANCH   1  17
TORSDOF 7
ENDMDL
MODEL 5
REMARK VINA RESULT:    -7.207      2.307      8.888
REMARK INTER + INTRA:         -10.942
REMARK INTER:                  -9.536
REMARK INTRA:                  -1.406
REMARK UNBOUND:                -0.785
REMARK  Name = 
REMARK  7 active torsions:
REMARK  status: ('A' for Active; 'I' for Inactive)
REMARK    1  A    between atoms: C_2  and  C_20
REMARK    2  A    between atoms: N_3  and  C_4
REMARK    3  A    between atoms: C_4  and  C_5
REMARK    4  A    between atoms: C_8  and  N_9
REMARK    5  A    between atoms: N_9  and  C_10
REMARK    6  A    between atoms: C_10  and  C_11
REMARK    7  A    between atoms: C_11  and  C_12
REMARK                            x       y       z     vdW  Elec       q    Type
REMARK                         _______ _______ _______ _____ _____    ______ ____
ROOT
ATOM      1  C   UNL     1      48.086   7.897  13.646  0.00  0.00    +0.000 A 
ATOM      2  C   UNL     1      47.775   8.978  14.474  0.00  0.00    +0.000 A 
ATOM      3  C   UNL     1      48.179   8.985  15.811  0.00  0.00    +0.000 A 
ATOM      4  C   UNL     1      48.877   7.904  16.354  0.00  0.00    +0.000 A 
ATOM      5  C   UNL     1      49.286   6.881  15.492  0.00  0.00    +0.000 A 
ATOM      6  C   UNL     1      48.884   6.866  14.154  0.00  0.00    +0.000 A 
ENDROOT
BRANCH   4   7
ATOM      7  N   UNL     1      49.249   7.814  17.704  0.00  0.00    +0.000 N 
ATOM      8  H   UNL     1      49.734   8.668  17.980  0.00  0.00    +0.000 HD
BRANCH   7   9
ATOM      9  C   UNL     1      48.227   7.425  18.682  0.00  0.00    +0.000 C 
BRANCH   9  10
ATOM     10  C   UNL     1      48.582   6.093  19.362  0.00  0.00    +0.000 C 
BRANCH  10  11
ATOM     11  C   UNL     1      48.383   4.915  18.451  0.00  0.00    +0.000 A 
ATOM     12  C   UNL     1      49.429   4.043  18.150  0.00  0.00    +0.000 A 
ATOM     13  C   UNL     1      49.201   2.962  17.303  0.00  0.00    +0.000 A 
ATOM     14  C   UNL     1      47.927   2.787  16.789  0.00  0.00    +0.000 A 
ATOM     15  N   UNL     1      46.888   3.605  17.063  0.00  0.00    +0.000 NA
ATOM     16  C   UNL     1      47.139   4.650  17.883  0.00  0.00    +0.000 A 
ENDBRANCH  10  11
ENDBRANCH   9  10
ENDBRANCH   7   9
ENDBRANCH   4   7
BRANCH   1  17
ATOM     17  C   UNL     1      47.591   7.866  12.229  0.00  0.00    +0.000 C 
BRANCH  17  20
ATOM     18  O   UNL     1      44.941   7.095  12.543  0.00  0.00    +0.000 OA
ATOM     19  C   UNL     1      45.740   6.274  12.102  0.00  0.00    +0.000 C 
ATOM     20  N   UNL     1      47.063   6.571  11.896  0.00  0.00    +0.000 N 
ATOM     21  H   UNL     1      47.650   5.915  11.396  0.00  0.00    +0.000 HD
BRANCH  19  22
ATOM     22  C   UNL     1      45.359   4.911  11.764  0.00  0.00    +0.000 A 
ATOM     23  C   UNL     1      44.977   3.908  12.649  0.00  0.00    +0.000 A 
ATOM     24  N   UNL     1      44.596   2.812  11.918  0.00  0.00    +0.000 N 
ATOM     25  C   UNL     1      44.729   3.076  10.584  0.00  0.00    +0.000 A 
ATOM     26  N   UNL     1      44.397   2.214   9.605  0.00  0.00    +0.000 NA
ATOM     27  C   UNL     1      44.631   2.713   8.368  0.00  0.00    +0.000 A 
ATOM     28  C   UNL     1      45.188   3.952   8.085  0.00  0.00    +0.000 A 
ATOM     29  C   UNL     1      45.511   4.805   9.142  0.00  0.00    +0.000 A 
ATOM     30  C   UNL     1      45.248   4.358  10.449  0.00  0.00    +0.000 A 
ATOM     31  H   UNL     1      44.239   1.940  12.278  0.00  0.00    +0.000 HD
ENDBRANCH  19  22
ENDBRANCH  17  20
ENDBRANCH   1  17
TORSDOF 7
ENDMDL
MODEL 6
REMARK VINA RESULT:    -7.195      6.143      8.609
REMARK INTER + INTRA:         -10.925
REMARK INTER:                 -10.194
REMARK INTRA:                  -0.732
REMARK UNBOUND:                -0.785
REMARK  Name = 
REMARK  7 active torsions:
REMARK  status: ('A' for Active; 'I' for Inactive)
REMARK    1  A    between atoms: C_2  and  C_20
REMARK    2  A    between atoms: N_3  and  C_4
REMARK    3  A    between atoms: C_4  and  C_5
REMARK    4  A    between atoms: C_8  and  N_9
REMARK    5  A    between atoms: N_9  and  C_10
REMARK    6  A    between atoms: C_10  and  C_11
REMARK    7  A    between atoms: C_11  and  C_12
REMARK                            x       y       z     vdW  Elec       q    Type
REMARK                         _______ _______ _______ _____ _____    ______ ____
ROOT
ATOM      1  C   UNL     1      44.554   6.786  11.414  0.00  0.00    +0.000 A 
ATOM      2  C   UNL     1      43.364   6.118  11.715  0.00  0.00    +0.000 A 
ATOM      3  C   UNL     1      43.197   4.777  11.365  0.00  0.00    +0.000 A 
ATOM      4  C   UNL     1      44.200   4.083  10.685  0.00  0.00    +0.000 A 
ATOM      5  C   UNL     1      45.429   4.722  10.491  0.00  0.00    +0.000 A 
ATOM      6  C   UNL     1      45.605   6.064  10.837  0.00  0.00    +0.000 A 
ENDROOT
BRANCH   4   7
ATOM      7  N   UNL     1      44.070   2.760  10.240  0.00  0.00    +0.000 N 
ATOM      8  H   UNL     1      43.136   2.415  10.466  0.00  0.00    +0.000 HD
BRANCH   7   9
ATOM      9  C   UNL     1      44.445   2.451   8.855  0.00  0.00    +0.000 C 
BRANCH   9  10
ATOM     10  C   UNL     1      45.799   1.725   8.791  0.00  0.00    +0.000 C 
BRANCH  10  11
ATOM     11  C   UNL     1      46.499   1.936   7.480  0.00  0.00    +0.000 A 
ATOM     12  C   UNL     1      46.334   3.111   6.746  0.00  0.00    +0.000 A 
ATOM     13  C   UNL     1      47.003   3.267   5.536  0.00  0.00    +0.000 A 
ATOM     14  C   UNL     1      47.824   2.239   5.102  0.00  0.00    +0.000 A 
ATOM     15  N   UNL     1      48.015   1.091   5.787  0.00  0.00    +0.000 NA
ATOM     16  C   UNL     1      47.347   0.964   6.955  0.00  0.00    +0.000 A 
ENDBRANCH  10  11
ENDBRANCH   9  10
ENDBRANCH   7   9
ENDBRANCH   4   7
BRANCH   1  17
ATOM     17  C   UNL     1      44.701   8.245  11.733  0.00  0.00    +0.000 C 
BRANCH  17  20
ATOM     18  O   UNL     1      44.800  10.999  11.388  0.00  0.00    +0.000 OA
ATOM     19  C   UNL     1      43.836  10.388  10.936  0.00  0.00    +0.000 C 
ATOM     20  N   UNL     1      43.712   9.026  11.042  0.00  0.00    +0.000 N 
ATOM     21  H   UNL     1      42.980   8.550  10.530  0.00  0.00    +0.000 HD
BRANCH  19  22
ATOM     22  C   UNL     1      42.736  11.051  10.253  0.00  0.00    +0.000 A 
ATOM     23  C   UNL     1      42.800  11.746   9.050  0.00  0.00    +0.000 A 
ATOM     24  N   UNL     1      41.527  12.121   8.701  0.00  0.00    +0.000 N 
ATOM     25  C   UNL     1      40.643  11.694   9.651  0.00  0.00    +0.000 A 
ATOM     26  N   UNL     1      39.310  11.870   9.579  0.00  0.00    +0.000 NA
ATOM     27  C   UNL     1      38.657  11.363  10.650  0.00  0.00    +0.000 A 
ATOM     28  C   UNL     1      39.249  10.754  11.748  0.00  0.00    +0.000 A 
ATOM     29  C   UNL     1      40.636  10.596  11.766  0.00  0.00    +0.000 A 
ATOM     30  C   UNL     1      41.364  11.066  10.659  0.00  0.00    +0.000 A 
ATOM     31  H   UNL     1      41.249  12.611   7.864  0.00  0.00    +0.000 HD
ENDBRANCH  19  22
ENDBRANCH  17  20
ENDBRANCH   1  17
TORSDOF 7
ENDMDL
MODEL 7
REMARK VINA RESULT:    -7.159      4.833      6.292
REMARK INTER + INTRA:         -10.874
REMARK INTER:                  -9.980
REMARK INTRA:                  -0.894
REMARK UNBOUND:                -0.785
REMARK  Name = 
REMARK  7 active torsions:
REMARK  status: ('A' for Active; 'I' for Inactive)
REMARK    1  A    between atoms: C_2  and  C_20
REMARK    2  A    between atoms: N_3  and  C_4
REMARK    3  A    between atoms: C_4  and  C_5
REMARK    4  A    between atoms: C_8  and  N_9
REMARK    5  A    between atoms: N_9  and  C_10
REMARK    6  A    between atoms: C_10  and  C_11
REMARK    7  A    between atoms: C_11  and  C_12
REMARK                            x       y       z     vdW  Elec       q    Type
REMARK                         _______ _______ _______ _____ _____    ______ ____
ROOT
ATOM      1  C   UNL     1      45.271   6.025  12.228  0.00  0.00    +0.000 A 
ATOM      2  C   UNL     1      45.447   4.815  12.904  0.00  0.00    +0.000 A 
ATOM      3  C   UNL     1      45.121   3.605  12.287  0.00  0.00    +0.000 A 
ATOM      4  C   UNL     1      44.588   3.580  10.996  0.00  0.00    +0.000 A 
ATOM      5  C   UNL     1      44.525   4.783  10.284  0.00  0.00    +0.000 A 
ATOM      6  C   UNL     1      44.847   5.997  10.895  0.00  0.00    +0.000 A 
ENDROOT
BRANCH   4   7
ATOM      7  N   UNL     1      44.172   2.409  10.346  0.00  0.00    +0.000 N 
ATOM      8  H   UNL     1      43.177   2.260  10.519  0.00  0.00    +0.000 HD
BRANCH   7   9
ATOM      9  C   UNL     1      44.512   2.242   8.928  0.00  0.00    +0.000 C 
BRANCH   9  10
ATOM     10  C   UNL     1      45.885   1.573   8.758  0.00  0.00    +0.000 C 
BRANCH  10  11
ATOM     11  C   UNL     1      46.510   1.881   7.428  0.00  0.00    +0.000 A 
ATOM     12  C   UNL     1      46.269   3.089   6.772  0.00  0.00    +0.000 A 
ATOM     13  C   UNL     1      46.870   3.336   5.542  0.00  0.00    +0.000 A 
ATOM     14  C   UNL     1      47.701   2.364   5.010  0.00  0.00    +0.000 A 
ATOM     15  N   UNL     1      47.964   1.187   5.617  0.00  0.00    +0.000 NA
ATOM     16  C   UNL     1      47.362   0.971   6.806  0.00  0.00    +0.000 A 
ENDBRANCH  10  11
ENDBRANCH   9  10
ENDBRANCH   7   9
ENDBRANCH   4   7
BRANCH   1  17
ATOM     17  C   UNL     1      45.560   7.324  12.922  0.00  0.00    +0.000 C 
BRANCH  17  20
ATOM     18  O   UNL     1      47.488   8.934  14.107  0.00  0.00    +0.000 OA
ATOM     19  C   UNL     1      47.460   8.862  12.882  0.00  0.00    +0.000 C 
ATOM     20  N   UNL     1      46.556   8.078  12.211  0.00  0.00    +0.000 N 
ATOM     21  H   UNL     1      46.663   7.934  11.215  0.00  0.00    +0.000 HD
BRANCH  19  22
ATOM     22  C   UNL     1      48.376   9.605  12.030  0.00  0.00    +0.000 A 
ATOM     23  C   UNL     1      48.222  10.911  11.579  0.00  0.00    +0.000 A 
ATOM     24  N   UNL     1      49.357  11.266  10.895  0.00  0.00    +0.000 N 
ATOM     25  C   UNL     1      50.238  10.223  10.886  0.00  0.00    +0.000 A 
ATOM     26  N   UNL     1      51.463  10.270  10.329  0.00  0.00    +0.000 NA
ATOM     27  C   UNL     1      52.136   9.102  10.448  0.00  0.00    +0.000 A 
ATOM     28  C   UNL     1      51.650   7.941  11.032  0.00  0.00    +0.000 A 
ATOM     29  C   UNL     1      50.374   7.952  11.596  0.00  0.00    +0.000 A 
ATOM     30  C   UNL     1      49.643   9.152  11.542  0.00  0.00    +0.000 A 
ATOM     31  H   UNL     1      49.555  12.164  10.478  0.00  0.00    +0.000 HD
ENDBRANCH  19  22
ENDBRANCH  17  20
ENDBRANCH   1  17
TORSDOF 7
ENDMDL
MODEL 8
REMARK VINA RESULT:    -7.126      1.496      2.298
REMARK INTER + INTRA:         -10.828
REMARK INTER:                  -9.904
REMARK INTRA:                  -0.924
REMARK UNBOUND:                -0.785
REMARK  Name = 
REMARK  7 active torsions:
REMARK  status: ('A' for Active; 'I' for Inactive)
REMARK    1  A    between atoms: C_2  and  C_20
REMARK    2  A    between atoms: N_3  and  C_4
REMARK    3  A    between atoms: C_4  and  C_5
REMARK    4  A    between atoms: C_8  and  N_9
REMARK    5  A    between atoms: N_9  and  C_10
REMARK    6  A    between atoms: C_10  and  C_11
REMARK    7  A    between atoms: C_11  and  C_12
REMARK                            x       y       z     vdW  Elec       q    Type
REMARK                         _______ _______ _______ _____ _____    ______ ____
ROOT
ATOM      1  C   UNL     1      47.257   6.660  13.267  0.00  0.00    +0.000 A 
ATOM      2  C   UNL     1      47.140   5.344  13.723  0.00  0.00    +0.000 A 
ATOM      3  C   UNL     1      46.100   4.529  13.271  0.00  0.00    +0.000 A 
ATOM      4  C   UNL     1      45.143   5.017  12.378  0.00  0.00    +0.000 A 
ATOM      5  C   UNL     1      45.333   6.293  11.839  0.00  0.00    +0.000 A 
ATOM      6  C   UNL     1      46.370   7.116  12.287  0.00  0.00    +0.000 A 
ENDROOT
BRANCH   4   7
ATOM      7  N   UNL     1      44.034   4.277  11.942  0.00  0.00    +0.000 N 
ATOM      8  H   UNL     1      43.200   4.590  12.438  0.00  0.00    +0.000 HD
BRANCH   7   9
ATOM      9  C   UNL     1      43.801   4.160  10.498  0.00  0.00    +0.000 C 
BRANCH   9  10
ATOM     10  C   UNL     1      44.170   2.759   9.983  0.00  0.00    +0.000 C 
BRANCH  10  11
ATOM     11  C   UNL     1      45.186   2.805   8.879  0.00  0.00    +0.000 A 
ATOM     12  C   UNL     1      45.882   1.663   8.482  0.00  0.00    +0.000 A 
ATOM     13  C   UNL     1      46.815   1.749   7.452  0.00  0.00    +0.000 A 
ATOM     14  C   UNL     1      47.015   2.979   6.849  0.00  0.00    +0.000 A 
ATOM     15  N   UNL     1      46.357   4.104   7.200  0.00  0.00    +0.000 NA
ATOM     16  C   UNL     1      45.463   3.993   8.207  0.00  0.00    +0.000 A 
ENDBRANCH  10  11
ENDBRANCH   9  10
ENDBRANCH   7   9
ENDBRANCH   4   7
BRANCH   1  17
ATOM     17  C   UNL     1      48.338   7.551  13.808  0.00  0.00    +0.000 C 
BRANCH  17  20
ATOM     18  O   UNL     1      50.182   6.509  15.605  0.00  0.00    +0.000 OA
ATOM     19  C   UNL     1      49.200   7.096  16.050  0.00  0.00    +0.000 C 
ATOM     20  N   UNL     1      48.248   7.660  15.239  0.00  0.00    +0.000 N 
ATOM     21  H   UNL     1      47.538   8.257  15.643  0.00  0.00    +0.000 HD
BRANCH  19  22
ATOM     22  C   UNL     1      48.953   7.244  17.476  0.00  0.00    +0.000 A 
ATOM     23  C   UNL     1      48.652   8.421  18.152  0.00  0.00    +0.000 A 
ATOM     24  N   UNL     1      48.387   8.110  19.462  0.00  0.00    +0.000 N 
ATOM     25  C   UNL     1      48.516   6.763  19.653  0.00  0.00    +0.000 A 
ATOM     26  N   UNL     1      48.281   6.138  20.821  0.00  0.00    +0.000 NA
ATOM     27  C   UNL     1      48.489   4.802  20.749  0.00  0.00    +0.000 A 
ATOM     28  C   UNL     1      48.933   4.108  19.632  0.00  0.00    +0.000 A 
ATOM     29  C   UNL     1      49.157   4.810  18.447  0.00  0.00    +0.000 A 
ATOM     30  C   UNL     1      48.916   6.195  18.449  0.00  0.00    +0.000 A 
ATOM     31  H   UNL     1      48.106   8.749  20.190  0.00  0.00    +0.000 HD
ENDBRANCH  19  22
ENDBRANCH  17  20
ENDBRANCH   1  17
TORSDOF 7
ENDMDL
MODEL 9
REMARK VINA RESULT:    -6.893      2.184      3.203
REMARK INTER + INTRA:         -10.499
REMARK INTER:                  -9.352
REMARK INTRA:                  -1.148
REMARK UNBOUND:                -0.785
REMARK  Name = 
REMARK  7 active torsions:
REMARK  status: ('A' for Active; 'I' for Inactive)
REMARK    1  A    between atoms: C_2  and  C_20
REMARK    2  A    between atoms: N_3  and  C_4
REMARK    3  A    between atoms: C_4  and  C_5
REMARK    4  A    between atoms: C_8  and  N_9
REMARK    5  A    between atoms: N_9  and  C_10
REMARK    6  A    between atoms: C_10  and  C_11
REMARK    7  A    between atoms: C_11  and  C_12
REMARK                            x       y       z     vdW  Elec       q    Type
REMARK                         _______ _______ _______ _____ _____    ______ ____
ROOT
ATOM      1  C   UNL     1      47.672   7.455  12.584  0.00  0.00    +0.000 A 
ATOM      2  C   UNL     1      47.435   6.103  12.849  0.00  0.00    +0.000 A 
ATOM      3  C   UNL     1      46.141   5.585  12.780  0.00  0.00    +0.000 A 
ATOM      4  C   UNL     1      45.055   6.409  12.472  0.00  0.00    +0.000 A 
ATOM      5  C   UNL     1      45.314   7.730  12.095  0.00  0.00    +0.000 A 
ATOM      6  C   UNL     1      46.606   8.257  12.163  0.00  0.00    +0.000 A 
ENDROOT
BRANCH   4   7
ATOM      7  N   UNL     1      43.723   5.970  12.458  0.00  0.00    +0.000 N 
ATOM      8  H   UNL     1      43.119   6.705  12.828  0.00  0.00    +0.000 HD
BRANCH   7   9
ATOM      9  C   UNL     1      43.191   5.400  11.215  0.00  0.00    +0.000 C 
BRANCH   9  10
ATOM     10  C   UNL     1      43.547   3.910  11.086  0.00  0.00    +0.000 C 
BRANCH  10  11
ATOM     11  C   UNL     1      44.450   3.636   9.917  0.00  0.00    +0.000 A 
ATOM     12  C   UNL     1      44.754   2.333   9.521  0.00  0.00    +0.000 A 
ATOM     13  C   UNL     1      45.593   2.124   8.431  0.00  0.00    +0.000 A 
ATOM     14  C   UNL     1      46.097   3.231   7.768  0.00  0.00    +0.000 A 
ATOM     15  N   UNL     1      45.821   4.506   8.117  0.00  0.00    +0.000 NA
ATOM     16  C   UNL     1      45.009   4.679   9.183  0.00  0.00    +0.000 A 
ENDBRANCH  10  11
ENDBRANCH   9  10
ENDBRANCH   7   9
ENDBRANCH   4   7
BRANCH   1  17
ATOM     17  C   UNL     1      49.057   8.019  12.726  0.00  0.00    +0.000 C 
BRANCH  17  20
ATOM     18  O   UNL     1      49.666   8.920  15.281  0.00  0.00    +0.000 OA
ATOM     19  C   UNL     1      50.083   7.818  14.935  0.00  0.00    +0.000 C 
ATOM     20  N   UNL     1      49.815   7.284  13.701  0.00  0.00    +0.000 N 
ATOM     21  H   UNL     1      50.052   6.318  13.512  0.00  0.00    +0.000 HD
BRANCH  19  22
ATOM     22  C   UNL     1      50.902   6.982  15.799  0.00  0.00    +0.000 A 
ATOM     23  C   UNL     1      52.284   7.038  15.948  0.00  0.00    +0.000 A 
ATOM     24  N   UNL     1      52.646   6.157  16.935  0.00  0.00    +0.000 N 
ATOM     25  C   UNL     1      51.537   5.527  17.423  0.00  0.00    +0.000 A 
ATOM     26  N   UNL     1      51.556   4.633  18.429  0.00  0.00    +0.000 NA
ATOM     27  C   UNL     1      50.326   4.147  18.719  0.00  0.00    +0.000 A 
ATOM     28  C   UNL     1      49.149   4.471  18.058  0.00  0.00    +0.000 A 
ATOM     29  C   UNL     1      49.191   5.407  17.024  0.00  0.00    +0.000 A 
ATOM     30  C   UNL     1      50.435   5.978  16.707  0.00  0.00    +0.000 A 
ATOM     31  H   UNL     1      53.577   5.998  17.290  0.00  0.00    +0.000 HD
ENDBRANCH  19  22
ENDBRANCH  17  20
ENDBRANCH   1  17
TORSDOF 7
ENDMDL
