MODEL 1
REMARK VINA RESULT:    -7.331      0.000      0.000
REMARK INTER + INTRA:         -10.421
REMARK INTER:                  -9.474
REMARK INTRA:                  -0.946
REMARK UNBOUND:                -0.946
REMARK  Name = 
REMARK  5 active torsions:
REMARK  status: ('A' for Active; 'I' for Inactive)
REMARK    1  A    between atoms: C_2  and  C_4
REMARK    2  A    between atoms: C_9  and  C_10
REMARK    3  A    between atoms: C_10  and  O_11
REMARK    4  A    between atoms: O_11  and  C_12
REMARK    5  A    between atoms: C_16  and  N_17
REMARK                            x       y       z     vdW  Elec       q    Type
REMARK                         _______ _______ _______ _____ _____    ______ ____
ROOT
ATOM      1  C   UNL     1      44.022   5.654  11.586  0.00  0.00    +0.000 C 
ENDROOT
BRANCH   1   7
ATOM      2  C   UNL     1      46.950   5.089  13.963  0.00  0.00    +0.000 A 
ATOM      3  C   UNL     1      47.851   6.066  13.529  0.00  0.00    +0.000 A 
ATOM      4  C   UNL     1      47.501   6.902  12.472  0.00  0.00    +0.000 A 
ATOM      5 CL   UNL     1      48.601   8.115  11.942  0.00  0.00    +0.000 Cl
ATOM      6  C   UNL     1      46.266   6.771  11.842  0.00  0.00    +0.000 A 
ATOM      7  C   UNL     1      45.366   5.779  12.254  0.00  0.00    +0.000 A 
ATOM      8  C   UNL     1      45.717   4.936  13.317  0.00  0.00    +0.000 A 
BRANCH   2  10
ATOM      9  N   UNL     1      47.053   4.675  16.356  0.00  0.00    +0.000 N 
ATOM     10  C   UNL     1      47.263   4.186  15.100  0.00  0.00    +0.000 C 
ATOM     11  O   UNL     1      47.644   3.037  14.920  0.00  0.00    +0.000 OA
ATOM     12  H   UNL     1      47.165   4.016  17.118  0.00  0.00    +0.000 HD
ATOM     13  H   UNL     1      46.507   5.505  16.536  0.00  0.00    +0.000 HD
ENDBRANCH   2  10
ENDBRANCH   1   7
BRANCH   1  14
ATOM     14  O   UNL     1      44.225   5.560  10.176  0.00  0.00    +0.000 OA
BRANCH  14  15
ATOM     15  C   UNL     1      44.554   4.311   9.725  0.00  0.00    +0.000 A 
ATOM     16  C   UNL     1      43.858   3.258  10.309  0.00  0.00    +0.000 A 
ATOM     17  C   UNL     1      44.150   1.950   9.941  0.00  0.00    +0.000 A 
ATOM     18  C   UNL     1      45.119   1.703   8.965  0.00  0.00    +0.000 A 
ATOM     19  C   UNL     1      45.806   2.746   8.326  0.00  0.00    +0.000 A 
ATOM     20  C   UNL     1      45.504   4.051   8.732  0.00  0.00    +0.000 A 
BRANCH  19  21
ATOM     21  N   UNL     1      46.734   2.505   7.340  0.00  0.00    +0.000 N 
ATOM     22  C   UNL     1      47.039   3.482   6.290  0.00  0.00    +0.000 C 
ATOM     23  C   UNL     1      46.871   2.812   4.921  0.00  0.00    +0.000 C 
ATOM     24  O   UNL     1      47.691   1.633   4.812  0.00  0.00    +0.000 OA
ATOM     25  C   UNL     1      47.337   0.679   5.829  0.00  0.00    +0.000 C 
ATOM     26  C   UNL     1      47.502   1.257   7.246  0.00  0.00    +0.000 C 
ENDBRANCH  19  21
ENDBRANCH  14  15
ENDBRANCH   1  14
TORSDOF 5
ENDMDL
MODEL 2
REMARK VINA RESULT:    -6.845      3.986      6.216
REMARK INTER + INTRA:          -9.793
REMARK INTER:                  -9.009
REMARK INTRA:                  -0.784
REMARK UNBOUND:                -0.946
REMARK  Name = 
REMARK  5 active torsions:
REMARK  status: ('A' for Active; 'I' for Inactive)
REMARK    1  A    between atoms: C_2  and  C_4
REMARK    2  A    between atoms: C_9  and  C_10
REMARK    3  A    between atoms: C_10  and  O_11
REMARK    4  A    between atoms: O_11  and  C_12
REMARK    5  A    between atoms: C_16  and  N_17
REMARK                            x       y       z     vdW  Elec       q    Type
REMARK                         _______ _______ _______ _____ _____    ______ ____
ROOT
ATOM      1  C   UNL     1      49.531   7.421  15.357  0.00  0.00    +0.000 C 
ENDROOT
BRANCH   1   7
ATOM      2  C   UNL     1      47.914   5.143  17.952  0.00  0.00    +0.000 A 
ATOM      3  C   UNL     1      47.581   6.059  18.955  0.00  0.00    +0.000 A 
ATOM      4  C   UNL     1      47.881   7.407  18.780  0.00  0.00    +0.000 A 
ATOM      5 CL   UNL     1      47.462   8.541  20.006  0.00  0.00    +0.000 Cl
ATOM      6  C   UNL     1      48.511   7.850  17.620  0.00  0.00    +0.000 A 
ATOM      7  C   UNL     1      48.870   6.936  16.619  0.00  0.00    +0.000 A 
ATOM      8  C   UNL     1      48.570   5.579  16.794  0.00  0.00    +0.000 A 
BRANCH   2  10
ATOM      9  N   UNL     1      48.247   3.002  19.054  0.00  0.00    +0.000 N 
ATOM     10  C   UNL     1      47.597   3.697  18.077  0.00  0.00    +0.000 C 
ATOM     11  O   UNL     1      46.753   3.163  17.370  0.00  0.00    +0.000 OA
ATOM     12  H   UNL     1      47.944   2.046  19.201  0.00  0.00    +0.000 HD
ATOM     13  H   UNL     1      48.745   3.452  19.808  0.00  0.00    +0.000 HD
ENDBRANCH   2  10
ENDBRANCH   1   7
BRANCH   1  14
ATOM     14  O   UNL     1      49.173   6.541  14.291  0.00  0.00    +0.000 OA
BRANCH  14  15
ATOM     15  C   UNL     1      47.921   6.744  13.775  0.00  0.00    +0.000 A 
ATOM     16  C   UNL     1      47.598   8.064  13.482  0.00  0.00    +0.000 A 
ATOM     17  C   UNL     1      46.336   8.372  12.989  0.00  0.00    +0.000 A 
ATOM     18  C   UNL     1      45.410   7.350  12.763  0.00  0.00    +0.000 A 
ATOM     19  C   UNL     1      45.723   6.005  13.007  0.00  0.00    +0.000 A 
ATOM     20  C   UNL     1      46.994   5.728  13.521  0.00  0.00    +0.000 A 
BRANCH  19  21
ATOM     21  N   UNL     1      44.825   4.994  12.751  0.00  0.00    +0.000 N 
ATOM     22  C   UNL     1      45.246   3.648  12.352  0.00  0.00    +0.000 C 
ATOM     23  C   UNL     1      44.536   3.268  11.047  0.00  0.00    +0.000 C 
ATOM     24  O   UNL     1      43.106   3.364  11.184  0.00  0.00    +0.000 OA
ATOM     25  C   UNL     1      42.723   4.706  11.534  0.00  0.00    +0.000 C 
ATOM     26  C   UNL     1      43.370   5.167  12.853  0.00  0.00    +0.000 C 
ENDBRANCH  19  21
ENDBRANCH  14  15
ENDBRANCH   1  14
TORSDOF 5
ENDMDL
MODEL 3
REMARK VINA RESULT:    -6.770      4.152      6.404
REMARK INTER + INTRA:          -9.695
REMARK INTER:                  -8.930
REMARK INTRA:                  -0.765
REMARK UNBOUND:                -0.946
REMARK  Name = 
REMARK  5 active torsions:
REMARK  status: ('A' for Active; 'I' for Inactive)
REMARK    1  A    between atoms: C_2  and  C_4
REMARK    2  A    between atoms: C_9  and  C_10
REMARK    3  A    between atoms: C_10  and  O_11
REMARK    4  A    between atoms: O_11  and  C_12
REMARK    5  A    between atoms: C_16  and  N_17
REMARK                            x       y       z     vdW  Elec       q    Type
REMARK                         _______ _______ _______ _____ _____    ______ ____
ROOT
ATOM      1  C   UNL     1      48.540   6.803  16.116  0.00  0.00    +0.000 C 
ENDROOT
BRANCH   1   7
ATOM      2  C   UNL     1      49.467   3.395  17.553  0.00  0.00    +0.000 A 
ATOM      3  C   UNL     1      49.168   3.575  18.907  0.00  0.00    +0.000 A 
ATOM      4  C   UNL     1      48.667   4.799  19.343  0.00  0.00    +0.000 A 
ATOM      5 CL   UNL     1      48.286   5.023  21.006  0.00  0.00    +0.000 Cl
ATOM      6  C   UNL     1      48.464   5.843  18.444  0.00  0.00    +0.000 A 
ATOM      7  C   UNL     1      48.782   5.679  17.088  0.00  0.00    +0.000 A 
ATOM      8  C   UNL     1      49.288   4.449  16.649  0.00  0.00    +0.000 A 
BRANCH   2  10
ATOM      9  N   UNL     1      50.883   1.436  17.809  0.00  0.00    +0.000 N 
ATOM     10  C   UNL     1      49.982   2.103  17.031  0.00  0.00    +0.000 C 
ATOM     11  O   UNL     1      49.580   1.632  15.976  0.00  0.00    +0.000 OA
ATOM     12  H   UNL     1      51.144   0.508  17.496  0.00  0.00    +0.000 HD
ATOM     13  H   UNL     1      51.040   1.659  18.780  0.00  0.00    +0.000 HD
ENDBRANCH   2  10
ENDBRANCH   1   7
BRANCH   1  14
ATOM     14  O   UNL     1      49.119   6.448  14.860  0.00  0.00    +0.000 OA
BRANCH  14  15
ATOM     15  C   UNL     1      48.242   6.427  13.809  0.00  0.00    +0.000 A 
ATOM     16  C   UNL     1      48.543   7.285  12.757  0.00  0.00    +0.000 A 
ATOM     17  C   UNL     1      47.690   7.360  11.662  0.00  0.00    +0.000 A 
ATOM     18  C   UNL     1      46.552   6.550  11.611  0.00  0.00    +0.000 A 
ATOM     19  C   UNL     1      46.246   5.643  12.636  0.00  0.00    +0.000 A 
ATOM     20  C   UNL     1      47.113   5.604  13.734  0.00  0.00    +0.000 A 
BRANCH  19  21
ATOM     21  N   UNL     1      45.146   4.820  12.570  0.00  0.00    +0.000 N 
ATOM     22  C   UNL     1      45.242   3.405  12.200  0.00  0.00    +0.000 C 
ATOM     23  C   UNL     1      44.286   3.128  11.033  0.00  0.00    +0.000 C 
ATOM     24  O   UNL     1      42.937   3.507  11.361  0.00  0.00    +0.000 OA
ATOM     25  C   UNL     1      42.870   4.909  11.678  0.00  0.00    +0.000 C 
ATOM     26  C   UNL     1      43.782   5.278  12.862  0.00  0.00    +0.000 C 
ENDBRANCH  19  21
ENDBRANCH  14  15
ENDBRANCH   1  14
TORSDOF 5
ENDMDL
MODEL 4
REMARK VINA RESULT:    -6.606      3.998      6.266
REMARK INTER + INTRA:          -9.484
REMARK INTER:                  -8.657
REMARK INTRA:                  -0.827
REMARK UNBOUND:                -0.946
REMARK  Name = 
REMARK  5 active torsions:
REMARK  status: ('A' for Active; 'I' for Inactive)
REMARK    1  A    between atoms: C_2  and  C_4
REMARK    2  A    between atoms: C_9  and  C_10
REMARK    3  A    between atoms: C_10  and  O_11
REMARK    4  A    between atoms: O_11  and  C_12
REMARK    5  A    between atoms: C_16  and  N_17
REMARK                            x       y       z     vdW  Elec       q    Type
REMARK                         _______ _______ _______ _____ _____    ______ ____
ROOT
ATOM      1  C   UNL     1      49.444   7.331  15.310  0.00  0.00    +0.000 C 
ENDROOT
BRANCH   1   7
ATOM      2  C   UNL     1      49.051   4.288  17.574  0.00  0.00    +0.000 A 
ATOM      3  C   UNL     1      50.370   4.078  17.987  0.00  0.00    +0.000 A 
ATOM      4  C   UNL     1      51.376   4.927  17.531  0.00  0.00    +0.000 A 
ATOM      5 CL   UNL     1      52.999   4.681  18.046  0.00  0.00    +0.000 Cl
ATOM      6  C   UNL     1      51.080   5.977  16.666  0.00  0.00    +0.000 A 
ATOM      7  C   UNL     1      49.764   6.181  16.227  0.00  0.00    +0.000 A 
ATOM      8  C   UNL     1      48.751   5.327  16.684  0.00  0.00    +0.000 A 
BRANCH   2  10
ATOM      9  N   UNL     1      48.077   2.853  19.277  0.00  0.00    +0.000 N 
ATOM     10  C   UNL     1      47.937   3.427  18.047  0.00  0.00    +0.000 C 
ATOM     11  O   UNL     1      46.916   3.280  17.389  0.00  0.00    +0.000 OA
ATOM     12  H   UNL     1      47.268   2.359  19.635  0.00  0.00    +0.000 HD
ATOM     13  H   UNL     1      48.772   3.151  19.944  0.00  0.00    +0.000 HD
ENDBRANCH   2  10
ENDBRANCH   1   7
BRANCH   1  14
ATOM     14  O   UNL     1      49.170   6.811  14.009  0.00  0.00    +0.000 OA
BRANCH  14  15
ATOM     15  C   UNL     1      47.873   6.953  13.595  0.00  0.00    +0.000 A 
ATOM     16  C   UNL     1      47.449   8.261  13.385  0.00  0.00    +0.000 A 
ATOM     17  C   UNL     1      46.137   8.507  12.998  0.00  0.00    +0.000 A 
ATOM     18  C   UNL     1      45.261   7.438  12.794  0.00  0.00    +0.000 A 
ATOM     19  C   UNL     1      45.672   6.106  12.954  0.00  0.00    +0.000 A 
ATOM     20  C   UNL     1      46.993   5.891  13.362  0.00  0.00    +0.000 A 
BRANCH  19  21
ATOM     21  N   UNL     1      44.821   5.052  12.718  0.00  0.00    +0.000 N 
ATOM     22  C   UNL     1      45.303   3.718  12.348  0.00  0.00    +0.000 C 
ATOM     23  C   UNL     1      44.613   3.279  11.051  0.00  0.00    +0.000 C 
ATOM     24  O   UNL     1      43.180   3.314  11.184  0.00  0.00    +0.000 OA
ATOM     25  C   UNL     1      42.736   4.645  11.505  0.00  0.00    +0.000 C 
ATOM     26  C   UNL     1      43.360   5.161  12.815  0.00  0.00    +0.000 C 
ENDBRANCH  19  21
ENDBRANCH  14  15
ENDBRANCH   1  14
TORSDOF 5
ENDMDL
MODEL 5
REMARK VINA RESULT:    -6.554      4.101      6.741
REMARK INTER + INTRA:          -9.416
REMARK INTER:                  -8.708
REMARK INTRA:                  -0.708
REMARK UNBOUND:                -0.946
REMARK  Name = 
REMARK  5 active torsions:
REMARK  status: ('A' for Active; 'I' for Inactive)
REMARK    1  A    between atoms: C_2  and  C_4
REMARK    2  A    between atoms: C_9  and  C_10
REMARK    3  A    between atoms: C_10  and  O_11
REMARK    4  A    between atoms: O_11  and  C_12
REMARK    5  A    between atoms: C_16  and  N_17
REMARK                            x       y       z     vdW  Elec       q    Type
REMARK                         _______ _______ _______ _____ _____    ______ ____
ROOT
ATOM      1  C   UNL     1      48.098   3.176  16.466  0.00  0.00    +0.000 C 
ENDROOT
BRANCH   1   7
ATOM      2  C   UNL     1      51.559   2.081  17.634  0.00  0.00    +0.000 A 
ATOM      3  C   UNL     1      52.074   3.280  18.135  0.00  0.00    +0.000 A 
ATOM      4  C   UNL     1      51.295   4.433  18.092  0.00  0.00    +0.000 A 
ATOM      5 CL   UNL     1      51.920   5.910  18.718  0.00  0.00    +0.000 Cl
ATOM      6  C   UNL     1      50.011   4.403  17.554  0.00  0.00    +0.000 A 
ATOM      7  C   UNL     1      49.494   3.210  17.028  0.00  0.00    +0.000 A 
ATOM      8  C   UNL     1      50.278   2.049  17.069  0.00  0.00    +0.000 A 
BRANCH   2  10
ATOM      9  N   UNL     1      51.837  -0.195  18.441  0.00  0.00    +0.000 N 
ATOM     10  C   UNL     1      52.338   0.817  17.675  0.00  0.00    +0.000 C 
ATOM     11  O   UNL     1      53.356   0.670  17.013  0.00  0.00    +0.000 OA
ATOM     12  H   UNL     1      52.317  -1.086  18.375  0.00  0.00    +0.000 HD
ATOM     13  H   UNL     1      50.890  -0.203  18.787  0.00  0.00    +0.000 HD
ENDBRANCH   2  10
ENDBRANCH   1   7
BRANCH   1  14
ATOM     14  O   UNL     1      47.588   4.509  16.438  0.00  0.00    +0.000 OA
BRANCH  14  15
ATOM     15  C   UNL     1      47.376   5.017  15.185  0.00  0.00    +0.000 A 
ATOM     16  C   UNL     1      48.145   6.126  14.847  0.00  0.00    +0.000 A 
ATOM     17  C   UNL     1      47.974   6.733  13.609  0.00  0.00    +0.000 A 
ATOM     18  C   UNL     1      47.052   6.207  12.699  0.00  0.00    +0.000 A 
ATOM     19  C   UNL     1      46.295   5.064  12.993  0.00  0.00    +0.000 A 
ATOM     20  C   UNL     1      46.476   4.486  14.255  0.00  0.00    +0.000 A 
BRANCH  19  21
ATOM     21  N   UNL     1      45.414   4.524  12.085  0.00  0.00    +0.000 N 
ATOM     22  C   UNL     1      44.747   5.332  11.060  0.00  0.00    +0.000 C 
ATOM     23  C   UNL     1      43.232   5.119  11.163  0.00  0.00    +0.000 C 
ATOM     24  O   UNL     1      42.892   3.725  11.053  0.00  0.00    +0.000 OA
ATOM     25  C   UNL     1      43.528   2.968  12.099  0.00  0.00    +0.000 C 
ATOM     26  C   UNL     1      45.061   3.099  12.057  0.00  0.00    +0.000 C 
ENDBRANCH  19  21
ENDBRANCH  14  15
ENDBRANCH   1  14
TORSDOF 5
ENDMDL
MODEL 6
REMARK VINA RESULT:    -6.328      4.344      9.394
REMARK INTER + INTRA:          -9.124
REMARK INTER:                  -8.443
REMARK INTRA:                  -0.681
REMARK UNBOUND:                -0.946
REMARK  Name = 
REMARK  5 active torsions:
REMARK  status: ('A' for Active; 'I' for Inactive)
REMARK    1  A    between atoms: C_2  and  C_4
REMARK    2  A    between atoms: C_9  and  C_10
REMARK    3  A    between atoms: C_10  and  O_11
REMARK    4  A    between atoms: O_11  and  C_12
REMARK    5  A    between atoms: C_16  and  N_17
REMARK                            x       y       z     vdW  Elec       q    Type
REMARK                         _______ _______ _______ _____ _____    ______ ____
ROOT
ATOM      1  C   UNL     1      47.020   3.931  14.101  0.00  0.00    +0.000 C 
ENDROOT
BRANCH   1   7
ATOM      2  C   UNL     1      44.574   5.899  11.937  0.00  0.00    +0.000 A 
ATOM      3  C   UNL     1      45.220   7.136  11.844  0.00  0.00    +0.000 A 
ATOM      4  C   UNL     1      46.445   7.321  12.481  0.00  0.00    +0.000 A 
ATOM      5 CL   UNL     1      47.250   8.837  12.360  0.00  0.00    +0.000 Cl
ATOM      6  C   UNL     1      47.028   6.288  13.211  0.00  0.00    +0.000 A 
ATOM      7  C   UNL     1      46.376   5.052  13.330  0.00  0.00    +0.000 A 
ATOM      8  C   UNL     1      45.144   4.865  12.690  0.00  0.00    +0.000 A 
BRANCH   2  10
ATOM      9  N   UNL     1      42.178   6.266  11.767  0.00  0.00    +0.000 N 
ATOM     10  C   UNL     1      43.279   5.641  11.259  0.00  0.00    +0.000 C 
ATOM     11  O   UNL     1      43.208   4.941  10.258  0.00  0.00    +0.000 OA
ATOM     12  H   UNL     1      41.321   6.170  11.233  0.00  0.00    +0.000 HD
ATOM     13  H   UNL     1      42.235   7.036  12.416  0.00  0.00    +0.000 HD
ENDBRANCH   2  10
ENDBRANCH   1   7
BRANCH   1  14
ATOM     14  O   UNL     1      46.486   3.926  15.425  0.00  0.00    +0.000 OA
BRANCH  14  15
ATOM     15  C   UNL     1      47.421   3.858  16.422  0.00  0.00    +0.000 A 
ATOM     16  C   UNL     1      48.344   2.823  16.310  0.00  0.00    +0.000 A 
ATOM     17  C   UNL     1      49.310   2.651  17.295  0.00  0.00    +0.000 A 
ATOM     18  C   UNL     1      49.366   3.537  18.374  0.00  0.00    +0.000 A 
ATOM     19  C   UNL     1      48.478   4.616  18.490  0.00  0.00    +0.000 A 
ATOM     20  C   UNL     1      47.505   4.752  17.494  0.00  0.00    +0.000 A 
BRANCH  19  21
ATOM     21  N   UNL     1      48.556   5.510  19.533  0.00  0.00    +0.000 N 
ATOM     22  C   UNL     1      48.423   5.099  20.934  0.00  0.00    +0.000 C 
ATOM     23  C   UNL     1      47.323   5.937  21.598  0.00  0.00    +0.000 C 
ATOM     24  O   UNL     1      47.594   7.346  21.476  0.00  0.00    +0.000 OA
ATOM     25  C   UNL     1      47.676   7.723  20.090  0.00  0.00    +0.000 C 
ATOM     26  C   UNL     1      48.778   6.949  19.344  0.00  0.00    +0.000 C 
ENDBRANCH  19  21
ENDBRANCH  14  15
ENDBRANCH   1  14
TORSDOF 5
ENDMDL
MODEL 7
REMARK VINA RESULT:    -6.248      3.708      9.478
REMARK INTER + INTRA:          -9.021
REMARK INTER:                  -8.398
REMARK INTRA:                  -0.622
REMARK UNBOUND:                -0.946
REMARK  Name = 
REMARK  5 active torsions:
REMARK  status: ('A' for Active; 'I' for Inactive)
REMARK    1  A    between atoms: C_2  and  C_4
REMARK    2  A    between atoms: C_9  and  C_10
REMARK    3  A    between atoms: C_10  and  O_11
REMARK    4  A    between atoms: O_11  and  C_12
REMARK    5  A    between atoms: C_16  and  N_17
REMARK                            x       y       z     vdW  Elec       q    Type
REMARK                         _______ _______ _______ _____ _____    ______ ____
ROOT
ATOM      1  C   UNL     1      46.911   3.690  14.154  0.00  0.00    +0.000 C 
ENDROOT
BRANCH   1   7
ATOM      2  C   UNL     1      44.857   4.550  11.058  0.00  0.00    +0.000 A 
ATOM      3  C   UNL     1      44.870   5.948  11.097  0.00  0.00    +0.000 A 
ATOM      4  C   UNL     1      45.547   6.600  12.125  0.00  0.00    +0.000 A 
ATOM      5 CL   UNL     1      45.576   8.320  12.172  0.00  0.00    +0.000 Cl
ATOM      6  C   UNL     1      46.206   5.873  13.114  0.00  0.00    +0.000 A 
ATOM      7  C   UNL     1      46.179   4.472  13.096  0.00  0.00    +0.000 A 
ATOM      8  C   UNL     1      45.497   3.814  12.063  0.00  0.00    +0.000 A 
BRANCH   2  10
ATOM      9  N   UNL     1      44.027   4.445   8.776  0.00  0.00    +0.000 N 
ATOM     10  C   UNL     1      44.171   3.805   9.973  0.00  0.00    +0.000 C 
ATOM     11  O   UNL     1      43.796   2.650  10.126  0.00  0.00    +0.000 OA
ATOM     12  H   UNL     1      43.657   3.889   8.013  0.00  0.00    +0.000 HD
ATOM     13  H   UNL     1      44.540   5.279   8.536  0.00  0.00    +0.000 HD
ENDBRANCH   2  10
ENDBRANCH   1   7
BRANCH   1  14
ATOM     14  O   UNL     1      46.480   4.148  15.436  0.00  0.00    +0.000 OA
BRANCH  14  15
ATOM     15  C   UNL     1      47.368   3.925  16.453  0.00  0.00    +0.000 A 
ATOM     16  C   UNL     1      48.292   2.909  16.232  0.00  0.00    +0.000 A 
ATOM     17  C   UNL     1      49.211   2.585  17.224  0.00  0.00    +0.000 A 
ATOM     18  C   UNL     1      49.220   3.302  18.424  0.00  0.00    +0.000 A 
ATOM     19  C   UNL     1      48.330   4.360  18.657  0.00  0.00    +0.000 A 
ATOM     20  C   UNL     1      47.405   4.650  17.648  0.00  0.00    +0.000 A 
BRANCH  19  21
ATOM     21  N   UNL     1      48.362   5.090  19.823  0.00  0.00    +0.000 N 
ATOM     22  C   UNL     1      47.359   6.110  20.141  0.00  0.00    +0.000 C 
ATOM     23  C   UNL     1      48.072   7.430  20.458  0.00  0.00    +0.000 C 
ATOM     24  O   UNL     1      49.026   7.265  21.524  0.00  0.00    +0.000 OA
ATOM     25  C   UNL     1      50.020   6.290  21.163  0.00  0.00    +0.000 C 
ATOM     26  C   UNL     1      49.396   4.917  20.851  0.00  0.00    +0.000 C 
ENDBRANCH  19  21
ENDBRANCH  14  15
ENDBRANCH   1  14
TORSDOF 5
ENDMDL
MODEL 8
REMARK VINA RESULT:    -6.154      3.623      7.876
REMARK INTER + INTRA:          -8.899
REMARK INTER:                  -8.132
REMARK INTRA:                  -0.768
REMARK UNBOUND:                -0.946
REMARK  Name = 
REMARK  5 active torsions:
REMARK  status: ('A' for Active; 'I' for Inactive)
REMARK    1  A    between atoms: C_2  and  C_4
REMARK    2  A    between atoms: C_9  and  C_10
REMARK    3  A    between atoms: C_10  and  O_11
REMARK    4  A    between atoms: O_11  and  C_12
REMARK    5  A    between atoms: C_16  and  N_17
REMARK                            x       y       z     vdW  Elec       q    Type
REMARK                         _______ _______ _______ _____ _____    ______ ____
ROOT
ATOM      1  C   UNL     1      46.121   7.018  11.058  0.00  0.00    +0.000 C 
ENDROOT
BRANCH   1   7
ATOM      2  C   UNL     1      44.315   3.660  11.003  0.00  0.00    +0.000 A 
ATOM      3  C   UNL     1      44.564   3.233   9.695  0.00  0.00    +0.000 A 
ATOM      4  C   UNL     1      45.319   4.035   8.843  0.00  0.00    +0.000 A 
ATOM      5 CL   UNL     1      45.640   3.509   7.236  0.00  0.00    +0.000 Cl
ATOM      6  C   UNL     1      45.822   5.258   9.280  0.00  0.00    +0.000 A 
ATOM      7  C   UNL     1      45.557   5.706  10.582  0.00  0.00    +0.000 A 
ATOM      8  C   UNL     1      44.797   4.900  11.440  0.00  0.00    +0.000 A 
BRANCH   2  10
ATOM      9  N   UNL     1      43.569   3.207  13.272  0.00  0.00    +0.000 N 
ATOM     10  C   UNL     1      43.536   2.833  11.960  0.00  0.00    +0.000 C 
ATOM     11  O   UNL     1      42.853   1.890  11.584  0.00  0.00    +0.000 OA
ATOM     12  H   UNL     1      42.949   2.704  13.896  0.00  0.00    +0.000 HD
ATOM     13  H   UNL     1      43.902   4.110  13.576  0.00  0.00    +0.000 HD
ENDBRANCH   2  10
ENDBRANCH   1   7
BRANCH   1  14
ATOM     14  O   UNL     1      46.279   6.955  12.476  0.00  0.00    +0.000 OA
BRANCH  14  15
ATOM     15  C   UNL     1      47.553   7.183  12.921  0.00  0.00    +0.000 A 
ATOM     16  C   UNL     1      48.431   7.720  11.985  0.00  0.00    +0.000 A 
ATOM     17  C   UNL     1      49.756   7.952  12.336  0.00  0.00    +0.000 A 
ATOM     18  C   UNL     1      50.190   7.671  13.634  0.00  0.00    +0.000 A 
ATOM     19  C   UNL     1      49.318   7.171  14.611  0.00  0.00    +0.000 A 
ATOM     20  C   UNL     1      47.995   6.930  14.224  0.00  0.00    +0.000 A 
BRANCH  19  21
ATOM     21  N   UNL     1      49.736   6.928  15.899  0.00  0.00    +0.000 N 
ATOM     22  C   UNL     1      51.152   6.905  16.276  0.00  0.00    +0.000 C 
ATOM     23  C   UNL     1      51.461   5.577  16.979  0.00  0.00    +0.000 C 
ATOM     24  O   UNL     1      50.599   5.374  18.115  0.00  0.00    +0.000 OA
ATOM     25  C   UNL     1      49.220   5.360  17.704  0.00  0.00    +0.000 C 
ATOM     26  C   UNL     1      48.810   6.671  17.010  0.00  0.00    +0.000 C 
ENDBRANCH  19  21
ENDBRANCH  14  15
ENDBRANCH   1  14
TORSDOF 5
ENDMDL
MODEL 9
REMARK VINA RESULT:    -5.991      4.273      6.782
REMARK INTER + INTRA:          -8.688
REMARK INTER:                  -7.895
REMARK INTRA:                  -0.793
REMARK UNBOUND:                -0.946
REMARK  Name = 
REMARK  5 active torsions:
REMARK  status: ('A' for Active; 'I' for Inactive)
REMARK    1  A    between atoms: C_2  and  C_4
REMARK    2  A    between atoms: C_9  and  C_10
REMARK    3  A    between atoms: C_10  and  O_11
REMARK    4  A    between atoms: O_11  and  C_12
REMARK    5  A    between atoms: C_16  and  N_17
REMARK                            x       y       z     vdW  Elec       q    Type
REMARK                         _______ _______ _______ _____ _____    ______ ____
ROOT
ATOM      1  C   UNL     1      47.915   3.345  16.586  0.00  0.00    +0.000 C 
ENDROOT
BRANCH   1   7
ATOM      2  C   UNL     1      51.153   4.517  18.224  0.00  0.00    +0.000 A 
ATOM      3  C   UNL     1      51.938   3.362  18.142  0.00  0.00    +0.000 A 
ATOM      4  C   UNL     1      51.412   2.215  17.554  0.00  0.00    +0.000 A 
ATOM      5 CL   UNL     1      52.378   0.795  17.439  0.00  0.00    +0.000 Cl
ATOM      6  C   UNL     1      50.113   2.206  17.051  0.00  0.00    +0.000 A 
ATOM      7  C   UNL     1      49.310   3.351  17.150  0.00  0.00    +0.000 A 
ATOM      8  C   UNL     1      49.838   4.506  17.742  0.00  0.00    +0.000 A 
BRANCH   2  10
ATOM      9  N   UNL     1      51.012   6.927  18.507  0.00  0.00    +0.000 N 
ATOM     10  C   UNL     1      51.671   5.774  18.820  0.00  0.00    +0.000 C 
ATOM     11  O   UNL     1      52.615   5.773  19.598  0.00  0.00    +0.000 OA
ATOM     12  H   UNL     1      51.306   7.760  19.003  0.00  0.00    +0.000 HD
ATOM     13  H   UNL     1      50.095   6.936  18.086  0.00  0.00    +0.000 HD
ENDBRANCH   2  10
ENDBRANCH   1   7
BRANCH   1  14
ATOM     14  O   UNL     1      47.477   4.696  16.443  0.00  0.00    +0.000 OA
BRANCH  14  15
ATOM     15  C   UNL     1      47.346   5.124  15.150  0.00  0.00    +0.000 A 
ATOM     16  C   UNL     1      48.218   6.135  14.760  0.00  0.00    +0.000 A 
ATOM     17  C   UNL     1      48.135   6.659  13.475  0.00  0.00    +0.000 A 
ATOM     18  C   UNL     1      47.197   6.148  12.575  0.00  0.00    +0.000 A 
ATOM     19  C   UNL     1      46.334   5.099  12.926  0.00  0.00    +0.000 A 
ATOM     20  C   UNL     1      46.428   4.605  14.232  0.00  0.00    +0.000 A 
BRANCH  19  21
ATOM     21  N   UNL     1      45.435   4.570  12.029  0.00  0.00    +0.000 N 
ATOM     22  C   UNL     1      44.744   5.390  11.030  0.00  0.00    +0.000 C 
ATOM     23  C   UNL     1      43.232   5.172  11.164  0.00  0.00    +0.000 C 
ATOM     24  O   UNL     1      42.892   3.779  11.042  0.00  0.00    +0.000 OA
ATOM     25  C   UNL     1      43.552   3.009  12.062  0.00  0.00    +0.000 C 
ATOM     26  C   UNL     1      45.084   3.145  11.988  0.00  0.00    +0.000 C 
ENDBRANCH  19  21
ENDBRANCH  14  15
ENDBRANCH   1  14
TORSDOF 5
ENDMDL
