MODEL 1
REMARK VINA RESULT:    -7.708      0.000      0.000
REMARK INTER + INTRA:         -11.976
REMARK INTER:                 -10.863
REMARK INTRA:                  -1.114
REMARK UNBOUND:                -1.114
REMARK  Name = 
REMARK  8 active torsions:
REMARK  status: ('A' for Active; 'I' for Inactive)
REMARK    1  A    between atoms: C_1  and  O_2
REMARK    2  A    between atoms: O_2  and  C_3
REMARK    3  A    between atoms: C_7  and  C_8
REMARK    4  A    between atoms: C_8  and  N_9
REMARK    5  A    between atoms: N_9  and  C_10
REMARK    6  A    between atoms: C_13  and  C_14
REMARK    7  A    between atoms: C_14  and  N_15
REMARK    8  A    between atoms: C_16  and  C_18
REMARK                            x       y       z     vdW  Elec       q    Type
REMARK                         _______ _______ _______ _____ _____    ______ ____
ROOT
ATOM      1  C   UNL     1      45.375   6.773  11.753  0.00  0.00    +0.000 C 
ATOM      2  C   UNL     1      45.193   8.234  12.183  0.00  0.00    +0.000 C 
ATOM      3  C   UNL     1      46.207   8.647  13.245  0.00  0.00    +0.000 C 
ATOM      4  C   UNL     1      47.652   8.398  12.788  0.00  0.00    +0.000 C 
ATOM      5  C   UNL     1      47.831   6.933  12.372  0.00  0.00    +0.000 C 
ATOM      6  C   UNL     1      46.824   6.522  11.306  0.00  0.00    +0.000 C 
ENDROOT
BRANCH   1   7
ATOM      7  N   UNL     1      44.410   6.505  10.681  0.00  0.00    +0.000 NA
ATOM      8  H   UNL     1      43.663   7.204  10.728  0.00  0.00    +0.000 HD
BRANCH   7   9
ATOM      9  C   UNL     1      43.784   5.184  10.801  0.00  0.00    +0.000 C 
BRANCH   9  14
ATOM     10  C   UNL     1      45.692   3.786   7.991  0.00  0.00    +0.000 A 
ATOM     11  C   UNL     1      45.558   2.411   8.116  0.00  0.00    +0.000 A 
ATOM     12  C   UNL     1      44.813   1.914   9.181  0.00  0.00    +0.000 A 
ATOM     13  C   UNL     1      44.228   2.806  10.074  0.00  0.00    +0.000 A 
ATOM     14  C   UNL     1      44.411   4.173   9.871  0.00  0.00    +0.000 A 
ATOM     15  N   UNL     1      45.136   4.667   8.843  0.00  0.00    +0.000 NA
BRANCH  10  17
ATOM     16  C   UNL     1      46.776   3.211   6.014  0.00  0.00    +0.000 C 
ATOM     17  O   UNL     1      46.438   4.251   6.930  0.00  0.00    +0.000 OA
ENDBRANCH  10  17
ENDBRANCH   9  14
ENDBRANCH   7   9
ENDBRANCH   1   7
BRANCH   4  18
ATOM     18  C   UNL     1      48.685   8.741  13.870  0.00  0.00    +0.000 C 
BRANCH  18  19
ATOM     19  N   UNL     1      48.592   7.869  15.018  0.00  0.00    +0.000 N 
ATOM     20  C   UNL     1      49.683   7.193  15.504  0.00  0.00    +0.000 C 
ATOM     21  O   UNL     1      50.806   7.339  15.027  0.00  0.00    +0.000 OA
ATOM     22  H   UNL     1      47.660   7.617  15.337  0.00  0.00    +0.000 HD
BRANCH  20  23
ATOM     23  C   UNL     1      49.460   6.303  16.646  0.00  0.00    +0.000 A 
ATOM     24  C   UNL     1      50.172   6.521  17.818  0.00  0.00    +0.000 A 
ATOM     25  S   UNL     1      49.817   5.404  19.052  0.00  0.00    +0.000 S 
ATOM     26  C   UNL     1      48.727   4.565  18.053  0.00  0.00    +0.000 A 
ATOM     27  N   UNL     1      48.088   3.452  18.502  0.00  0.00    +0.000 NA
ATOM     28  C   UNL     1      47.314   2.895  17.634  0.00  0.00    +0.000 A 
ATOM     29  N   UNL     1      47.109   3.356  16.359  0.00  0.00    +0.000 N 
ATOM     30  C   UNL     1      47.694   4.506  15.878  0.00  0.00    +0.000 A 
ATOM     31  O   UNL     1      47.421   4.941  14.763  0.00  0.00    +0.000 OA
ATOM     32  C   UNL     1      48.608   5.149  16.803  0.00  0.00    +0.000 A 
ATOM     33  H   UNL     1      46.470   2.883  15.738  0.00  0.00    +0.000 HD
ENDBRANCH  20  23
ENDBRANCH  18  19
ENDBRANCH   4  18
TORSDOF 7
ENDMDL
MODEL 2
REMARK VINA RESULT:    -7.707      1.582      1.895
REMARK INTER + INTRA:         -11.975
REMARK INTER:                 -10.982
REMARK INTRA:                  -0.993
REMARK UNBOUND:                -1.114
REMARK  Name = 
REMARK  8 active torsions:
REMARK  status: ('A' for Active; 'I' for Inactive)
REMARK    1  A    between atoms: C_1  and  O_2
REMARK    2  A    between atoms: O_2  and  C_3
REMARK    3  A    between atoms: C_7  and  C_8
REMARK    4  A    between atoms: C_8  and  N_9
REMARK    5  A    between atoms: N_9  and  C_10
REMARK    6  A    between atoms: C_13  and  C_14
REMARK    7  A    between atoms: C_14  and  N_15
REMARK    8  A    between atoms: C_16  and  C_18
REMARK                            x       y       z     vdW  Elec       q    Type
REMARK                         _______ _______ _______ _____ _____    ______ ____
ROOT
ATOM      1  C   UNL     1      44.596   5.149  12.451  0.00  0.00    +0.000 C 
ATOM      2  C   UNL     1      44.959   6.391  11.626  0.00  0.00    +0.000 C 
ATOM      3  C   UNL     1      46.021   7.242  12.314  0.00  0.00    +0.000 C 
ATOM      4  C   UNL     1      47.282   6.430  12.645  0.00  0.00    +0.000 C 
ATOM      5  C   UNL     1      46.915   5.198  13.479  0.00  0.00    +0.000 C 
ATOM      6  C   UNL     1      45.860   4.343  12.791  0.00  0.00    +0.000 C 
ENDROOT
BRANCH   1   7
ATOM      7  N   UNL     1      43.632   4.366  11.669  0.00  0.00    +0.000 NA
ATOM      8  H   UNL     1      43.886   3.376  11.728  0.00  0.00    +0.000 HD
BRANCH   7   9
ATOM      9  C   UNL     1      43.623   4.735  10.250  0.00  0.00    +0.000 C 
BRANCH   9  14
ATOM     10  C   UNL     1      45.901   3.564   7.618  0.00  0.00    +0.000 A 
ATOM     11  C   UNL     1      46.029   2.200   7.834  0.00  0.00    +0.000 A 
ATOM     12  C   UNL     1      45.341   1.634   8.904  0.00  0.00    +0.000 A 
ATOM     13  C   UNL     1      44.552   2.448   9.710  0.00  0.00    +0.000 A 
ATOM     14  C   UNL     1      44.479   3.810   9.418  0.00  0.00    +0.000 A 
ATOM     15  N   UNL     1      45.145   4.371   8.385  0.00  0.00    +0.000 NA
BRANCH  10  17
ATOM     16  C   UNL     1      46.917   3.116   5.573  0.00  0.00    +0.000 C 
ATOM     17  O   UNL     1      46.597   4.099   6.555  0.00  0.00    +0.000 OA
ENDBRANCH  10  17
ENDBRANCH   9  14
ENDBRANCH   7   9
ENDBRANCH   1   7
BRANCH   4  18
ATOM     18  C   UNL     1      48.337   7.251  13.400  0.00  0.00    +0.000 C 
BRANCH  18  19
ATOM     19  N   UNL     1      48.130   7.232  14.830  0.00  0.00    +0.000 N 
ATOM     20  C   UNL     1      49.148   6.945  15.704  0.00  0.00    +0.000 C 
ATOM     21  O   UNL     1      50.300   6.749  15.322  0.00  0.00    +0.000 OA
ATOM     22  H   UNL     1      47.170   7.243  15.162  0.00  0.00    +0.000 HD
BRANCH  20  23
ATOM     23  C   UNL     1      48.812   6.911  17.130  0.00  0.00    +0.000 A 
ATOM     24  C   UNL     1      48.476   8.096  17.770  0.00  0.00    +0.000 A 
ATOM     25  S   UNL     1      48.120   7.903  19.424  0.00  0.00    +0.000 S 
ATOM     26  C   UNL     1      48.441   6.234  19.353  0.00  0.00    +0.000 A 
ATOM     27  N   UNL     1      48.355   5.462  20.469  0.00  0.00    +0.000 NA
ATOM     28  C   UNL     1      48.653   4.221  20.282  0.00  0.00    +0.000 A 
ATOM     29  N   UNL     1      49.017   3.677  19.077  0.00  0.00    +0.000 N 
ATOM     30  C   UNL     1      49.069   4.408  17.912  0.00  0.00    +0.000 A 
ATOM     31  O   UNL     1      49.311   3.873  16.834  0.00  0.00    +0.000 OA
ATOM     32  C   UNL     1      48.781   5.821  18.075  0.00  0.00    +0.000 A 
ATOM     33  H   UNL     1      49.216   2.691  18.998  0.00  0.00    +0.000 HD
ENDBRANCH  20  23
ENDBRANCH  18  19
ENDBRANCH   4  18
TORSDOF 7
ENDMDL
MODEL 3
REMARK VINA RESULT:    -7.469      2.181      2.706
REMARK INTER + INTRA:         -11.639
REMARK INTER:                 -10.484
REMARK INTRA:                  -1.155
REMARK UNBOUND:                -1.114
REMARK  Name = 
REMARK  8 active torsions:
REMARK  status: ('A' for Active; 'I' for Inactive)
REMARK    1  A    between atoms: C_1  and  O_2
REMARK    2  A    between atoms: O_2  and  C_3
REMARK    3  A    between atoms: C_7  and  C_8
REMARK    4  A    between atoms: C_8  and  N_9
REMARK    5  A    between atoms: N_9  and  C_10
REMARK    6  A    between atoms: C_13  and  C_14
REMARK    7  A    between atoms: C_14  and  N_15
REMARK    8  A    between atoms: C_16  and  C_18
REMARK                            x       y       z     vdW  Elec       q    Type
REMARK                         _______ _______ _______ _____ _____    ______ ____
ROOT
ATOM      1  C   UNL     1      44.546   5.291  12.837  0.00  0.00    +0.000 C 
ATOM      2  C   UNL     1      45.000   6.580  12.138  0.00  0.00    +0.000 C 
ATOM      3  C   UNL     1      46.111   7.286  12.909  0.00  0.00    +0.000 C 
ATOM      4  C   UNL     1      47.311   6.362  13.163  0.00  0.00    +0.000 C 
ATOM      5  C   UNL     1      46.853   5.082  13.872  0.00  0.00    +0.000 C 
ATOM      6  C   UNL     1      45.749   4.372  13.101  0.00  0.00    +0.000 C 
ENDROOT
BRANCH   1   7
ATOM      7  N   UNL     1      43.539   4.656  11.979  0.00  0.00    +0.000 NA
ATOM      8  H   UNL     1      43.684   3.643  11.997  0.00  0.00    +0.000 HD
BRANCH   7   9
ATOM      9  C   UNL     1      43.631   5.089  10.582  0.00  0.00    +0.000 C 
BRANCH   9  14
ATOM     10  C   UNL     1      45.726   3.709   7.900  0.00  0.00    +0.000 A 
ATOM     11  C   UNL     1      45.697   2.336   8.093  0.00  0.00    +0.000 A 
ATOM     12  C   UNL     1      44.962   1.835   9.163  0.00  0.00    +0.000 A 
ATOM     13  C   UNL     1      44.282   2.721   9.993  0.00  0.00    +0.000 A 
ATOM     14  C   UNL     1      44.364   4.086   9.724  0.00  0.00    +0.000 A 
ATOM     15  N   UNL     1      45.078   4.585   8.690  0.00  0.00    +0.000 NA
BRANCH  10  17
ATOM     16  C   UNL     1      46.829   3.137   5.933  0.00  0.00    +0.000 C 
ATOM     17  O   UNL     1      46.465   4.179   6.836  0.00  0.00    +0.000 OA
ENDBRANCH  10  17
ENDBRANCH   9  14
ENDBRANCH   7   9
ENDBRANCH   1   7
BRANCH   4  18
ATOM     18  C   UNL     1      48.411   7.031  13.998  0.00  0.00    +0.000 C 
BRANCH  18  19
ATOM     19  N   UNL     1      48.207   6.859  15.418  0.00  0.00    +0.000 N 
ATOM     20  C   UNL     1      49.227   6.476  16.253  0.00  0.00    +0.000 C 
ATOM     21  O   UNL     1      50.377   6.318  15.849  0.00  0.00    +0.000 OA
ATOM     22  H   UNL     1      47.248   6.838  15.752  0.00  0.00    +0.000 HD
BRANCH  20  23
ATOM     23  C   UNL     1      48.893   6.289  17.668  0.00  0.00    +0.000 A 
ATOM     24  C   UNL     1      49.107   5.048  18.251  0.00  0.00    +0.000 A 
ATOM     25  S   UNL     1      48.665   4.978  19.893  0.00  0.00    +0.000 S 
ATOM     26  C   UNL     1      48.135   6.594  19.875  0.00  0.00    +0.000 A 
ATOM     27  N   UNL     1      47.593   7.160  20.985  0.00  0.00    +0.000 NA
ATOM     28  C   UNL     1      47.204   8.380  20.826  0.00  0.00    +0.000 A 
ATOM     29  N   UNL     1      47.320   9.091  19.659  0.00  0.00    +0.000 N 
ATOM     30  C   UNL     1      47.907   8.576  18.526  0.00  0.00    +0.000 A 
ATOM     31  O   UNL     1      48.075   9.268  17.526  0.00  0.00    +0.000 OA
ATOM     32  C   UNL     1      48.325   7.192  18.640  0.00  0.00    +0.000 A 
ATOM     33  H   UNL     1      47.015  10.051  19.611  0.00  0.00    +0.000 HD
ENDBRANCH  20  23
ENDBRANCH  18  19
ENDBRANCH   4  18
TORSDOF 7
ENDMDL
MODEL 4
REMARK VINA RESULT:    -7.402      2.195      2.875
REMARK INTER + INTRA:         -11.545
REMARK INTER:                 -10.970
REMARK INTRA:                  -0.575
REMARK UNBOUND:                -1.114
REMARK  Name = 
REMARK  8 active torsions:
REMARK  status: ('A' for Active; 'I' for Inactive)
REMARK    1  A    between atoms: C_1  and  O_2
REMARK    2  A    between atoms: O_2  and  C_3
REMARK    3  A    between atoms: C_7  and  C_8
REMARK    4  A    between atoms: C_8  and  N_9
REMARK    5  A    between atoms: N_9  and  C_10
REMARK    6  A    between atoms: C_13  and  C_14
REMARK    7  A    between atoms: C_14  and  N_15
REMARK    8  A    between atoms: C_16  and  C_18
REMARK                            x       y       z     vdW  Elec       q    Type
REMARK                         _______ _______ _______ _____ _____    ______ ____
ROOT
ATOM      1  C   UNL     1      45.358   4.512  11.251  0.00  0.00    +0.000 C 
ATOM      2  C   UNL     1      45.453   4.024  12.703  0.00  0.00    +0.000 C 
ATOM      3  C   UNL     1      46.710   4.539  13.397  0.00  0.00    +0.000 C 
ATOM      4  C   UNL     1      46.812   6.071  13.337  0.00  0.00    +0.000 C 
ATOM      5  C   UNL     1      46.729   6.551  11.884  0.00  0.00    +0.000 C 
ATOM      6  C   UNL     1      45.471   6.044  11.191  0.00  0.00    +0.000 C 
ENDROOT
BRANCH   1   7
ATOM      7  N   UNL     1      44.084   4.028  10.706  0.00  0.00    +0.000 NA
ATOM      8  H   UNL     1      43.415   3.926  11.474  0.00  0.00    +0.000 HD
BRANCH   7   9
ATOM      9  C   UNL     1      44.208   2.722  10.053  0.00  0.00    +0.000 C 
BRANCH   9  14
ATOM     10  C   UNL     1      46.743   1.625   7.633  0.00  0.00    +0.000 A 
ATOM     11  C   UNL     1      46.984   2.735   6.837  0.00  0.00    +0.000 A 
ATOM     12  C   UNL     1      46.272   3.902   7.100  0.00  0.00    +0.000 A 
ATOM     13  C   UNL     1      45.355   3.916   8.145  0.00  0.00    +0.000 A 
ATOM     14  C   UNL     1      45.178   2.755   8.897  0.00  0.00    +0.000 A 
ATOM     15  N   UNL     1      45.860   1.615   8.649  0.00  0.00    +0.000 NA
BRANCH  10  17
ATOM     16  C   UNL     1      46.681  -0.699   7.539  0.00  0.00    +0.000 C 
ATOM     17  O   UNL     1      47.458   0.481   7.349  0.00  0.00    +0.000 OA
ENDBRANCH  10  17
ENDBRANCH   9  14
ENDBRANCH   7   9
ENDBRANCH   1   7
BRANCH   4  18
ATOM     18  C   UNL     1      48.105   6.605  13.968  0.00  0.00    +0.000 C 
BRANCH  18  19
ATOM     19  N   UNL     1      47.973   6.830  15.390  0.00  0.00    +0.000 N 
ATOM     20  C   UNL     1      48.985   6.529  16.266  0.00  0.00    +0.000 C 
ATOM     21  O   UNL     1      50.076   6.110  15.884  0.00  0.00    +0.000 OA
ATOM     22  H   UNL     1      47.043   7.032  15.745  0.00  0.00    +0.000 HD
BRANCH  20  23
ATOM     23  C   UNL     1      48.723   6.757  17.689  0.00  0.00    +0.000 A 
ATOM     24  C   UNL     1      48.553   8.059  18.141  0.00  0.00    +0.000 A 
ATOM     25  S   UNL     1      48.266   8.170  19.816  0.00  0.00    +0.000 S 
ATOM     26  C   UNL     1      48.398   6.484  20.004  0.00  0.00    +0.000 A 
ATOM     27  N   UNL     1      48.287   5.912  21.232  0.00  0.00    +0.000 NA
ATOM     28  C   UNL     1      48.438   4.630  21.238  0.00  0.00    +0.000 A 
ATOM     29  N   UNL     1      48.676   3.866  20.125  0.00  0.00    +0.000 N 
ATOM     30  C   UNL     1      48.746   4.395  18.856  0.00  0.00    +0.000 A 
ATOM     31  O   UNL     1      48.871   3.674  17.871  0.00  0.00    +0.000 OA
ATOM     32  C   UNL     1      48.623   5.840  18.799  0.00  0.00    +0.000 A 
ATOM     33  H   UNL     1      48.761   2.864  20.199  0.00  0.00    +0.000 HD
ENDBRANCH  20  23
ENDBRANCH  18  19
ENDBRANCH   4  18
TORSDOF 7
ENDMDL
MODEL 5
REMARK VINA RESULT:    -6.823      1.350      2.003
REMARK INTER + INTRA:         -10.729
REMARK INTER:                  -9.559
REMARK INTRA:                  -1.170
REMARK UNBOUND:                -1.114
REMARK  Name = 
REMARK  8 active torsions:
REMARK  status: ('A' for Active; 'I' for Inactive)
REMARK    1  A    between atoms: C_1  and  O_2
REMARK    2  A    between atoms: O_2  and  C_3
REMARK    3  A    between atoms: C_7  and  C_8
REMARK    4  A    between atoms: C_8  and  N_9
REMARK    5  A    between atoms: N_9  and  C_10
REMARK    6  A    between atoms: C_13  and  C_14
REMARK    7  A    between atoms: C_14  and  N_15
REMARK    8  A    between atoms: C_16  and  C_18
REMARK                            x       y       z     vdW  Elec       q    Type
REMARK                         _______ _______ _______ _____ _____    ______ ____
ROOT
ATOM      1  C   UNL     1      45.991   6.959  11.999  0.00  0.00    +0.000 C 
ATOM      2  C   UNL     1      45.701   8.375  12.515  0.00  0.00    +0.000 C 
ATOM      3  C   UNL     1      46.599   8.749  13.691  0.00  0.00    +0.000 C 
ATOM      4  C   UNL     1      48.089   8.596  13.347  0.00  0.00    +0.000 C 
ATOM      5  C   UNL     1      48.374   7.176  12.844  0.00  0.00    +0.000 C 
ATOM      6  C   UNL     1      47.483   6.804  11.666  0.00  0.00    +0.000 C 
ENDROOT
BRANCH   1   7
ATOM      7  N   UNL     1      45.134   6.733  10.829  0.00  0.00    +0.000 NA
ATOM      8  H   UNL     1      44.369   6.109  11.097  0.00  0.00    +0.000 HD
BRANCH   7   9
ATOM      9  C   UNL     1      45.850   6.099   9.718  0.00  0.00    +0.000 C 
BRANCH   9  14
ATOM     10  C   UNL     1      44.151   2.882  10.216  0.00  0.00    +0.000 A 
ATOM     11  C   UNL     1      44.481   2.125   9.102  0.00  0.00    +0.000 A 
ATOM     12  C   UNL     1      45.294   2.701   8.130  0.00  0.00    +0.000 A 
ATOM     13  C   UNL     1      45.749   4.004   8.311  0.00  0.00    +0.000 A 
ATOM     14  C   UNL     1      45.370   4.690   9.464  0.00  0.00    +0.000 A 
ATOM     15  N   UNL     1      44.578   4.143  10.412  0.00  0.00    +0.000 NA
BRANCH  10  17
ATOM     16  C   UNL     1      43.504   2.873  12.451  0.00  0.00    +0.000 C 
ATOM     17  O   UNL     1      43.340   2.289  11.161  0.00  0.00    +0.000 OA
ENDBRANCH  10  17
ENDBRANCH   9  14
ENDBRANCH   7   9
ENDBRANCH   1   7
BRANCH   4  18
ATOM     18  C   UNL     1      49.008   8.900  14.538  0.00  0.00    +0.000 C 
BRANCH  18  19
ATOM     19  N   UNL     1      48.920   7.895  15.573  0.00  0.00    +0.000 N 
ATOM     20  C   UNL     1      49.981   7.083  15.884  0.00  0.00    +0.000 C 
ATOM     21  O   UNL     1      51.078   7.207  15.344  0.00  0.00    +0.000 OA
ATOM     22  H   UNL     1      47.994   7.672  15.928  0.00  0.00    +0.000 HD
BRANCH  20  23
ATOM     23  C   UNL     1      49.763   6.070  16.920  0.00  0.00    +0.000 A 
ATOM     24  C   UNL     1      50.600   6.050  18.028  0.00  0.00    +0.000 A 
ATOM     25  S   UNL     1      50.233   4.814  19.140  0.00  0.00    +0.000 S 
ATOM     26  C   UNL     1      48.966   4.237  18.162  0.00  0.00    +0.000 A 
ATOM     27  N   UNL     1      48.247   3.143  18.531  0.00  0.00    +0.000 NA
ATOM     28  C   UNL     1      47.338   2.794  17.685  0.00  0.00    +0.000 A 
ATOM     29  N   UNL     1      47.072   3.447  16.510  0.00  0.00    +0.000 N 
ATOM     30  C   UNL     1      47.739   4.586  16.120  0.00  0.00    +0.000 A 
ATOM     31  O   UNL     1      47.416   5.197  15.105  0.00  0.00    +0.000 OA
ATOM     32  C   UNL     1      48.801   4.998  17.017  0.00  0.00    +0.000 A 
ATOM     33  H   UNL     1      46.328   3.132  15.904  0.00  0.00    +0.000 HD
ENDBRANCH  20  23
ENDBRANCH  18  19
ENDBRANCH   4  18
TORSDOF 7
ENDMDL
MODEL 6
REMARK VINA RESULT:    -6.773      5.009      9.681
REMARK INTER + INTRA:         -10.658
REMARK INTER:                 -10.000
REMARK INTRA:                  -0.658
REMARK UNBOUND:                -1.114
REMARK  Name = 
REMARK  8 active torsions:
REMARK  status: ('A' for Active; 'I' for Inactive)
REMARK    1  A    between atoms: C_1  and  O_2
REMARK    2  A    between atoms: O_2  and  C_3
REMARK    3  A    between atoms: C_7  and  C_8
REMARK    4  A    between atoms: C_8  and  N_9
REMARK    5  A    between atoms: N_9  and  C_10
REMARK    6  A    between atoms: C_13  and  C_14
REMARK    7  A    between atoms: C_14  and  N_15
REMARK    8  A    between atoms: C_16  and  C_18
REMARK                            x       y       z     vdW  Elec       q    Type
REMARK                         _______ _______ _______ _____ _____    ______ ____
ROOT
ATOM      1  C   UNL     1      51.634   3.448  18.090  0.00  0.00    +0.000 C 
ATOM      2  C   UNL     1      51.064   2.236  17.341  0.00  0.00    +0.000 C 
ATOM      3  C   UNL     1      49.539   2.246  17.316  0.00  0.00    +0.000 C 
ATOM      4  C   UNL     1      48.983   3.551  16.728  0.00  0.00    +0.000 C 
ATOM      5  C   UNL     1      49.546   4.757  17.488  0.00  0.00    +0.000 C 
ATOM      6  C   UNL     1      51.068   4.753  17.508  0.00  0.00    +0.000 C 
ENDROOT
BRANCH   1   7
ATOM      7  N   UNL     1      53.096   3.382  17.987  0.00  0.00    +0.000 NA
ATOM      8  H   UNL     1      53.347   3.083  17.041  0.00  0.00    +0.000 HD
BRANCH   7   9
ATOM      9  C   UNL     1      53.687   2.421  18.923  0.00  0.00    +0.000 C 
BRANCH   9  14
ATOM     10  C   UNL     1      54.366  -1.140  18.336  0.00  0.00    +0.000 A 
ATOM     11  C   UNL     1      54.927  -1.194  17.069  0.00  0.00    +0.000 A 
ATOM     12  C   UNL     1      55.083  -0.004  16.365  0.00  0.00    +0.000 A 
ATOM     13  C   UNL     1      54.678   1.190  16.952  0.00  0.00    +0.000 A 
ATOM     14  C   UNL     1      54.126   1.152  18.232  0.00  0.00    +0.000 A 
ATOM     15  N   UNL     1      53.967   0.002  18.924  0.00  0.00    +0.000 NA
BRANCH  10  17
ATOM     16  C   UNL     1      54.551  -3.455  18.194  0.00  0.00    +0.000 C 
ATOM     17  O   UNL     1      54.219  -2.334  19.010  0.00  0.00    +0.000 OA
ENDBRANCH  10  17
ENDBRANCH   9  14
ENDBRANCH   7   9
ENDBRANCH   1   7
BRANCH   4  18
ATOM     18  C   UNL     1      47.449   3.610  16.758  0.00  0.00    +0.000 C 
BRANCH  18  19
ATOM     19  N   UNL     1      46.913   4.523  15.775  0.00  0.00    +0.000 N 
ATOM     20  C   UNL     1      46.854   4.197  14.443  0.00  0.00    +0.000 C 
ATOM     21  O   UNL     1      47.196   3.093  14.025  0.00  0.00    +0.000 OA
ATOM     22  H   UNL     1      46.762   5.485  16.065  0.00  0.00    +0.000 HD
BRANCH  20  23
ATOM     23  C   UNL     1      46.331   5.218  13.531  0.00  0.00    +0.000 A 
ATOM     24  C   UNL     1      47.108   6.336  13.257  0.00  0.00    +0.000 A 
ATOM     25  S   UNL     1      46.368   7.438  12.192  0.00  0.00    +0.000 S 
ATOM     26  C   UNL     1      44.966   6.480  12.088  0.00  0.00    +0.000 A 
ATOM     27  N   UNL     1      43.903   6.884  11.344  0.00  0.00    +0.000 NA
ATOM     28  C   UNL     1      42.894   6.079  11.376  0.00  0.00    +0.000 A 
ATOM     29  N   UNL     1      42.857   4.901  12.075  0.00  0.00    +0.000 N 
ATOM     30  C   UNL     1      43.927   4.427  12.800  0.00  0.00    +0.000 A 
ATOM     31  O   UNL     1      43.893   3.326  13.340  0.00  0.00    +0.000 OA
ATOM     32  C   UNL     1      45.074   5.315  12.829  0.00  0.00    +0.000 A 
ATOM     33  H   UNL     1      42.042   4.307  12.037  0.00  0.00    +0.000 HD
ENDBRANCH  20  23
ENDBRANCH  18  19
ENDBRANCH   4  18
TORSDOF 7
ENDMDL
MODEL 7
REMARK VINA RESULT:    -6.608      3.619      5.660
REMARK INTER + INTRA:         -10.425
REMARK INTER:                  -9.700
REMARK INTRA:                  -0.725
REMARK UNBOUND:                -1.114
REMARK  Name = 
REMARK  8 active torsions:
REMARK  status: ('A' for Active; 'I' for Inactive)
REMARK    1  A    between atoms: C_1  and  O_2
REMARK    2  A    between atoms: O_2  and  C_3
REMARK    3  A    between atoms: C_7  and  C_8
REMARK    4  A    between atoms: C_8  and  N_9
REMARK    5  A    between atoms: N_9  and  C_10
REMARK    6  A    between atoms: C_13  and  C_14
REMARK    7  A    between atoms: C_14  and  N_15
REMARK    8  A    between atoms: C_16  and  C_18
REMARK                            x       y       z     vdW  Elec       q    Type
REMARK                         _______ _______ _______ _____ _____    ______ ____
ROOT
ATOM      1  C   UNL     1      44.379   6.505  11.465  0.00  0.00    +0.000 C 
ATOM      2  C   UNL     1      43.632   5.558  12.413  0.00  0.00    +0.000 C 
ATOM      3  C   UNL     1      44.539   4.454  12.948  0.00  0.00    +0.000 C 
ATOM      4  C   UNL     1      45.791   5.022  13.633  0.00  0.00    +0.000 C 
ATOM      5  C   UNL     1      46.540   5.958  12.677  0.00  0.00    +0.000 C 
ATOM      6  C   UNL     1      45.638   7.064  12.147  0.00  0.00    +0.000 C 
ENDROOT
BRANCH   1   7
ATOM      7  N   UNL     1      43.443   7.565  11.074  0.00  0.00    +0.000 NA
ATOM      8  H   UNL     1      43.120   7.384  10.119  0.00  0.00    +0.000 HD
BRANCH   7   9
ATOM      9  C   UNL     1      44.058   8.896  11.085  0.00  0.00    +0.000 C 
BRANCH   9  14
ATOM     10  C   UNL     1      41.014  10.775  10.255  0.00  0.00    +0.000 A 
ATOM     11  C   UNL     1      41.436  11.784   9.402  0.00  0.00    +0.000 A 
ATOM     12  C   UNL     1      42.790  11.860   9.089  0.00  0.00    +0.000 A 
ATOM     13  C   UNL     1      43.666  10.927   9.634  0.00  0.00    +0.000 A 
ATOM     14  C   UNL     1      43.154   9.944  10.480  0.00  0.00    +0.000 A 
ATOM     15  N   UNL     1      41.843   9.863  10.794  0.00  0.00    +0.000 NA
BRANCH  10  17
ATOM     16  C   UNL     1      39.361  11.409  11.765  0.00  0.00    +0.000 C 
ATOM     17  O   UNL     1      39.669  10.726  10.552  0.00  0.00    +0.000 OA
ENDBRANCH  10  17
ENDBRANCH   9  14
ENDBRANCH   7   9
ENDBRANCH   1   7
BRANCH   4  18
ATOM     18  C   UNL     1      46.752   3.927  14.117  0.00  0.00    +0.000 C 
BRANCH  18  19
ATOM     19  N   UNL     1      47.642   4.393  15.156  0.00  0.00    +0.000 N 
ATOM     20  C   UNL     1      47.463   4.045  16.471  0.00  0.00    +0.000 C 
ATOM     21  O   UNL     1      46.575   3.273  16.826  0.00  0.00    +0.000 OA
ATOM     22  H   UNL     1      48.286   5.141  14.916  0.00  0.00    +0.000 HD
BRANCH  20  23
ATOM     23  C   UNL     1      48.400   4.613  17.443  0.00  0.00    +0.000 A 
ATOM     24  C   UNL     1      48.066   5.796  18.088  0.00  0.00    +0.000 A 
ATOM     25  S   UNL     1      49.253   6.340  19.180  0.00  0.00    +0.000 S 
ATOM     26  C   UNL     1      50.275   5.034  18.801  0.00  0.00    +0.000 A 
ATOM     27  N   UNL     1      51.501   4.921  19.378  0.00  0.00    +0.000 NA
ATOM     28  C   UNL     1      52.186   3.902  18.980  0.00  0.00    +0.000 A 
ATOM     29  N   UNL     1      51.751   2.978  18.066  0.00  0.00    +0.000 N 
ATOM     30  C   UNL     1      50.499   3.022  17.495  0.00  0.00    +0.000 A 
ATOM     31  O   UNL     1      50.107   2.130  16.749  0.00  0.00    +0.000 OA
ATOM     32  C   UNL     1      49.704   4.173  17.879  0.00  0.00    +0.000 A 
ATOM     33  H   UNL     1      52.331   2.190  17.817  0.00  0.00    +0.000 HD
ENDBRANCH  20  23
ENDBRANCH  18  19
ENDBRANCH   4  18
TORSDOF 7
ENDMDL
MODEL 8
REMARK VINA RESULT:    -6.582      2.209      3.058
REMARK INTER + INTRA:         -10.388
REMARK INTER:                  -9.928
REMARK INTRA:                  -0.461
REMARK UNBOUND:                -1.114
REMARK  Name = 
REMARK  8 active torsions:
REMARK  status: ('A' for Active; 'I' for Inactive)
REMARK    1  A    between atoms: C_1  and  O_2
REMARK    2  A    between atoms: O_2  and  C_3
REMARK    3  A    between atoms: C_7  and  C_8
REMARK    4  A    between atoms: C_8  and  N_9
REMARK    5  A    between atoms: N_9  and  C_10
REMARK    6  A    between atoms: C_13  and  C_14
REMARK    7  A    between atoms: C_14  and  N_15
REMARK    8  A    between atoms: C_16  and  C_18
REMARK                            x       y       z     vdW  Elec       q    Type
REMARK                         _______ _______ _______ _____ _____    ______ ____
ROOT
ATOM      1  C   UNL     1      45.094   4.529  11.499  0.00  0.00    +0.000 C 
ATOM      2  C   UNL     1      44.969   4.477  13.027  0.00  0.00    +0.000 C 
ATOM      3  C   UNL     1      46.184   5.084  13.720  0.00  0.00    +0.000 C 
ATOM      4  C   UNL     1      46.454   6.522  13.252  0.00  0.00    +0.000 C 
ATOM      5  C   UNL     1      46.591   6.565  11.726  0.00  0.00    +0.000 C 
ATOM      6  C   UNL     1      45.375   5.966  11.032  0.00  0.00    +0.000 C 
ENDROOT
BRANCH   1   7
ATOM      7  N   UNL     1      43.849   3.996  10.935  0.00  0.00    +0.000 NA
ATOM      8  H   UNL     1      43.166   3.886  11.690  0.00  0.00    +0.000 HD
BRANCH   7   9
ATOM      9  C   UNL     1      44.027   2.682  10.310  0.00  0.00    +0.000 C 
BRANCH   9  14
ATOM     10  C   UNL     1      46.417   1.647   7.720  0.00  0.00    +0.000 A 
ATOM     11  C   UNL     1      46.624   2.782   6.949  0.00  0.00    +0.000 A 
ATOM     12  C   UNL     1      45.938   3.944   7.288  0.00  0.00    +0.000 A 
ATOM     13  C   UNL     1      45.079   3.931   8.382  0.00  0.00    +0.000 A 
ATOM     14  C   UNL     1      44.933   2.747   9.103  0.00  0.00    +0.000 A 
ATOM     15  N   UNL     1      45.591   1.611   8.782  0.00  0.00    +0.000 NA
BRANCH  10  17
ATOM     16  C   UNL     1      47.392   0.474   5.964  0.00  0.00    +0.000 C 
ATOM     17  O   UNL     1      47.105   0.509   7.360  0.00  0.00    +0.000 OA
ENDBRANCH  10  17
ENDBRANCH   9  14
ENDBRANCH   7   9
ENDBRANCH   1   7
BRANCH   4  18
ATOM     18  C   UNL     1      47.714   7.127  13.886  0.00  0.00    +0.000 C 
BRANCH  18  19
ATOM     19  N   UNL     1      48.201   6.346  15.000  0.00  0.00    +0.000 N 
ATOM     20  C   UNL     1      48.866   6.923  16.052  0.00  0.00    +0.000 C 
ATOM     21  O   UNL     1      49.030   8.138  16.132  0.00  0.00    +0.000 OA
ATOM     22  H   UNL     1      48.211   5.336  14.891  0.00  0.00    +0.000 HD
BRANCH  20  23
ATOM     23  C   UNL     1      49.352   6.027  17.104  0.00  0.00    +0.000 A 
ATOM     24  C   UNL     1      48.433   5.420  17.949  0.00  0.00    +0.000 A 
ATOM     25  S   UNL     1      49.144   4.416  19.126  0.00  0.00    +0.000 S 
ATOM     26  C   UNL     1      50.709   4.787  18.573  0.00  0.00    +0.000 A 
ATOM     27  N   UNL     1      51.804   4.269  19.190  0.00  0.00    +0.000 NA
ATOM     28  C   UNL     1      52.930   4.655  18.691  0.00  0.00    +0.000 A 
ATOM     29  N   UNL     1      53.060   5.502  17.621  0.00  0.00    +0.000 N 
ATOM     30  C   UNL     1      51.981   6.010  16.934  0.00  0.00    +0.000 A 
ATOM     31  O   UNL     1      52.132   6.694  15.926  0.00  0.00    +0.000 OA
ATOM     32  C   UNL     1      50.690   5.639  17.481  0.00  0.00    +0.000 A 
ATOM     33  H   UNL     1      53.973   5.745  17.267  0.00  0.00    +0.000 HD
ENDBRANCH  20  23
ENDBRANCH  18  19
ENDBRANCH   4  18
TORSDOF 7
ENDMDL
MODEL 9
REMARK VINA RESULT:    -6.385      2.011      2.496
REMARK INTER + INTRA:         -10.111
REMARK INTER:                  -9.252
REMARK INTRA:                  -0.859
REMARK UNBOUND:                -1.114
REMARK  Name = 
REMARK  8 active torsions:
REMARK  status: ('A' for Active; 'I' for Inactive)
REMARK    1  A    between atoms: C_1  and  O_2
REMARK    2  A    between atoms: O_2  and  C_3
REMARK    3  A    between atoms: C_7  and  C_8
REMARK    4  A    between atoms: C_8  and  N_9
REMARK    5  A    between atoms: N_9  and  C_10
REMARK    6  A    between atoms: C_13  and  C_14
REMARK    7  A    between atoms: C_14  and  N_15
REMARK    8  A    between atoms: C_16  and  C_18
REMARK                            x       y       z     vdW  Elec       q    Type
REMARK                         _______ _______ _______ _____ _____    ______ ____
ROOT
ATOM      1  C   UNL     1      46.954   6.604  11.895  0.00  0.00    +0.000 C 
ATOM      2  C   UNL     1      46.696   6.305  13.377  0.00  0.00    +0.000 C 
ATOM      3  C   UNL     1      47.994   6.184  14.169  0.00  0.00    +0.000 C 
ATOM      4  C   UNL     1      48.878   7.432  14.018  0.00  0.00    +0.000 C 
ATOM      5  C   UNL     1      49.142   7.718  12.536  0.00  0.00    +0.000 C 
ATOM      6  C   UNL     1      47.847   7.846  11.745  0.00  0.00    +0.000 C 
ENDROOT
BRANCH   1   7
ATOM      7  N   UNL     1      45.649   6.777  11.247  0.00  0.00    +0.000 NA
ATOM      8  H   UNL     1      45.209   7.626  11.612  0.00  0.00    +0.000 HD
BRANCH   7   9
ATOM      9  C   UNL     1      44.735   5.661  11.507  0.00  0.00    +0.000 C 
BRANCH   9  14
ATOM     10  C   UNL     1      45.560   3.994   8.340  0.00  0.00    +0.000 A 
ATOM     11  C   UNL     1      45.020   2.722   8.453  0.00  0.00    +0.000 A 
ATOM     12  C   UNL     1      44.360   2.387   9.632  0.00  0.00    +0.000 A 
ATOM     13  C   UNL     1      44.260   3.334  10.646  0.00  0.00    +0.000 A 
ATOM     14  C   UNL     1      44.830   4.591  10.446  0.00  0.00    +0.000 A 
ATOM     15  N   UNL     1      45.477   4.926   9.308  0.00  0.00    +0.000 NA
BRANCH  10  17
ATOM     16  C   UNL     1      46.895   3.169   6.622  0.00  0.00    +0.000 C 
ATOM     17  O   UNL     1      46.213   4.298   7.164  0.00  0.00    +0.000 OA
ENDBRANCH  10  17
ENDBRANCH   9  14
ENDBRANCH   7   9
ENDBRANCH   1   7
BRANCH   4  18
ATOM     18  C   UNL     1      50.220   7.302  14.751  0.00  0.00    +0.000 C 
BRANCH  18  19
ATOM     19  N   UNL     1      50.095   7.515  16.175  0.00  0.00    +0.000 N 
ATOM     20  C   UNL     1      50.181   6.480  17.071  0.00  0.00    +0.000 C 
ATOM     21  O   UNL     1      50.428   5.329  16.717  0.00  0.00    +0.000 OA
ATOM     22  H   UNL     1      49.747   8.419  16.481  0.00  0.00    +0.000 HD
BRANCH  20  23
ATOM     23  C   UNL     1      49.994   6.808  18.487  0.00  0.00    +0.000 A 
ATOM     24  C   UNL     1      50.970   7.549  19.139  0.00  0.00    +0.000 A 
ATOM     25  S   UNL     1      50.622   7.844  20.779  0.00  0.00    +0.000 S 
ATOM     26  C   UNL     1      49.173   6.957  20.687  0.00  0.00    +0.000 A 
ATOM     27  N   UNL     1      48.392   6.787  21.786  0.00  0.00    +0.000 NA
ATOM     28  C   UNL     1      47.339   6.069  21.585  0.00  0.00    +0.000 A 
ATOM     29  N   UNL     1      46.989   5.516  20.381  0.00  0.00    +0.000 N 
ATOM     30  C   UNL     1      47.721   5.704  19.231  0.00  0.00    +0.000 A 
ATOM     31  O   UNL     1      47.333   5.270  18.150  0.00  0.00    +0.000 OA
ATOM     32  C   UNL     1      48.939   6.471  19.412  0.00  0.00    +0.000 A 
ATOM     33  H   UNL     1      46.137   4.983  20.289  0.00  0.00    +0.000 HD
ENDBRANCH  20  23
ENDBRANCH  18  19
ENDBRANCH   4  18
TORSDOF 7
ENDMDL
