MODEL 1
REMARK VINA RESULT:    -8.046      0.000      0.000
REMARK INTER + INTRA:         -12.723
REMARK INTER:                 -11.338
REMARK INTRA:                  -1.385
REMARK UNBOUND:                -1.385
REMARK  Name = 
REMARK  7 active torsions:
REMARK  status: ('A' for Active; 'I' for Inactive)
REMARK    1  A    between atoms: C_2  and  C_4
REMARK    2  A    between atoms: C_4  and  N_5
REMARK    3  A    between atoms: C_4  and  C_28
REMARK    4  A    between atoms: C_6  and  C_8
REMARK    5  A    between atoms: C_11  and  C_12
REMARK    6  A    between atoms: C_12  and  N_13
REMARK    7  A    between atoms: C_14  and  C_16
REMARK                            x       y       z     vdW  Elec       q    Type
REMARK                         _______ _______ _______ _____ _____    ______ ____
ROOT
ATOM      1  C   UNL     1      45.831   7.080  12.139  0.00  0.00    +0.000 A 
ATOM      2  C   UNL     1      45.475   8.310  12.711  0.00  0.00    +0.000 A 
ATOM      3  C   UNL     1      46.438   9.096  13.354  0.00  0.00    +0.000 A 
ATOM      4  C   UNL     1      47.771   8.671  13.433  0.00  0.00    +0.000 A 
ATOM      5  C   UNL     1      48.116   7.426  12.883  0.00  0.00    +0.000 A 
ATOM      6  C   UNL     1      47.154   6.637  12.240  0.00  0.00    +0.000 A 
ENDROOT
BRANCH   1   8
ATOM      7  N   UNL     1      45.300   5.019  10.967  0.00  0.00    +0.000 N 
ATOM      8  C   UNL     1      44.822   6.208  11.464  0.00  0.00    +0.000 C 
ATOM      9  O   UNL     1      43.648   6.548  11.381  0.00  0.00    +0.000 OA
ATOM     10  H   UNL     1      46.153   4.657  11.365  0.00  0.00    +0.000 HD
BRANCH   7  11
ATOM     11  C   UNL     1      44.424   4.032  10.346  0.00  0.00    +0.000 C 
BRANCH  11  12
ATOM     12  C   UNL     1      45.161   3.376   9.186  0.00  0.00    +0.000 A 
ATOM     13  C   UNL     1      45.723   4.162   8.167  0.00  0.00    +0.000 A 
ATOM     14  C   UNL     1      46.467   3.570   7.143  0.00  0.00    +0.000 A 
ATOM     15  C   UNL     1      46.662   2.191   7.124  0.00  0.00    +0.000 A 
ATOM     16  C   UNL     1      46.094   1.395   8.115  0.00  0.00    +0.000 A 
ATOM     17  C   UNL     1      45.341   1.982   9.135  0.00  0.00    +0.000 A 
ENDBRANCH  11  12
BRANCH  11  19
ATOM     18  N   UNL     1      44.865   2.755  12.421  0.00  0.00    +0.000 N 
ATOM     19  C   UNL     1      43.986   2.984  11.399  0.00  0.00    +0.000 C 
ATOM     20  O   UNL     1      42.893   2.416  11.383  0.00  0.00    +0.000 OA
ATOM     21  H   UNL     1      44.619   2.034  13.089  0.00  0.00    +0.000 HD
ATOM     22  H   UNL     1      45.832   3.047  12.377  0.00  0.00    +0.000 HD
ENDBRANCH  11  19
ENDBRANCH   7  11
ENDBRANCH   1   8
BRANCH   4  23
ATOM     23  C   UNL     1      48.800   9.493  14.170  0.00  0.00    +0.000 C 
BRANCH  23  24
ATOM     24  N   UNL     1      49.323   8.758  15.294  0.00  0.00    +0.000 N 
ATOM     25  C   UNL     1      48.757   8.836  16.539  0.00  0.00    +0.000 C 
ATOM     26  O   UNL     1      47.746   9.496  16.756  0.00  0.00    +0.000 OA
ATOM     27  H   UNL     1      50.271   8.407  15.201  0.00  0.00    +0.000 HD
BRANCH  25  28
ATOM     28  C   UNL     1      49.391   8.029  17.592  0.00  0.00    +0.000 A 
ATOM     29  C   UNL     1      49.992   8.655  18.675  0.00  0.00    +0.000 A 
ATOM     30  S   UNL     1      50.607   7.569  19.839  0.00  0.00    +0.000 S 
ATOM     31  C   UNL     1      50.143   6.222  18.909  0.00  0.00    +0.000 A 
ATOM     32  N   UNL     1      50.394   4.955  19.335  0.00  0.00    +0.000 NA
ATOM     33  C   UNL     1      50.017   4.031  18.516  0.00  0.00    +0.000 A 
ATOM     34  N   UNL     1      49.407   4.259  17.309  0.00  0.00    +0.000 N 
ATOM     35  C   UNL     1      49.114   5.519  16.848  0.00  0.00    +0.000 A 
ATOM     36  O   UNL     1      48.541   5.687  15.777  0.00  0.00    +0.000 OA
ATOM     37  C   UNL     1      49.519   6.596  17.732  0.00  0.00    +0.000 A 
ATOM     38  H   UNL     1      49.135   3.492  16.713  0.00  0.00    +0.000 HD
ENDBRANCH  25  28
ENDBRANCH  23  24
ENDBRANCH   4  23
TORSDOF 7
ENDMDL
MODEL 2
REMARK VINA RESULT:    -7.984      3.041      4.242
REMARK INTER + INTRA:         -12.636
REMARK INTER:                 -11.800
REMARK INTRA:                  -0.837
REMARK UNBOUND:                -1.385
REMARK  Name = 
REMARK  7 active torsions:
REMARK  status: ('A' for Active; 'I' for Inactive)
REMARK    1  A    between atoms: C_2  and  C_4
REMARK    2  A    between atoms: C_4  and  N_5
REMARK    3  A    between atoms: C_4  and  C_28
REMARK    4  A    between atoms: C_6  and  C_8
REMARK    5  A    between atoms: C_11  and  C_12
REMARK    6  A    between atoms: C_12  and  N_13
REMARK    7  A    between atoms: C_14  and  C_16
REMARK                            x       y       z     vdW  Elec       q    Type
REMARK                         _______ _______ _______ _____ _____    ______ ____
ROOT
ATOM      1  C   UNL     1      47.210   5.664  13.832  0.00  0.00    +0.000 A 
ATOM      2  C   UNL     1      48.118   6.508  14.488  0.00  0.00    +0.000 A 
ATOM      3  C   UNL     1      48.623   6.162  15.747  0.00  0.00    +0.000 A 
ATOM      4  C   UNL     1      48.233   4.969  16.370  0.00  0.00    +0.000 A 
ATOM      5  C   UNL     1      47.303   4.141  15.721  0.00  0.00    +0.000 A 
ATOM      6  C   UNL     1      46.796   4.486  14.462  0.00  0.00    +0.000 A 
ENDROOT
BRANCH   1   8
ATOM      7  N   UNL     1      45.500   5.332  12.139  0.00  0.00    +0.000 N 
ATOM      8  C   UNL     1      46.637   6.016  12.498  0.00  0.00    +0.000 C 
ATOM      9  O   UNL     1      47.159   6.870  11.791  0.00  0.00    +0.000 OA
ATOM     10  H   UNL     1      44.947   4.926  12.879  0.00  0.00    +0.000 HD
BRANCH   7  11
ATOM     11  C   UNL     1      44.785   5.615  10.899  0.00  0.00    +0.000 C 
BRANCH  11  12
ATOM     12  C   UNL     1      45.077   4.507   9.896  0.00  0.00    +0.000 A 
ATOM     13  C   UNL     1      45.693   4.805   8.669  0.00  0.00    +0.000 A 
ATOM     14  C   UNL     1      46.033   3.783   7.779  0.00  0.00    +0.000 A 
ATOM     15  C   UNL     1      45.767   2.454   8.102  0.00  0.00    +0.000 A 
ATOM     16  C   UNL     1      45.138   2.144   9.305  0.00  0.00    +0.000 A 
ATOM     17  C   UNL     1      44.787   3.163  10.192  0.00  0.00    +0.000 A 
ENDBRANCH  11  12
BRANCH  11  19
ATOM     18  N   UNL     1      42.725   6.980  11.065  0.00  0.00    +0.000 N 
ATOM     19  C   UNL     1      43.266   5.730  11.185  0.00  0.00    +0.000 C 
ATOM     20  O   UNL     1      42.547   4.766  11.446  0.00  0.00    +0.000 OA
ATOM     21  H   UNL     1      41.746   7.084  11.300  0.00  0.00    +0.000 HD
ATOM     22  H   UNL     1      43.296   7.815  11.039  0.00  0.00    +0.000 HD
ENDBRANCH  11  19
ENDBRANCH   7  11
ENDBRANCH   1   8
BRANCH   4  23
ATOM     23  C   UNL     1      48.737   4.618  17.748  0.00  0.00    +0.000 C 
BRANCH  23  24
ATOM     24  N   UNL     1      50.086   4.116  17.680  0.00  0.00    +0.000 N 
ATOM     25  C   UNL     1      50.994   4.333  18.684  0.00  0.00    +0.000 C 
ATOM     26  O   UNL     1      50.694   4.925  19.717  0.00  0.00    +0.000 OA
ATOM     27  H   UNL     1      50.419   3.842  16.762  0.00  0.00    +0.000 HD
BRANCH  25  28
ATOM     28  C   UNL     1      52.331   3.759  18.486  0.00  0.00    +0.000 A 
ATOM     29  C   UNL     1      53.458   4.510  18.790  0.00  0.00    +0.000 A 
ATOM     30  S   UNL     1      54.925   3.664  18.575  0.00  0.00    +0.000 S 
ATOM     31  C   UNL     1      54.108   2.281  18.013  0.00  0.00    +0.000 A 
ATOM     32  N   UNL     1      54.792   1.168  17.634  0.00  0.00    +0.000 NA
ATOM     33  C   UNL     1      54.049   0.206  17.198  0.00  0.00    +0.000 A 
ATOM     34  N   UNL     1      52.682   0.255  17.110  0.00  0.00    +0.000 N 
ATOM     35  C   UNL     1      51.948   1.348  17.501  0.00  0.00    +0.000 A 
ATOM     36  O   UNL     1      50.723   1.347  17.436  0.00  0.00    +0.000 OA
ATOM     37  C   UNL     1      52.736   2.459  17.998  0.00  0.00    +0.000 A 
ATOM     38  H   UNL     1      52.157  -0.533  16.761  0.00  0.00    +0.000 HD
ENDBRANCH  25  28
ENDBRANCH  23  24
ENDBRANCH   4  23
TORSDOF 7
ENDMDL
MODEL 3
REMARK VINA RESULT:    -7.859      1.051      1.103
REMARK INTER + INTRA:         -12.459
REMARK INTER:                 -11.134
REMARK INTRA:                  -1.326
REMARK UNBOUND:                -1.385
REMARK  Name = 
REMARK  7 active torsions:
REMARK  status: ('A' for Active; 'I' for Inactive)
REMARK    1  A    between atoms: C_2  and  C_4
REMARK    2  A    between atoms: C_4  and  N_5
REMARK    3  A    between atoms: C_4  and  C_28
REMARK    4  A    between atoms: C_6  and  C_8
REMARK    5  A    between atoms: C_11  and  C_12
REMARK    6  A    between atoms: C_12  and  N_13
REMARK    7  A    between atoms: C_14  and  C_16
REMARK                            x       y       z     vdW  Elec       q    Type
REMARK                         _______ _______ _______ _____ _____    ______ ____
ROOT
ATOM      1  C   UNL     1      45.838   7.090  12.069  0.00  0.00    +0.000 A 
ATOM      2  C   UNL     1      45.472   8.277  12.719  0.00  0.00    +0.000 A 
ATOM      3  C   UNL     1      46.440   9.065  13.352  0.00  0.00    +0.000 A 
ATOM      4  C   UNL     1      47.789   8.683  13.344  0.00  0.00    +0.000 A 
ATOM      5  C   UNL     1      48.146   7.480  12.715  0.00  0.00    +0.000 A 
ATOM      6  C   UNL     1      47.178   6.690  12.082  0.00  0.00    +0.000 A 
ENDROOT
BRANCH   1   8
ATOM      7  N   UNL     1      45.299   5.025  10.907  0.00  0.00    +0.000 N 
ATOM      8  C   UNL     1      44.825   6.217  11.402  0.00  0.00    +0.000 C 
ATOM      9  O   UNL     1      43.651   6.558  11.322  0.00  0.00    +0.000 OA
ATOM     10  H   UNL     1      46.154   4.663  11.303  0.00  0.00    +0.000 HD
BRANCH   7  11
ATOM     11  C   UNL     1      44.419   4.037  10.293  0.00  0.00    +0.000 C 
BRANCH  11  12
ATOM     12  C   UNL     1      45.156   3.365   9.142  0.00  0.00    +0.000 A 
ATOM     13  C   UNL     1      45.719   4.137   8.113  0.00  0.00    +0.000 A 
ATOM     14  C   UNL     1      46.461   3.532   7.096  0.00  0.00    +0.000 A 
ATOM     15  C   UNL     1      46.654   2.152   7.095  0.00  0.00    +0.000 A 
ATOM     16  C   UNL     1      46.085   1.370   8.096  0.00  0.00    +0.000 A 
ATOM     17  C   UNL     1      45.334   1.970   9.108  0.00  0.00    +0.000 A 
ENDBRANCH  11  12
BRANCH  11  19
ATOM     18  N   UNL     1      44.846   2.780  12.384  0.00  0.00    +0.000 N 
ATOM     19  C   UNL     1      43.972   3.002  11.356  0.00  0.00    +0.000 C 
ATOM     20  O   UNL     1      42.878   2.438  11.341  0.00  0.00    +0.000 OA
ATOM     21  H   UNL     1      44.594   2.068  13.058  0.00  0.00    +0.000 HD
ATOM     22  H   UNL     1      45.814   3.069  12.341  0.00  0.00    +0.000 HD
ENDBRANCH  11  19
ENDBRANCH   7  11
ENDBRANCH   1   8
BRANCH   4  23
ATOM     23  C   UNL     1      48.827   9.504  14.069  0.00  0.00    +0.000 C 
BRANCH  23  24
ATOM     24  N   UNL     1      49.277   8.817  15.253  0.00  0.00    +0.000 N 
ATOM     25  C   UNL     1      50.501   8.204  15.316  0.00  0.00    +0.000 C 
ATOM     26  O   UNL     1      51.301   8.248  14.386  0.00  0.00    +0.000 OA
ATOM     27  H   UNL     1      48.562   8.566  15.928  0.00  0.00    +0.000 HD
BRANCH  25  28
ATOM     28  C   UNL     1      50.833   7.546  16.587  0.00  0.00    +0.000 A 
ATOM     29  C   UNL     1      51.899   8.008  17.347  0.00  0.00    +0.000 A 
ATOM     30  S   UNL     1      52.094   7.181  18.828  0.00  0.00    +0.000 S 
ATOM     31  C   UNL     1      50.795   6.139  18.480  0.00  0.00    +0.000 A 
ATOM     32  N   UNL     1      50.430   5.159  19.350  0.00  0.00    +0.000 NA
ATOM     33  C   UNL     1      49.450   4.422  18.945  0.00  0.00    +0.000 A 
ATOM     34  N   UNL     1      48.798   4.579  17.749  0.00  0.00    +0.000 N 
ATOM     35  C   UNL     1      49.117   5.567  16.850  0.00  0.00    +0.000 A 
ATOM     36  O   UNL     1      48.495   5.697  15.801  0.00  0.00    +0.000 OA
ATOM     37  C   UNL     1      50.215   6.423  17.257  0.00  0.00    +0.000 A 
ATOM     38  H   UNL     1      48.037   3.969  17.490  0.00  0.00    +0.000 HD
ENDBRANCH  25  28
ENDBRANCH  23  24
ENDBRANCH   4  23
TORSDOF 7
ENDMDL
MODEL 4
REMARK VINA RESULT:    -7.516      1.411      1.748
REMARK INTER + INTRA:         -11.977
REMARK INTER:                 -10.888
REMARK INTRA:                  -1.088
REMARK UNBOUND:                -1.385
REMARK  Name = 
REMARK  7 active torsions:
REMARK  status: ('A' for Active; 'I' for Inactive)
REMARK    1  A    between atoms: C_2  and  C_4
REMARK    2  A    between atoms: C_4  and  N_5
REMARK    3  A    between atoms: C_4  and  C_28
REMARK    4  A    between atoms: C_6  and  C_8
REMARK    5  A    between atoms: C_11  and  C_12
REMARK    6  A    between atoms: C_12  and  N_13
REMARK    7  A    between atoms: C_14  and  C_16
REMARK                            x       y       z     vdW  Elec       q    Type
REMARK                         _______ _______ _______ _____ _____    ______ ____
ROOT
ATOM      1  C   UNL     1      45.908   7.161  12.043  0.00  0.00    +0.000 A 
ATOM      2  C   UNL     1      45.492   8.238  12.839  0.00  0.00    +0.000 A 
ATOM      3  C   UNL     1      46.435   9.035  13.499  0.00  0.00    +0.000 A 
ATOM      4  C   UNL     1      47.806   8.773  13.374  0.00  0.00    +0.000 A 
ATOM      5  C   UNL     1      48.215   7.676  12.598  0.00  0.00    +0.000 A 
ATOM      6  C   UNL     1      47.273   6.876  11.938  0.00  0.00    +0.000 A 
ENDROOT
BRANCH   1   8
ATOM      7  N   UNL     1      45.426   5.091  10.865  0.00  0.00    +0.000 N 
ATOM      8  C   UNL     1      44.926   6.279  11.343  0.00  0.00    +0.000 C 
ATOM      9  O   UNL     1      43.752   6.610  11.224  0.00  0.00    +0.000 OA
ATOM     10  H   UNL     1      46.271   4.737  11.289  0.00  0.00    +0.000 HD
BRANCH   7  11
ATOM     11  C   UNL     1      44.576   4.096  10.222  0.00  0.00    +0.000 C 
BRANCH  11  12
ATOM     12  C   UNL     1      45.358   3.428   9.099  0.00  0.00    +0.000 A 
ATOM     13  C   UNL     1      45.476   2.030   9.050  0.00  0.00    +0.000 A 
ATOM     14  C   UNL     1      46.126   1.409   7.980  0.00  0.00    +0.000 A 
ATOM     15  C   UNL     1      46.662   2.174   6.946  0.00  0.00    +0.000 A 
ATOM     16  C   UNL     1      46.572   3.562   6.990  0.00  0.00    +0.000 A 
ATOM     17  C   UNL     1      45.932   4.186   8.062  0.00  0.00    +0.000 A 
ENDBRANCH  11  12
BRANCH  11  19
ATOM     18  N   UNL     1      44.977   2.779  12.281  0.00  0.00    +0.000 N 
ATOM     19  C   UNL     1      44.100   3.059  11.270  0.00  0.00    +0.000 C 
ATOM     20  O   UNL     1      42.982   2.543  11.260  0.00  0.00    +0.000 OA
ATOM     21  H   UNL     1      44.704   2.064  12.944  0.00  0.00    +0.000 HD
ATOM     22  H   UNL     1      45.956   3.026  12.229  0.00  0.00    +0.000 HD
ENDBRANCH  11  19
ENDBRANCH   7  11
ENDBRANCH   1   8
BRANCH   4  23
ATOM     23  C   UNL     1      48.821   9.599  14.125  0.00  0.00    +0.000 C 
BRANCH  23  24
ATOM     24  N   UNL     1      48.610   9.488  15.546  0.00  0.00    +0.000 N 
ATOM     25  C   UNL     1      49.297   8.585  16.315  0.00  0.00    +0.000 C 
ATOM     26  O   UNL     1      50.164   7.855  15.844  0.00  0.00    +0.000 OA
ATOM     27  H   UNL     1      47.754   9.897  15.908  0.00  0.00    +0.000 HD
BRANCH  25  28
ATOM     28  C   UNL     1      48.985   8.585  17.751  0.00  0.00    +0.000 A 
ATOM     29  C   UNL     1      49.241   9.717  18.514  0.00  0.00    +0.000 A 
ATOM     30  S   UNL     1      48.747   9.572  20.141  0.00  0.00    +0.000 S 
ATOM     31  C   UNL     1      48.225   7.971  19.898  0.00  0.00    +0.000 A 
ATOM     32  N   UNL     1      47.696   7.244  20.918  0.00  0.00    +0.000 NA
ATOM     33  C   UNL     1      47.372   6.035  20.601  0.00  0.00    +0.000 A 
ATOM     34  N   UNL     1      47.526   5.488  19.353  0.00  0.00    +0.000 N 
ATOM     35  C   UNL     1      48.034   6.190  18.288  0.00  0.00    +0.000 A 
ATOM     36  O   UNL     1      48.132   5.679  17.178  0.00  0.00    +0.000 OA
ATOM     37  C   UNL     1      48.416   7.556  18.592  0.00  0.00    +0.000 A 
ATOM     38  H   UNL     1      47.252   4.534  19.168  0.00  0.00    +0.000 HD
ENDBRANCH  25  28
ENDBRANCH  23  24
ENDBRANCH   4  23
TORSDOF 7
ENDMDL
MODEL 5
REMARK VINA RESULT:    -7.440      2.617      4.031
REMARK INTER + INTRA:         -11.869
REMARK INTER:                 -10.801
REMARK INTRA:                  -1.068
REMARK UNBOUND:                -1.385
REMARK  Name = 
REMARK  7 active torsions:
REMARK  status: ('A' for Active; 'I' for Inactive)
REMARK    1  A    between atoms: C_2  and  C_4
REMARK    2  A    between atoms: C_4  and  N_5
REMARK    3  A    between atoms: C_4  and  C_28
REMARK    4  A    between atoms: C_6  and  C_8
REMARK    5  A    between atoms: C_11  and  C_12
REMARK    6  A    between atoms: C_12  and  N_13
REMARK    7  A    between atoms: C_14  and  C_16
REMARK                            x       y       z     vdW  Elec       q    Type
REMARK                         _______ _______ _______ _____ _____    ______ ____
ROOT
ATOM      1  C   UNL     1      47.296   5.800  13.798  0.00  0.00    +0.000 A 
ATOM      2  C   UNL     1      48.264   6.647  14.355  0.00  0.00    +0.000 A 
ATOM      3  C   UNL     1      48.814   6.364  15.611  0.00  0.00    +0.000 A 
ATOM      4  C   UNL     1      48.410   5.230  16.329  0.00  0.00    +0.000 A 
ATOM      5  C   UNL     1      47.420   4.400  15.778  0.00  0.00    +0.000 A 
ATOM      6  C   UNL     1      46.868   4.683  14.522  0.00  0.00    +0.000 A 
ENDROOT
BRANCH   1   8
ATOM      7  N   UNL     1      45.414   5.573  12.277  0.00  0.00    +0.000 N 
ATOM      8  C   UNL     1      46.675   6.087  12.469  0.00  0.00    +0.000 C 
ATOM      9  O   UNL     1      47.266   6.750  11.625  0.00  0.00    +0.000 OA
ATOM     10  H   UNL     1      44.869   5.358  13.098  0.00  0.00    +0.000 HD
BRANCH   7  11
ATOM     11  C   UNL     1      44.651   5.828  11.061  0.00  0.00    +0.000 C 
BRANCH  11  12
ATOM     12  C   UNL     1      44.843   4.661  10.102  0.00  0.00    +0.000 A 
ATOM     13  C   UNL     1      45.535   4.843   8.893  0.00  0.00    +0.000 A 
ATOM     14  C   UNL     1      45.781   3.759   8.046  0.00  0.00    +0.000 A 
ATOM     15  C   UNL     1      45.345   2.483   8.396  0.00  0.00    +0.000 A 
ATOM     16  C   UNL     1      44.640   2.290   9.580  0.00  0.00    +0.000 A 
ATOM     17  C   UNL     1      44.383   3.372  10.424  0.00  0.00    +0.000 A 
ENDBRANCH  11  12
BRANCH  11  19
ATOM     18  N   UNL     1      42.600   7.216  11.029  0.00  0.00    +0.000 N 
ATOM     19  C   UNL     1      43.155   6.027  11.413  0.00  0.00    +0.000 C 
ATOM     20  O   UNL     1      42.461   5.164  11.951  0.00  0.00    +0.000 OA
ATOM     21  H   UNL     1      41.639   7.385  11.299  0.00  0.00    +0.000 HD
ATOM     22  H   UNL     1      43.162   8.012  10.762  0.00  0.00    +0.000 HD
ENDBRANCH  11  19
ENDBRANCH   7  11
ENDBRANCH   1   8
BRANCH   4  23
ATOM     23  C   UNL     1      48.964   4.949  17.704  0.00  0.00    +0.000 C 
BRANCH  23  24
ATOM     24  N   UNL     1      48.773   6.088  18.567  0.00  0.00    +0.000 N 
ATOM     25  C   UNL     1      47.567   6.356  19.159  0.00  0.00    +0.000 C 
ATOM     26  O   UNL     1      46.597   5.616  19.027  0.00  0.00    +0.000 OA
ATOM     27  H   UNL     1      49.468   6.825  18.500  0.00  0.00    +0.000 HD
BRANCH  25  28
ATOM     28  C   UNL     1      47.517   7.547  20.019  0.00  0.00    +0.000 A 
ATOM     29  C   UNL     1      47.371   7.403  21.392  0.00  0.00    +0.000 A 
ATOM     30  S   UNL     1      47.412   8.881  22.244  0.00  0.00    +0.000 S 
ATOM     31  C   UNL     1      47.569   9.771  20.802  0.00  0.00    +0.000 A 
ATOM     32  N   UNL     1      47.645  11.129  20.822  0.00  0.00    +0.000 NA
ATOM     33  C   UNL     1      47.729  11.676  19.655  0.00  0.00    +0.000 A 
ATOM     34  N   UNL     1      47.748  10.988  18.470  0.00  0.00    +0.000 N 
ATOM     35  C   UNL     1      47.697   9.617  18.403  0.00  0.00    +0.000 A 
ATOM     36  O   UNL     1      47.745   9.031  17.327  0.00  0.00    +0.000 OA
ATOM     37  C   UNL     1      47.599   8.952  19.688  0.00  0.00    +0.000 A 
ATOM     38  H   UNL     1      47.817  11.475  17.589  0.00  0.00    +0.000 HD
ENDBRANCH  25  28
ENDBRANCH  23  24
ENDBRANCH   4  23
TORSDOF 7
ENDMDL
MODEL 6
REMARK VINA RESULT:    -7.388      2.052      2.850
REMARK INTER + INTRA:         -11.796
REMARK INTER:                 -10.630
REMARK INTRA:                  -1.167
REMARK UNBOUND:                -1.385
REMARK  Name = 
REMARK  7 active torsions:
REMARK  status: ('A' for Active; 'I' for Inactive)
REMARK    1  A    between atoms: C_2  and  C_4
REMARK    2  A    between atoms: C_4  and  N_5
REMARK    3  A    between atoms: C_4  and  C_28
REMARK    4  A    between atoms: C_6  and  C_8
REMARK    5  A    between atoms: C_11  and  C_12
REMARK    6  A    between atoms: C_12  and  N_13
REMARK    7  A    between atoms: C_14  and  C_16
REMARK                            x       y       z     vdW  Elec       q    Type
REMARK                         _______ _______ _______ _____ _____    ______ ____
ROOT
ATOM      1  C   UNL     1      45.821   6.833  12.441  0.00  0.00    +0.000 A 
ATOM      2  C   UNL     1      45.679   8.208  12.674  0.00  0.00    +0.000 A 
ATOM      3  C   UNL     1      46.589   8.885  13.495  0.00  0.00    +0.000 A 
ATOM      4  C   UNL     1      47.657   8.201  14.092  0.00  0.00    +0.000 A 
ATOM      5  C   UNL     1      47.779   6.819  13.876  0.00  0.00    +0.000 A 
ATOM      6  C   UNL     1      46.868   6.140  13.057  0.00  0.00    +0.000 A 
ENDROOT
BRANCH   1   8
ATOM      7  N   UNL     1      45.206   4.785  11.287  0.00  0.00    +0.000 N 
ATOM      8  C   UNL     1      44.853   6.079  11.587  0.00  0.00    +0.000 C 
ATOM      9  O   UNL     1      43.813   6.599  11.200  0.00  0.00    +0.000 OA
ATOM     10  H   UNL     1      45.863   4.327  11.902  0.00  0.00    +0.000 HD
BRANCH   7  11
ATOM     11  C   UNL     1      44.332   3.901  10.523  0.00  0.00    +0.000 C 
BRANCH  11  12
ATOM     12  C   UNL     1      45.102   3.354   9.330  0.00  0.00    +0.000 A 
ATOM     13  C   UNL     1      45.636   4.227   8.368  0.00  0.00    +0.000 A 
ATOM     14  C   UNL     1      46.409   3.736   7.313  0.00  0.00    +0.000 A 
ATOM     15  C   UNL     1      46.662   2.370   7.207  0.00  0.00    +0.000 A 
ATOM     16  C   UNL     1      46.123   1.488   8.140  0.00  0.00    +0.000 A 
ATOM     17  C   UNL     1      45.341   1.975   9.189  0.00  0.00    +0.000 A 
ENDBRANCH  11  12
BRANCH  11  19
ATOM     18  N   UNL     1      44.516   2.553  12.593  0.00  0.00    +0.000 N 
ATOM     19  C   UNL     1      43.819   2.758  11.435  0.00  0.00    +0.000 C 
ATOM     20  O   UNL     1      42.811   2.094  11.193  0.00  0.00    +0.000 OA
ATOM     21  H   UNL     1      44.228   1.775  13.173  0.00  0.00    +0.000 HD
ATOM     22  H   UNL     1      45.441   2.935  12.741  0.00  0.00    +0.000 HD
ENDBRANCH  11  19
ENDBRANCH   7  11
ENDBRANCH   1   8
BRANCH   4  23
ATOM     23  C   UNL     1      48.611   8.917  15.017  0.00  0.00    +0.000 C 
BRANCH  23  24
ATOM     24  N   UNL     1      48.230   8.711  16.392  0.00  0.00    +0.000 N 
ATOM     25  C   UNL     1      48.870   7.803  17.194  0.00  0.00    +0.000 C 
ATOM     26  O   UNL     1      49.833   7.150  16.801  0.00  0.00    +0.000 OA
ATOM     27  H   UNL     1      47.313   9.051  16.661  0.00  0.00    +0.000 HD
BRANCH  25  28
ATOM     28  C   UNL     1      48.382   7.701  18.576  0.00  0.00    +0.000 A 
ATOM     29  C   UNL     1      48.024   6.463  19.093  0.00  0.00    +0.000 A 
ATOM     30  S   UNL     1      47.555   6.515  20.733  0.00  0.00    +0.000 S 
ATOM     31  C   UNL     1      47.761   8.203  20.795  0.00  0.00    +0.000 A 
ATOM     32  N   UNL     1      47.508   8.899  21.937  0.00  0.00    +0.000 NA
ATOM     33  C   UNL     1      47.674  10.175  21.832  0.00  0.00    +0.000 A 
ATOM     34  N   UNL     1      48.074  10.819  20.691  0.00  0.00    +0.000 N 
ATOM     35  C   UNL     1      48.362  10.157  19.522  0.00  0.00    +0.000 A 
ATOM     36  O   UNL     1      48.746  10.761  18.527  0.00  0.00    +0.000 OA
ATOM     37  C   UNL     1      48.189   8.718  19.585  0.00  0.00    +0.000 A 
ATOM     38  H   UNL     1      48.187  11.822  20.674  0.00  0.00    +0.000 HD
ENDBRANCH  25  28
ENDBRANCH  23  24
ENDBRANCH   4  23
TORSDOF 7
ENDMDL
MODEL 7
REMARK VINA RESULT:    -6.902      4.173      4.989
REMARK INTER + INTRA:         -11.111
REMARK INTER:                 -10.030
REMARK INTRA:                  -1.081
REMARK UNBOUND:                -1.385
REMARK  Name = 
REMARK  7 active torsions:
REMARK  status: ('A' for Active; 'I' for Inactive)
REMARK    1  A    between atoms: C_2  and  C_4
REMARK    2  A    between atoms: C_4  and  N_5
REMARK    3  A    between atoms: C_4  and  C_28
REMARK    4  A    between atoms: C_6  and  C_8
REMARK    5  A    between atoms: C_11  and  C_12
REMARK    6  A    between atoms: C_12  and  N_13
REMARK    7  A    between atoms: C_14  and  C_16
REMARK                            x       y       z     vdW  Elec       q    Type
REMARK                         _______ _______ _______ _____ _____    ______ ____
ROOT
ATOM      1  C   UNL     1      45.660   7.415  11.779  0.00  0.00    +0.000 A 
ATOM      2  C   UNL     1      45.220   8.746  11.764  0.00  0.00    +0.000 A 
ATOM      3  C   UNL     1      46.094   9.784  12.109  0.00  0.00    +0.000 A 
ATOM      4  C   UNL     1      47.420   9.511  12.471  0.00  0.00    +0.000 A 
ATOM      5  C   UNL     1      47.847   8.174  12.511  0.00  0.00    +0.000 A 
ATOM      6  C   UNL     1      46.974   7.134  12.167  0.00  0.00    +0.000 A 
ENDROOT
BRANCH   1   8
ATOM      7  N   UNL     1      45.305   5.268  10.697  0.00  0.00    +0.000 N 
ATOM      8  C   UNL     1      44.745   6.284  11.436  0.00  0.00    +0.000 C 
ATOM      9  O   UNL     1      43.578   6.279  11.808  0.00  0.00    +0.000 OA
ATOM     10  H   UNL     1      46.309   5.167  10.730  0.00  0.00    +0.000 HD
BRANCH   7  11
ATOM     11  C   UNL     1      44.560   4.065  10.345  0.00  0.00    +0.000 C 
BRANCH  11  12
ATOM     12  C   UNL     1      45.252   3.377   9.177  0.00  0.00    +0.000 A 
ATOM     13  C   UNL     1      45.796   4.136   8.128  0.00  0.00    +0.000 A 
ATOM     14  C   UNL     1      46.500   3.515   7.093  0.00  0.00    +0.000 A 
ATOM     15  C   UNL     1      46.673   2.133   7.093  0.00  0.00    +0.000 A 
ATOM     16  C   UNL     1      46.122   1.364   8.115  0.00  0.00    +0.000 A 
ATOM     17  C   UNL     1      45.410   1.980   9.145  0.00  0.00    +0.000 A 
ENDBRANCH  11  12
BRANCH  11  19
ATOM     18  N   UNL     1      43.318   2.397  11.690  0.00  0.00    +0.000 N 
ATOM     19  C   UNL     1      44.468   3.128  11.576  0.00  0.00    +0.000 C 
ATOM     20  O   UNL     1      45.379   2.978  12.389  0.00  0.00    +0.000 OA
ATOM     21  H   UNL     1      43.217   1.820  12.516  0.00  0.00    +0.000 HD
ATOM     22  H   UNL     1      42.482   2.620  11.166  0.00  0.00    +0.000 HD
ENDBRANCH  11  19
ENDBRANCH   7  11
ENDBRANCH   1   8
BRANCH   4  23
ATOM     23  C   UNL     1      48.349  10.623  12.892  0.00  0.00    +0.000 C 
BRANCH  23  24
ATOM     24  N   UNL     1      49.604  10.525  12.191  0.00  0.00    +0.000 N 
ATOM     25  C   UNL     1      50.789  10.316  12.848  0.00  0.00    +0.000 C 
ATOM     26  O   UNL     1      50.840  10.151  14.063  0.00  0.00    +0.000 OA
ATOM     27  H   UNL     1      49.620  10.888  11.243  0.00  0.00    +0.000 HD
BRANCH  25  28
ATOM     28  C   UNL     1      51.991  10.232  12.007  0.00  0.00    +0.000 A 
ATOM     29  C   UNL     1      52.929  11.254  12.038  0.00  0.00    +0.000 A 
ATOM     30  S   UNL     1      54.298  10.959  11.063  0.00  0.00    +0.000 S 
ATOM     31  C   UNL     1      53.659   9.478  10.519  0.00  0.00    +0.000 A 
ATOM     32  N   UNL     1      54.339   8.706   9.630  0.00  0.00    +0.000 NA
ATOM     33  C   UNL     1      53.723   7.626   9.280  0.00  0.00    +0.000 A 
ATOM     34  N   UNL     1      52.490   7.247   9.741  0.00  0.00    +0.000 N 
ATOM     35  C   UNL     1      51.776   7.984  10.655  0.00  0.00    +0.000 A 
ATOM     36  O   UNL     1      50.687   7.601  11.069  0.00  0.00    +0.000 OA
ATOM     37  C   UNL     1      52.424   9.210  11.081  0.00  0.00    +0.000 A 
ATOM     38  H   UNL     1      52.061   6.389   9.429  0.00  0.00    +0.000 HD
ENDBRANCH  25  28
ENDBRANCH  23  24
ENDBRANCH   4  23
TORSDOF 7
ENDMDL
MODEL 8
REMARK VINA RESULT:    -6.735      6.107      7.975
REMARK INTER + INTRA:         -10.875
REMARK INTER:                  -9.609
REMARK INTRA:                  -1.266
REMARK UNBOUND:                -1.385
REMARK  Name = 
REMARK  7 active torsions:
REMARK  status: ('A' for Active; 'I' for Inactive)
REMARK    1  A    between atoms: C_2  and  C_4
REMARK    2  A    between atoms: C_4  and  N_5
REMARK    3  A    between atoms: C_4  and  C_28
REMARK    4  A    between atoms: C_6  and  C_8
REMARK    5  A    between atoms: C_11  and  C_12
REMARK    6  A    between atoms: C_12  and  N_13
REMARK    7  A    between atoms: C_14  and  C_16
REMARK                            x       y       z     vdW  Elec       q    Type
REMARK                         _______ _______ _______ _____ _____    ______ ____
ROOT
ATOM      1  C   UNL     1      48.786   8.046  12.286  0.00  0.00    +0.000 A 
ATOM      2  C   UNL     1      49.729   7.201  11.684  0.00  0.00    +0.000 A 
ATOM      3  C   UNL     1      50.868   7.736  11.069  0.00  0.00    +0.000 A 
ATOM      4  C   UNL     1      51.084   9.121  11.049  0.00  0.00    +0.000 A 
ATOM      5  C   UNL     1      50.122   9.963  11.629  0.00  0.00    +0.000 A 
ATOM      6  C   UNL     1      48.982   9.430  12.243  0.00  0.00    +0.000 A 
ENDROOT
BRANCH   1   8
ATOM      7  N   UNL     1      47.468   6.136  13.007  0.00  0.00    +0.000 N 
ATOM      8  C   UNL     1      47.550   7.506  12.931  0.00  0.00    +0.000 C 
ATOM      9  O   UNL     1      46.685   8.257  13.366  0.00  0.00    +0.000 OA
ATOM     10  H   UNL     1      48.331   5.615  12.960  0.00  0.00    +0.000 HD
BRANCH   7  11
ATOM     11  C   UNL     1      46.358   5.463  13.672  0.00  0.00    +0.000 C 
BRANCH  11  12
ATOM     12  C   UNL     1      45.357   5.004  12.621  0.00  0.00    +0.000 A 
ATOM     13  C   UNL     1      45.602   5.236  11.258  0.00  0.00    +0.000 A 
ATOM     14  C   UNL     1      44.725   4.749  10.285  0.00  0.00    +0.000 A 
ATOM     15  C   UNL     1      43.597   4.022  10.659  0.00  0.00    +0.000 A 
ATOM     16  C   UNL     1      43.328   3.801  12.007  0.00  0.00    +0.000 A 
ATOM     17  C   UNL     1      44.197   4.295  12.982  0.00  0.00    +0.000 A 
ENDBRANCH  11  12
BRANCH  11  19
ATOM     18  N   UNL     1      46.774   4.378  15.859  0.00  0.00    +0.000 N 
ATOM     19  C   UNL     1      46.892   4.268  14.501  0.00  0.00    +0.000 C 
ATOM     20  O   UNL     1      47.344   3.238  14.001  0.00  0.00    +0.000 OA
ATOM     21  H   UNL     1      47.166   3.631  16.418  0.00  0.00    +0.000 HD
ATOM     22  H   UNL     1      46.589   5.262  16.315  0.00  0.00    +0.000 HD
ENDBRANCH  11  19
ENDBRANCH   7  11
ENDBRANCH   1   8
BRANCH   4  23
ATOM     23  C   UNL     1      52.284   9.703  10.343  0.00  0.00    +0.000 C 
BRANCH  23  24
ATOM     24  N   UNL     1      52.591   8.943   9.158  0.00  0.00    +0.000 N 
ATOM     25  C   UNL     1      53.851   8.914   8.619  0.00  0.00    +0.000 C 
ATOM     26  O   UNL     1      54.798   9.493   9.144  0.00  0.00    +0.000 OA
ATOM     27  H   UNL     1      51.801   8.661   8.586  0.00  0.00    +0.000 HD
BRANCH  25  28
ATOM     28  C   UNL     1      54.023   8.094   7.413  0.00  0.00    +0.000 A 
ATOM     29  C   UNL     1      54.320   8.701   6.200  0.00  0.00    +0.000 A 
ATOM     30  S   UNL     1      54.563   7.597   4.922  0.00  0.00    +0.000 S 
ATOM     31  C   UNL     1      54.224   6.269   5.931  0.00  0.00    +0.000 A 
ATOM     32  N   UNL     1      54.244   4.998   5.447  0.00  0.00    +0.000 NA
ATOM     33  C   UNL     1      53.936   4.092   6.314  0.00  0.00    +0.000 A 
ATOM     34  N   UNL     1      53.613   4.341   7.622  0.00  0.00    +0.000 N 
ATOM     35  C   UNL     1      53.601   5.605   8.160  0.00  0.00    +0.000 A 
ATOM     36  O   UNL     1      53.335   5.791   9.342  0.00  0.00    +0.000 OA
ATOM     37  C   UNL     1      53.938   6.663   7.226  0.00  0.00    +0.000 A 
ATOM     38  H   UNL     1      53.382   3.587   8.252  0.00  0.00    +0.000 HD
ENDBRANCH  25  28
ENDBRANCH  23  24
ENDBRANCH   4  23
TORSDOF 7
ENDMDL
MODEL 9
REMARK VINA RESULT:    -6.656      2.681      3.311
REMARK INTER + INTRA:         -10.765
REMARK INTER:                  -9.904
REMARK INTRA:                  -0.861
REMARK UNBOUND:                -1.385
REMARK  Name = 
REMARK  7 active torsions:
REMARK  status: ('A' for Active; 'I' for Inactive)
REMARK    1  A    between atoms: C_2  and  C_4
REMARK    2  A    between atoms: C_4  and  N_5
REMARK    3  A    between atoms: C_4  and  C_28
REMARK    4  A    between atoms: C_6  and  C_8
REMARK    5  A    between atoms: C_11  and  C_12
REMARK    6  A    between atoms: C_12  and  N_13
REMARK    7  A    between atoms: C_14  and  C_16
REMARK                            x       y       z     vdW  Elec       q    Type
REMARK                         _______ _______ _______ _____ _____    ______ ____
ROOT
ATOM      1  C   UNL     1      45.442   7.306  11.516  0.00  0.00    +0.000 A 
ATOM      2  C   UNL     1      44.954   8.603  11.733  0.00  0.00    +0.000 A 
ATOM      3  C   UNL     1      45.809   9.615  12.186  0.00  0.00    +0.000 A 
ATOM      4  C   UNL     1      47.164   9.350  12.427  0.00  0.00    +0.000 A 
ATOM      5  C   UNL     1      47.641   8.043  12.235  0.00  0.00    +0.000 A 
ATOM      6  C   UNL     1      46.787   7.030  11.783  0.00  0.00    +0.000 A 
ENDROOT
BRANCH   1   8
ATOM      7  N   UNL     1      45.175   5.164  10.401  0.00  0.00    +0.000 N 
ATOM      8  C   UNL     1      44.549   6.201  11.053  0.00  0.00    +0.000 C 
ATOM      9  O   UNL     1      43.343   6.233  11.262  0.00  0.00    +0.000 OA
ATOM     10  H   UNL     1      46.160   5.034  10.572  0.00  0.00    +0.000 HD
BRANCH   7  11
ATOM     11  C   UNL     1      44.448   3.981   9.953  0.00  0.00    +0.000 C 
BRANCH  11  12
ATOM     12  C   UNL     1      45.284   3.254   8.909  0.00  0.00    +0.000 A 
ATOM     13  C   UNL     1      46.000   3.978   7.942  0.00  0.00    +0.000 A 
ATOM     14  C   UNL     1      46.829   3.320   7.030  0.00  0.00    +0.000 A 
ATOM     15  C   UNL     1      46.956   1.933   7.074  0.00  0.00    +0.000 A 
ATOM     16  C   UNL     1      46.237   1.198   8.013  0.00  0.00    +0.000 A 
ATOM     17  C   UNL     1      45.400   1.852   8.918  0.00  0.00    +0.000 A 
ENDBRANCH  11  12
BRANCH  11  19
ATOM     18  N   UNL     1      45.169   2.860  12.040  0.00  0.00    +0.000 N 
ATOM     19  C   UNL     1      44.139   3.066  11.164  0.00  0.00    +0.000 C 
ATOM     20  O   UNL     1      43.029   2.586  11.390  0.00  0.00    +0.000 OA
ATOM     21  H   UNL     1      45.001   2.222  12.808  0.00  0.00    +0.000 HD
ATOM     22  H   UNL     1      46.129   3.072  11.804  0.00  0.00    +0.000 HD
ENDBRANCH  11  19
ENDBRANCH   7  11
ENDBRANCH   1   8
BRANCH   4  23
ATOM     23  C   UNL     1      48.077  10.425  12.963  0.00  0.00    +0.000 C 
BRANCH  23  24
ATOM     24  N   UNL     1      48.902   9.904  14.024  0.00  0.00    +0.000 N 
ATOM     25  C   UNL     1      50.255   9.741  13.879  0.00  0.00    +0.000 C 
ATOM     26  O   UNL     1      50.845  10.075  12.856  0.00  0.00    +0.000 OA
ATOM     27  H   UNL     1      48.420   9.410  14.768  0.00  0.00    +0.000 HD
BRANCH  25  28
ATOM     28  C   UNL     1      50.972   9.206  15.044  0.00  0.00    +0.000 A 
ATOM     29  C   UNL     1      50.954   7.842  15.300  0.00  0.00    +0.000 A 
ATOM     30  S   UNL     1      51.902   7.383  16.644  0.00  0.00    +0.000 S 
ATOM     31  C   UNL     1      52.326   9.000  16.965  0.00  0.00    +0.000 A 
ATOM     32  N   UNL     1      53.128   9.318  18.017  0.00  0.00    +0.000 NA
ATOM     33  C   UNL     1      53.341  10.583  18.162  0.00  0.00    +0.000 A 
ATOM     34  N   UNL     1      52.828  11.559  17.348  0.00  0.00    +0.000 N 
ATOM     35  C   UNL     1      52.032  11.284  16.263  0.00  0.00    +0.000 A 
ATOM     36  O   UNL     1      51.613  12.180  15.538  0.00  0.00    +0.000 OA
ATOM     37  C   UNL     1      51.760   9.875  16.056  0.00  0.00    +0.000 A 
ATOM     38  H   UNL     1      53.034  12.533  17.514  0.00  0.00    +0.000 HD
ENDBRANCH  25  28
ENDBRANCH  23  24
ENDBRANCH   4  23
TORSDOF 7
ENDMDL
