MODEL 1
REMARK VINA RESULT:    -8.166      0.000      0.000
REMARK INTER + INTRA:         -12.551
REMARK INTER:                 -11.508
REMARK INTRA:                  -1.043
REMARK UNBOUND:                -1.043
REMARK  Name = 
REMARK  8 active torsions:
REMARK  status: ('A' for Active; 'I' for Inactive)
REMARK    1  A    between atoms: C_1  and  C_2
REMARK    2  A    between atoms: C_2  and  C_3
REMARK    3  A    between atoms: C_2  and  C_14
REMARK    4  A    between atoms: C_3  and  O_4
REMARK    5  A    between atoms: O_4  and  C_5
REMARK    6  A    between atoms: C_8  and  C_9
REMARK    7  A    between atoms: C_18  and  O_19
REMARK    8  A    between atoms: O_19  and  C_20
REMARK                            x       y       z     vdW  Elec       q    Type
REMARK                         _______ _______ _______ _____ _____    ______ ____
ROOT
ATOM      1  C   UNL     1      42.851   5.362  11.937  0.00  0.00    +0.000 C 
ATOM      2  C   UNL     1      43.878   4.358  12.463  0.00  0.00    +0.000 C 
ENDROOT
BRANCH   2   3
ATOM      3  C   UNL     1      45.253   4.992  12.627  0.00  0.00    +0.000 A 
ATOM      4  C   UNL     1      45.706   5.954  11.717  0.00  0.00    +0.000 A 
ATOM      5  C   UNL     1      46.930   6.597  11.921  0.00  0.00    +0.000 A 
ATOM      6  C   UNL     1      47.718   6.291  13.034  0.00  0.00    +0.000 A 
ATOM      7  C   UNL     1      47.288   5.321  13.935  0.00  0.00    +0.000 A 
ATOM      8  C   UNL     1      46.066   4.676  13.728  0.00  0.00    +0.000 A 
BRANCH   7   9
ATOM      9  O   UNL     1      47.948   4.952  15.079  0.00  0.00    +0.000 OA
BRANCH   9  10
ATOM     10  C   UNL     1      47.249   4.156  16.061  0.00  0.00    +0.000 C 
ATOM     11  C   UNL     1      47.283   4.626  17.521  0.00  0.00    +0.000 C 
ATOM     12  O   UNL     1      47.871   3.382  17.966  0.00  0.00    +0.000 OA
ATOM     13  C   UNL     1      48.031   2.948  16.595  0.00  0.00    +0.000 C 
ENDBRANCH   9  10
ENDBRANCH   7   9
ENDBRANCH   2   3
BRANCH   2  14
ATOM     14  C   UNL     1      44.001   3.103  11.574  0.00  0.00    +0.000 C 
BRANCH  14  15
ATOM     15  O   UNL     1      43.603   3.373  10.225  0.00  0.00    +0.000 OA
BRANCH  15  16
ATOM     16  C   UNL     1      44.555   3.085   9.282  0.00  0.00    +0.000 A 
ATOM     17  C   UNL     1      45.133   4.011   8.410  0.00  0.00    +0.000 A 
ATOM     18  C   UNL     1      46.113   3.598   7.512  0.00  0.00    +0.000 A 
ATOM     19  C   UNL     1      46.499   2.266   7.521  0.00  0.00    +0.000 A 
ATOM     20  N   UNL     1      45.970   1.331   8.358  0.00  0.00    +0.000 NA
ATOM     21  C   UNL     1      45.016   1.773   9.219  0.00  0.00    +0.000 A 
BRANCH  19  22
ATOM     22  C   UNL     1      47.569   1.812   6.577  0.00  0.00    +0.000 C 
ATOM     23  N   UNL     1      48.654   2.637   6.470  0.00  0.00    +0.000 N 
ATOM     24  O   UNL     1      47.486   0.773   5.933  0.00  0.00    +0.000 OA
ATOM     25  H   UNL     1      48.679   3.495   7.004  0.00  0.00    +0.000 HD
ATOM     26  H   UNL     1      49.403   2.403   5.836  0.00  0.00    +0.000 HD
ENDBRANCH  19  22
ENDBRANCH  15  16
ENDBRANCH  14  15
ENDBRANCH   2  14
TORSDOF 7
ENDMDL
MODEL 2
REMARK VINA RESULT:    -6.826      2.504      3.247
REMARK INTER + INTRA:         -10.662
REMARK INTER:                  -9.812
REMARK INTRA:                  -0.851
REMARK UNBOUND:                -1.043
REMARK  Name = 
REMARK  8 active torsions:
REMARK  status: ('A' for Active; 'I' for Inactive)
REMARK    1  A    between atoms: C_1  and  C_2
REMARK    2  A    between atoms: C_2  and  C_3
REMARK    3  A    between atoms: C_2  and  C_14
REMARK    4  A    between atoms: C_3  and  O_4
REMARK    5  A    between atoms: O_4  and  C_5
REMARK    6  A    between atoms: C_8  and  C_9
REMARK    7  A    between atoms: C_18  and  O_19
REMARK    8  A    between atoms: O_19  and  C_20
REMARK                            x       y       z     vdW  Elec       q    Type
REMARK                         _______ _______ _______ _____ _____    ______ ____
ROOT
ATOM      1  C   UNL     1      44.063   4.276  13.117  0.00  0.00    +0.000 C 
ATOM      2  C   UNL     1      44.659   4.771  11.798  0.00  0.00    +0.000 C 
ENDROOT
BRANCH   2   3
ATOM      3  C   UNL     1      45.139   6.212  11.903  0.00  0.00    +0.000 A 
ATOM      4  C   UNL     1      44.374   7.258  11.374  0.00  0.00    +0.000 A 
ATOM      5  C   UNL     1      44.775   8.585  11.550  0.00  0.00    +0.000 A 
ATOM      6  C   UNL     1      45.941   8.888  12.256  0.00  0.00    +0.000 A 
ATOM      7  C   UNL     1      46.722   7.856  12.769  0.00  0.00    +0.000 A 
ATOM      8  C   UNL     1      46.323   6.530  12.590  0.00  0.00    +0.000 A 
BRANCH   7   9
ATOM      9  O   UNL     1      47.867   8.019  13.506  0.00  0.00    +0.000 OA
BRANCH   9  10
ATOM     10  C   UNL     1      48.984   8.715  12.913  0.00  0.00    +0.000 C 
ATOM     11  C   UNL     1      49.565   8.158  11.606  0.00  0.00    +0.000 C 
ATOM     12  O   UNL     1      50.879   8.005  12.190  0.00  0.00    +0.000 OA
ATOM     13  C   UNL     1      50.359   8.354  13.494  0.00  0.00    +0.000 C 
ENDBRANCH   9  10
ENDBRANCH   7   9
ENDBRANCH   2   3
BRANCH   2  14
ATOM     14  C   UNL     1      43.679   4.648  10.614  0.00  0.00    +0.000 C 
BRANCH  14  15
ATOM     15  O   UNL     1      43.654   3.316  10.087  0.00  0.00    +0.000 OA
BRANCH  15  16
ATOM     16  C   UNL     1      44.628   3.052   9.161  0.00  0.00    +0.000 A 
ATOM     17  C   UNL     1      45.168   3.982   8.269  0.00  0.00    +0.000 A 
ATOM     18  C   UNL     1      46.176   3.596   7.391  0.00  0.00    +0.000 A 
ATOM     19  C   UNL     1      46.629   2.286   7.439  0.00  0.00    +0.000 A 
ATOM     20  N   UNL     1      46.139   1.347   8.297  0.00  0.00    +0.000 NA
ATOM     21  C   UNL     1      45.155   1.763   9.137  0.00  0.00    +0.000 A 
BRANCH  19  22
ATOM     22  C   UNL     1      47.729   1.862   6.517  0.00  0.00    +0.000 C 
ATOM     23  N   UNL     1      48.779   2.730   6.408  0.00  0.00    +0.000 N 
ATOM     24  O   UNL     1      47.700   0.808   5.891  0.00  0.00    +0.000 OA
ATOM     25  H   UNL     1      48.760   3.598   6.926  0.00  0.00    +0.000 HD
ATOM     26  H   UNL     1      49.546   2.517   5.788  0.00  0.00    +0.000 HD
ENDBRANCH  19  22
ENDBRANCH  15  16
ENDBRANCH  14  15
ENDBRANCH   2  14
TORSDOF 7
ENDMDL
MODEL 3
REMARK VINA RESULT:    -6.800      3.063      7.817
REMARK INTER + INTRA:         -10.625
REMARK INTER:                  -9.692
REMARK INTRA:                  -0.934
REMARK UNBOUND:                -1.043
REMARK  Name = 
REMARK  8 active torsions:
REMARK  status: ('A' for Active; 'I' for Inactive)
REMARK    1  A    between atoms: C_1  and  C_2
REMARK    2  A    between atoms: C_2  and  C_3
REMARK    3  A    between atoms: C_2  and  C_14
REMARK    4  A    between atoms: C_3  and  O_4
REMARK    5  A    between atoms: O_4  and  C_5
REMARK    6  A    between atoms: C_8  and  C_9
REMARK    7  A    between atoms: C_18  and  O_19
REMARK    8  A    between atoms: O_19  and  C_20
REMARK                            x       y       z     vdW  Elec       q    Type
REMARK                         _______ _______ _______ _____ _____    ______ ____
ROOT
ATOM      1  C   UNL     1      44.594   7.116  11.530  0.00  0.00    +0.000 C 
ATOM      2  C   UNL     1      45.714   6.526  10.671  0.00  0.00    +0.000 C 
ENDROOT
BRANCH   2   3
ATOM      3  C   UNL     1      45.342   5.154  10.126  0.00  0.00    +0.000 A 
ATOM      4  C   UNL     1      44.533   4.288  10.869  0.00  0.00    +0.000 A 
ATOM      5  C   UNL     1      44.121   3.067  10.328  0.00  0.00    +0.000 A 
ATOM      6  C   UNL     1      44.509   2.694   9.038  0.00  0.00    +0.000 A 
ATOM      7  C   UNL     1      45.331   3.537   8.297  0.00  0.00    +0.000 A 
ATOM      8  C   UNL     1      45.745   4.755   8.840  0.00  0.00    +0.000 A 
BRANCH   7   9
ATOM      9  O   UNL     1      45.755   3.305   7.013  0.00  0.00    +0.000 OA
BRANCH   9  10
ATOM     10  C   UNL     1      47.144   2.986   6.784  0.00  0.00    +0.000 C 
ATOM     11  C   UNL     1      47.568   2.604   5.360  0.00  0.00    +0.000 C 
ATOM     12  O   UNL     1      48.076   1.322   5.796  0.00  0.00    +0.000 OA
ATOM     13  C   UNL     1      47.546   1.544   7.123  0.00  0.00    +0.000 C 
ENDBRANCH   9  10
ENDBRANCH   7   9
ENDBRANCH   2   3
BRANCH   2  14
ATOM     14  C   UNL     1      47.057   6.426  11.423  0.00  0.00    +0.000 C 
BRANCH  14  15
ATOM     15  O   UNL     1      46.956   6.942  12.755  0.00  0.00    +0.000 OA
BRANCH  15  16
ATOM     16  C   UNL     1      47.140   6.010  13.742  0.00  0.00    +0.000 A 
ATOM     17  C   UNL     1      46.524   4.758  13.796  0.00  0.00    +0.000 A 
ATOM     18  C   UNL     1      46.815   3.887  14.841  0.00  0.00    +0.000 A 
ATOM     19  C   UNL     1      47.729   4.290  15.802  0.00  0.00    +0.000 A 
ATOM     20  N   UNL     1      48.361   5.497  15.787  0.00  0.00    +0.000 NA
ATOM     21  C   UNL     1      48.049   6.319  14.751  0.00  0.00    +0.000 A 
BRANCH  19  22
ATOM     22  C   UNL     1      48.070   3.354  16.920  0.00  0.00    +0.000 C 
ATOM     23  N   UNL     1      47.007   2.853  17.620  0.00  0.00    +0.000 N 
ATOM     24  O   UNL     1      49.224   3.052  17.203  0.00  0.00    +0.000 OA
ATOM     25  H   UNL     1      46.070   3.139  17.369  0.00  0.00    +0.000 HD
ATOM     26  H   UNL     1      47.166   2.233  18.400  0.00  0.00    +0.000 HD
ENDBRANCH  19  22
ENDBRANCH  15  16
ENDBRANCH  14  15
ENDBRANCH   2  14
TORSDOF 7
ENDMDL
MODEL 4
REMARK VINA RESULT:    -6.760      3.027      4.856
REMARK INTER + INTRA:         -10.569
REMARK INTER:                  -9.992
REMARK INTRA:                  -0.577
REMARK UNBOUND:                -1.043
REMARK  Name = 
REMARK  8 active torsions:
REMARK  status: ('A' for Active; 'I' for Inactive)
REMARK    1  A    between atoms: C_1  and  C_2
REMARK    2  A    between atoms: C_2  and  C_3
REMARK    3  A    between atoms: C_2  and  C_14
REMARK    4  A    between atoms: C_3  and  O_4
REMARK    5  A    between atoms: O_4  and  C_5
REMARK    6  A    between atoms: C_8  and  C_9
REMARK    7  A    between atoms: C_18  and  O_19
REMARK    8  A    between atoms: O_19  and  C_20
REMARK                            x       y       z     vdW  Elec       q    Type
REMARK                         _______ _______ _______ _____ _____    ______ ____
ROOT
ATOM      1  C   UNL     1      45.330   4.103  12.895  0.00  0.00    +0.000 C 
ATOM      2  C   UNL     1      45.376   4.973  11.638  0.00  0.00    +0.000 C 
ENDROOT
BRANCH   2   3
ATOM      3  C   UNL     1      45.938   6.357  11.930  0.00  0.00    +0.000 A 
ATOM      4  C   UNL     1      47.320   6.562  12.014  0.00  0.00    +0.000 A 
ATOM      5  C   UNL     1      47.834   7.849  12.195  0.00  0.00    +0.000 A 
ATOM      6  C   UNL     1      46.979   8.949  12.293  0.00  0.00    +0.000 A 
ATOM      7  C   UNL     1      45.602   8.756  12.232  0.00  0.00    +0.000 A 
ATOM      8  C   UNL     1      45.089   7.470  12.055  0.00  0.00    +0.000 A 
BRANCH   7   9
ATOM      9  O   UNL     1      44.659   9.751  12.282  0.00  0.00    +0.000 OA
BRANCH   9  10
ATOM     10  C   UNL     1      44.131  10.274  11.044  0.00  0.00    +0.000 C 
ATOM     11  C   UNL     1      43.388  11.616  11.090  0.00  0.00    +0.000 C 
ATOM     12  O   UNL     1      42.186  11.033  10.537  0.00  0.00    +0.000 OA
ATOM     13  C   UNL     1      42.764   9.711  10.629  0.00  0.00    +0.000 C 
ENDBRANCH   9  10
ENDBRANCH   7   9
ENDBRANCH   2   3
BRANCH   2  14
ATOM     14  C   UNL     1      43.999   5.118  10.958  0.00  0.00    +0.000 C 
BRANCH  14  15
ATOM     15  O   UNL     1      43.628   3.925  10.258  0.00  0.00    +0.000 OA
BRANCH  15  16
ATOM     16  C   UNL     1      44.578   3.457   9.389  0.00  0.00    +0.000 A 
ATOM     17  C   UNL     1      45.059   2.147   9.348  0.00  0.00    +0.000 A 
ATOM     18  C   UNL     1      46.009   1.787   8.397  0.00  0.00    +0.000 A 
ATOM     19  C   UNL     1      46.443   2.750   7.499  0.00  0.00    +0.000 A 
ATOM     20  N   UNL     1      45.996   4.037   7.495  0.00  0.00    +0.000 NA
ATOM     21  C   UNL     1      45.070   4.349   8.439  0.00  0.00    +0.000 A 
BRANCH  19  22
ATOM     22  C   UNL     1      47.448   2.372   6.455  0.00  0.00    +0.000 C 
ATOM     23  N   UNL     1      47.404   3.100   5.299  0.00  0.00    +0.000 N 
ATOM     24  O   UNL     1      48.258   1.466   6.614  0.00  0.00    +0.000 OA
ATOM     25  H   UNL     1      46.710   3.828   5.198  0.00  0.00    +0.000 HD
ATOM     26  H   UNL     1      48.039   2.884   4.545  0.00  0.00    +0.000 HD
ENDBRANCH  19  22
ENDBRANCH  15  16
ENDBRANCH  14  15
ENDBRANCH   2  14
TORSDOF 7
ENDMDL
MODEL 5
REMARK VINA RESULT:    -6.737      2.268      3.759
REMARK INTER + INTRA:         -10.537
REMARK INTER:                  -9.810
REMARK INTRA:                  -0.727
REMARK UNBOUND:                -1.043
REMARK  Name = 
REMARK  8 active torsions:
REMARK  status: ('A' for Active; 'I' for Inactive)
REMARK    1  A    between atoms: C_1  and  C_2
REMARK    2  A    between atoms: C_2  and  C_3
REMARK    3  A    between atoms: C_2  and  C_14
REMARK    4  A    between atoms: C_3  and  O_4
REMARK    5  A    between atoms: O_4  and  C_5
REMARK    6  A    between atoms: C_8  and  C_9
REMARK    7  A    between atoms: C_18  and  O_19
REMARK    8  A    between atoms: O_19  and  C_20
REMARK                            x       y       z     vdW  Elec       q    Type
REMARK                         _______ _______ _______ _____ _____    ______ ____
ROOT
ATOM      1  C   UNL     1      42.786   5.355  12.818  0.00  0.00    +0.000 C 
ATOM      2  C   UNL     1      44.020   4.763  12.135  0.00  0.00    +0.000 C 
ENDROOT
BRANCH   2   3
ATOM      3  C   UNL     1      45.310   5.330  12.713  0.00  0.00    +0.000 A 
ATOM      4  C   UNL     1      46.016   4.631  13.700  0.00  0.00    +0.000 A 
ATOM      5  C   UNL     1      47.244   5.111  14.164  0.00  0.00    +0.000 A 
ATOM      6  C   UNL     1      47.785   6.292  13.650  0.00  0.00    +0.000 A 
ATOM      7  C   UNL     1      47.084   7.007  12.684  0.00  0.00    +0.000 A 
ATOM      8  C   UNL     1      45.855   6.529  12.224  0.00  0.00    +0.000 A 
BRANCH   7   9
ATOM      9  O   UNL     1      47.518   8.158  12.078  0.00  0.00    +0.000 OA
BRANCH   9  10
ATOM     10  C   UNL     1      47.183   9.429  12.676  0.00  0.00    +0.000 C 
ATOM     11  C   UNL     1      47.059  10.647  11.751  0.00  0.00    +0.000 C 
ATOM     12  O   UNL     1      48.078  11.373  12.477  0.00  0.00    +0.000 OA
ATOM     13  C   UNL     1      48.369  10.201  13.273  0.00  0.00    +0.000 C 
ENDBRANCH   9  10
ENDBRANCH   7   9
ENDBRANCH   2   3
BRANCH   2  14
ATOM     14  C   UNL     1      44.017   4.970  10.607  0.00  0.00    +0.000 C 
BRANCH  14  15
ATOM     15  O   UNL     1      43.639   3.774   9.914  0.00  0.00    +0.000 OA
BRANCH  15  16
ATOM     16  C   UNL     1      44.624   3.238   9.126  0.00  0.00    +0.000 A 
ATOM     17  C   UNL     1      44.984   1.889   9.089  0.00  0.00    +0.000 A 
ATOM     18  C   UNL     1      45.986   1.463   8.224  0.00  0.00    +0.000 A 
ATOM     19  C   UNL     1      46.594   2.401   7.403  0.00  0.00    +0.000 A 
ATOM     20  N   UNL     1      46.270   3.724   7.397  0.00  0.00    +0.000 NA
ATOM     21  C   UNL     1      45.288   4.101   8.258  0.00  0.00    +0.000 A 
BRANCH  19  22
ATOM     22  C   UNL     1      47.658   1.954   6.449  0.00  0.00    +0.000 C 
ATOM     23  N   UNL     1      48.737   2.785   6.331  0.00  0.00    +0.000 N 
ATOM     24  O   UNL     1      47.576   0.913   5.807  0.00  0.00    +0.000 OA
ATOM     25  H   UNL     1      48.761   3.644   6.864  0.00  0.00    +0.000 HD
ATOM     26  H   UNL     1      49.481   2.555   5.690  0.00  0.00    +0.000 HD
ENDBRANCH  19  22
ENDBRANCH  15  16
ENDBRANCH  14  15
ENDBRANCH   2  14
TORSDOF 7
ENDMDL
MODEL 6
REMARK VINA RESULT:    -6.078      3.754      7.479
REMARK INTER + INTRA:          -9.608
REMARK INTER:                  -8.634
REMARK INTRA:                  -0.974
REMARK UNBOUND:                -1.043
REMARK  Name = 
REMARK  8 active torsions:
REMARK  status: ('A' for Active; 'I' for Inactive)
REMARK    1  A    between atoms: C_1  and  C_2
REMARK    2  A    between atoms: C_2  and  C_3
REMARK    3  A    between atoms: C_2  and  C_14
REMARK    4  A    between atoms: C_3  and  O_4
REMARK    5  A    between atoms: O_4  and  C_5
REMARK    6  A    between atoms: C_8  and  C_9
REMARK    7  A    between atoms: C_18  and  O_19
REMARK    8  A    between atoms: O_19  and  C_20
REMARK                            x       y       z     vdW  Elec       q    Type
REMARK                         _______ _______ _______ _____ _____    ______ ____
ROOT
ATOM      1  C   UNL     1      49.430   9.417  11.825  0.00  0.00    +0.000 C 
ATOM      2  C   UNL     1      48.993   7.952  11.881  0.00  0.00    +0.000 C 
ENDROOT
BRANCH   2   3
ATOM      3  C   UNL     1      47.477   7.814  11.830  0.00  0.00    +0.000 A 
ATOM      4  C   UNL     1      46.652   8.904  12.128  0.00  0.00    +0.000 A 
ATOM      5  C   UNL     1      45.265   8.798  11.993  0.00  0.00    +0.000 A 
ATOM      6  C   UNL     1      44.682   7.604  11.558  0.00  0.00    +0.000 A 
ATOM      7  C   UNL     1      45.490   6.506  11.279  0.00  0.00    +0.000 A 
ATOM      8  C   UNL     1      46.876   6.613  11.418  0.00  0.00    +0.000 A 
BRANCH   7   9
ATOM      9  O   UNL     1      45.048   5.294  10.816  0.00  0.00    +0.000 OA
BRANCH   9  10
ATOM     10  C   UNL     1      43.956   4.643  11.500  0.00  0.00    +0.000 C 
ATOM     11  C   UNL     1      44.159   4.252  12.969  0.00  0.00    +0.000 C 
ATOM     12  O   UNL     1      43.888   2.858  12.694  0.00  0.00    +0.000 OA
ATOM     13  C   UNL     1      43.856   3.128  11.273  0.00  0.00    +0.000 C 
ENDBRANCH   9  10
ENDBRANCH   7   9
ENDBRANCH   2   3
BRANCH   2  14
ATOM     14  C   UNL     1      49.527   7.214  13.126  0.00  0.00    +0.000 C 
BRANCH  14  15
ATOM     15  O   UNL     1      48.830   7.610  14.313  0.00  0.00    +0.000 OA
BRANCH  15  16
ATOM     16  C   UNL     1      48.612   6.597  15.209  0.00  0.00    +0.000 A 
ATOM     17  C   UNL     1      49.109   6.552  16.514  0.00  0.00    +0.000 A 
ATOM     18  C   UNL     1      48.795   5.477  17.339  0.00  0.00    +0.000 A 
ATOM     19  C   UNL     1      47.974   4.477  16.838  0.00  0.00    +0.000 A 
ATOM     20  N   UNL     1      47.459   4.482  15.577  0.00  0.00    +0.000 NA
ATOM     21  C   UNL     1      47.791   5.549  14.802  0.00  0.00    +0.000 A 
BRANCH  19  22
ATOM     22  C   UNL     1      47.608   3.326  17.722  0.00  0.00    +0.000 C 
ATOM     23  N   UNL     1      48.409   3.137  18.813  0.00  0.00    +0.000 N 
ATOM     24  O   UNL     1      46.655   2.590  17.489  0.00  0.00    +0.000 OA
ATOM     25  H   UNL     1      49.196   3.754  18.963  0.00  0.00    +0.000 HD
ATOM     26  H   UNL     1      48.232   2.367  19.441  0.00  0.00    +0.000 HD
ENDBRANCH  19  22
ENDBRANCH  15  16
ENDBRANCH  14  15
ENDBRANCH   2  14
TORSDOF 7
ENDMDL
MODEL 7
REMARK VINA RESULT:    -5.981      3.650      6.067
REMARK INTER + INTRA:          -9.471
REMARK INTER:                  -8.900
REMARK INTRA:                  -0.572
REMARK UNBOUND:                -1.043
REMARK  Name = 
REMARK  8 active torsions:
REMARK  status: ('A' for Active; 'I' for Inactive)
REMARK    1  A    between atoms: C_1  and  C_2
REMARK    2  A    between atoms: C_2  and  C_3
REMARK    3  A    between atoms: C_2  and  C_14
REMARK    4  A    between atoms: C_3  and  O_4
REMARK    5  A    between atoms: O_4  and  C_5
REMARK    6  A    between atoms: C_8  and  C_9
REMARK    7  A    between atoms: C_18  and  O_19
REMARK    8  A    between atoms: O_19  and  C_20
REMARK                            x       y       z     vdW  Elec       q    Type
REMARK                         _______ _______ _______ _____ _____    ______ ____
ROOT
ATOM      1  C   UNL     1      50.948   8.086  13.927  0.00  0.00    +0.000 C 
ATOM      2  C   UNL     1      49.992   7.793  15.084  0.00  0.00    +0.000 C 
ENDROOT
BRANCH   2   3
ATOM      3  C   UNL     1      50.550   6.731  16.022  0.00  0.00    +0.000 A 
ATOM      4  C   UNL     1      51.920   6.680  16.304  0.00  0.00    +0.000 A 
ATOM      5  C   UNL     1      52.416   5.760  17.233  0.00  0.00    +0.000 A 
ATOM      6  C   UNL     1      51.554   4.881  17.893  0.00  0.00    +0.000 A 
ATOM      7  C   UNL     1      50.192   4.908  17.606  0.00  0.00    +0.000 A 
ATOM      8  C   UNL     1      49.699   5.824  16.675  0.00  0.00    +0.000 A 
BRANCH   7   9
ATOM      9  O   UNL     1      49.240   4.125  18.205  0.00  0.00    +0.000 OA
BRANCH   9  10
ATOM     10  C   UNL     1      49.130   2.739  17.814  0.00  0.00    +0.000 C 
ATOM     11  C   UNL     1      50.304   2.113  17.051  0.00  0.00    +0.000 C 
ATOM     12  O   UNL     1      49.462   1.764  15.929  0.00  0.00    +0.000 OA
ATOM     13  C   UNL     1      48.355   2.489  16.512  0.00  0.00    +0.000 C 
ENDBRANCH   9  10
ENDBRANCH   7   9
ENDBRANCH   2   3
BRANCH   2  14
ATOM     14  C   UNL     1      48.589   7.362  14.609  0.00  0.00    +0.000 C 
BRANCH  14  15
ATOM     15  O   UNL     1      48.663   6.447  13.509  0.00  0.00    +0.000 OA
BRANCH  15  16
ATOM     16  C   UNL     1      47.463   5.893  13.148  0.00  0.00    +0.000 A 
ATOM     17  C   UNL     1      46.745   6.203  11.991  0.00  0.00    +0.000 A 
ATOM     18  C   UNL     1      45.547   5.550  11.722  0.00  0.00    +0.000 A 
ATOM     19  C   UNL     1      45.104   4.588  12.618  0.00  0.00    +0.000 A 
ATOM     20  N   UNL     1      45.773   4.245  13.753  0.00  0.00    +0.000 NA
ATOM     21  C   UNL     1      46.939   4.907  13.980  0.00  0.00    +0.000 A 
BRANCH  19  22
ATOM     22  C   UNL     1      43.828   3.859  12.330  0.00  0.00    +0.000 C 
ATOM     23  N   UNL     1      43.857   2.507  12.536  0.00  0.00    +0.000 N 
ATOM     24  O   UNL     1      42.817   4.426  11.931  0.00  0.00    +0.000 OA
ATOM     25  H   UNL     1      44.715   2.073  12.849  0.00  0.00    +0.000 HD
ATOM     26  H   UNL     1      43.038   1.951  12.342  0.00  0.00    +0.000 HD
ENDBRANCH  19  22
ENDBRANCH  15  16
ENDBRANCH  14  15
ENDBRANCH   2  14
TORSDOF 7
ENDMDL
MODEL 8
REMARK VINA RESULT:    -5.918      2.879      4.801
REMARK INTER + INTRA:          -9.383
REMARK INTER:                  -8.370
REMARK INTRA:                  -1.013
REMARK UNBOUND:                -1.043
REMARK  Name = 
REMARK  8 active torsions:
REMARK  status: ('A' for Active; 'I' for Inactive)
REMARK    1  A    between atoms: C_1  and  C_2
REMARK    2  A    between atoms: C_2  and  C_3
REMARK    3  A    between atoms: C_2  and  C_14
REMARK    4  A    between atoms: C_3  and  O_4
REMARK    5  A    between atoms: O_4  and  C_5
REMARK    6  A    between atoms: C_8  and  C_9
REMARK    7  A    between atoms: C_18  and  O_19
REMARK    8  A    between atoms: O_19  and  C_20
REMARK                            x       y       z     vdW  Elec       q    Type
REMARK                         _______ _______ _______ _____ _____    ______ ____
ROOT
ATOM      1  C   UNL     1      48.932   9.161  12.756  0.00  0.00    +0.000 C 
ATOM      2  C   UNL     1      47.798   8.976  13.766  0.00  0.00    +0.000 C 
ENDROOT
BRANCH   2   3
ATOM      3  C   UNL     1      48.297   8.363  15.067  0.00  0.00    +0.000 A 
ATOM      4  C   UNL     1      48.466   9.155  16.209  0.00  0.00    +0.000 A 
ATOM      5  C   UNL     1      48.839   8.573  17.424  0.00  0.00    +0.000 A 
ATOM      6  C   UNL     1      49.046   7.194  17.517  0.00  0.00    +0.000 A 
ATOM      7  C   UNL     1      48.901   6.399  16.385  0.00  0.00    +0.000 A 
ATOM      8  C   UNL     1      48.533   6.982  15.171  0.00  0.00    +0.000 A 
BRANCH   7   9
ATOM      9  O   UNL     1      49.044   5.035  16.350  0.00  0.00    +0.000 OA
BRANCH   9  10
ATOM     10  C   UNL     1      47.866   4.215  16.190  0.00  0.00    +0.000 C 
ATOM     11  C   UNL     1      46.822   4.232  17.314  0.00  0.00    +0.000 C 
ATOM     12  O   UNL     1      46.928   2.803  17.509  0.00  0.00    +0.000 OA
ATOM     13  C   UNL     1      48.039   2.742  16.585  0.00  0.00    +0.000 C 
ENDBRANCH   9  10
ENDBRANCH   7   9
ENDBRANCH   2   3
BRANCH   2  14
ATOM     14  C   UNL     1      46.638   8.121  13.215  0.00  0.00    +0.000 C 
BRANCH  14  15
ATOM     15  O   UNL     1      47.038   7.369  12.064  0.00  0.00    +0.000 OA
BRANCH  15  16
ATOM     16  C   UNL     1      46.339   6.206  11.872  0.00  0.00    +0.000 A 
ATOM     17  C   UNL     1      46.179   5.194  12.822  0.00  0.00    +0.000 A 
ATOM     18  C   UNL     1      45.421   4.069  12.515  0.00  0.00    +0.000 A 
ATOM     19  C   UNL     1      44.829   3.993  11.263  0.00  0.00    +0.000 A 
ATOM     20  N   UNL     1      44.949   4.957  10.309  0.00  0.00    +0.000 NA
ATOM     21  C   UNL     1      45.699   6.040  10.647  0.00  0.00    +0.000 A 
BRANCH  19  22
ATOM     22  C   UNL     1      43.990   2.799  10.926  0.00  0.00    +0.000 C 
ATOM     23  N   UNL     1      44.399   2.074   9.841  0.00  0.00    +0.000 N 
ATOM     24  O   UNL     1      42.996   2.484  11.571  0.00  0.00    +0.000 OA
ATOM     25  H   UNL     1      45.214   2.374   9.324  0.00  0.00    +0.000 HD
ATOM     26  H   UNL     1      43.868   1.268   9.546  0.00  0.00    +0.000 HD
ENDBRANCH  19  22
ENDBRANCH  15  16
ENDBRANCH  14  15
ENDBRANCH   2  14
TORSDOF 7
ENDMDL
MODEL 9
REMARK VINA RESULT:    -5.875      3.394      8.137
REMARK INTER + INTRA:          -9.323
REMARK INTER:                  -8.613
REMARK INTRA:                  -0.709
REMARK UNBOUND:                -1.043
REMARK  Name = 
REMARK  8 active torsions:
REMARK  status: ('A' for Active; 'I' for Inactive)
REMARK    1  A    between atoms: C_1  and  C_2
REMARK    2  A    between atoms: C_2  and  C_3
REMARK    3  A    between atoms: C_2  and  C_14
REMARK    4  A    between atoms: C_3  and  O_4
REMARK    5  A    between atoms: O_4  and  C_5
REMARK    6  A    between atoms: C_8  and  C_9
REMARK    7  A    between atoms: C_18  and  O_19
REMARK    8  A    between atoms: O_19  and  C_20
REMARK                            x       y       z     vdW  Elec       q    Type
REMARK                         _______ _______ _______ _____ _____    ______ ____
ROOT
ATOM      1  C   UNL     1      46.081   8.067  13.002  0.00  0.00    +0.000 C 
ATOM      2  C   UNL     1      46.490   6.768  12.304  0.00  0.00    +0.000 C 
ENDROOT
BRANCH   2   3
ATOM      3  C   UNL     1      45.310   5.820  12.142  0.00  0.00    +0.000 A 
ATOM      4  C   UNL     1      44.171   5.957  12.943  0.00  0.00    +0.000 A 
ATOM      5  C   UNL     1      43.056   5.141  12.730  0.00  0.00    +0.000 A 
ATOM      6  C   UNL     1      43.061   4.180  11.716  0.00  0.00    +0.000 A 
ATOM      7  C   UNL     1      44.195   4.020  10.927  0.00  0.00    +0.000 A 
ATOM      8  C   UNL     1      45.310   4.832  11.142  0.00  0.00    +0.000 A 
BRANCH   7   9
ATOM      9  O   UNL     1      44.317   3.139   9.882  0.00  0.00    +0.000 OA
BRANCH   9  10
ATOM     10  C   UNL     1      45.570   3.073   9.168  0.00  0.00    +0.000 C 
ATOM     11  C   UNL     1      45.606   3.604   7.729  0.00  0.00    +0.000 C 
ATOM     12  O   UNL     1      46.054   2.330   7.212  0.00  0.00    +0.000 OA
ATOM     13  C   UNL     1      45.875   1.720   8.511  0.00  0.00    +0.000 C 
ENDBRANCH   9  10
ENDBRANCH   7   9
ENDBRANCH   2   3
BRANCH   2  14
ATOM     14  C   UNL     1      47.636   6.033  13.029  0.00  0.00    +0.000 C 
BRANCH  14  15
ATOM     15  O   UNL     1      47.146   4.936  13.810  0.00  0.00    +0.000 OA
BRANCH  15  16
ATOM     16  C   UNL     1      47.544   4.948  15.121  0.00  0.00    +0.000 A 
ATOM     17  C   UNL     1      48.296   5.957  15.727  0.00  0.00    +0.000 A 
ATOM     18  C   UNL     1      48.616   5.866  17.078  0.00  0.00    +0.000 A 
ATOM     19  C   UNL     1      48.160   4.768  17.793  0.00  0.00    +0.000 A 
ATOM     20  N   UNL     1      47.417   3.765  17.247  0.00  0.00    +0.000 NA
ATOM     21  C   UNL     1      47.127   3.890  15.925  0.00  0.00    +0.000 A 
BRANCH  19  22
ATOM     22  C   UNL     1      48.476   4.668  19.253  0.00  0.00    +0.000 C 
ATOM     23  N   UNL     1      48.395   3.415  19.793  0.00  0.00    +0.000 N 
ATOM     24  O   UNL     1      48.783   5.641  19.932  0.00  0.00    +0.000 OA
ATOM     25  H   UNL     1      48.121   2.639  19.205  0.00  0.00    +0.000 HD
ATOM     26  H   UNL     1      48.575   3.278  20.776  0.00  0.00    +0.000 HD
ENDBRANCH  19  22
ENDBRANCH  15  16
ENDBRANCH  14  15
ENDBRANCH   2  14
TORSDOF 7
ENDMDL
