MODEL 1
REMARK VINA RESULT:    -7.871      0.000      0.000
REMARK INTER + INTRA:         -13.366
REMARK INTER:                 -12.473
REMARK INTRA:                  -0.893
REMARK UNBOUND:                -0.893
REMARK  Name = 
REMARK  11 active torsions:
REMARK  status: ('A' for Active; 'I' for Inactive)
REMARK    1  A    between atoms: C_1  and  O_2
REMARK    2  A    between atoms: O_2  and  C_3
REMARK    3  A    between atoms: C_3  and  C_5
REMARK    4  A    between atoms: C_8  and  C_9
REMARK    5  A    between atoms: C_9  and  O_10
REMARK    6  A    between atoms: O_10  and  C_11
REMARK    7  A    between atoms: C_11  and  C_12
REMARK    8  A    between atoms: C_15  and  C_16
REMARK    9  A    between atoms: C_16  and  N_17
REMARK   10  A    between atoms: N_17  and  C_18
REMARK   11  A    between atoms: C_18  and  C_19
REMARK                            x       y       z     vdW  Elec       q    Type
REMARK                         _______ _______ _______ _____ _____    ______ ____
ROOT
ATOM      1  O   UNL     1      47.419   3.355  15.429  0.00  0.00    +0.000 OA
ENDROOT
BRANCH   1   2
ATOM      2  C   UNL     1      47.571   3.361  16.854  0.00  0.00    +0.000 C 
BRANCH   2   6
ATOM      3  C   UNL     1      51.753   2.737  17.858  0.00  0.00    +0.000 A 
ATOM      4  C   UNL     1      51.047   1.813  17.080  0.00  0.00    +0.000 A 
ATOM      5  C   UNL     1      49.709   2.037  16.761  0.00  0.00    +0.000 A 
ATOM      6  C   UNL     1      49.040   3.193  17.199  0.00  0.00    +0.000 A 
ATOM      7  C   UNL     1      49.789   4.155  17.915  0.00  0.00    +0.000 A 
ATOM      8  C   UNL     1      49.223   5.470  18.315  0.00  0.00    +0.000 A 
ATOM      9  O   UNL     1      48.190   5.925  17.837  0.00  0.00    +0.000 OA
ATOM     10  N   UNL     1      49.957   6.198  19.214  0.00  0.00    +0.000 N 
ATOM     11  C   UNL     1      51.259   5.914  19.480  0.00  0.00    +0.000 A 
ATOM     12  N   UNL     1      51.867   4.874  19.035  0.00  0.00    +0.000 NA
ATOM     13  C   UNL     1      51.138   3.929  18.279  0.00  0.00    +0.000 A 
ATOM     14  H   UNL     1      49.569   7.087  19.492  0.00  0.00    +0.000 HD
BRANCH   3  15
ATOM     15  C   UNL     1      53.168   2.404  18.153  0.00  0.00    +0.000 C 
ATOM     16  O   UNL     1      54.101   3.096  17.774  0.00  0.00    +0.000 OA
BRANCH  15  18
ATOM     17  C   UNL     1      54.266   0.344  18.234  0.00  0.00    +0.000 C 
ATOM     18  O   UNL     1      53.270   1.208  18.780  0.00  0.00    +0.000 OA
ENDBRANCH  15  18
ENDBRANCH   3  15
ENDBRANCH   2   6
ENDBRANCH   1   2
BRANCH   1  19
ATOM     19  C   UNL     1      47.339   4.668  14.879  0.00  0.00    +0.000 C 
BRANCH  19  20
ATOM     20  C   UNL     1      46.380   4.652  13.709  0.00  0.00    +0.000 A 
ATOM     21  C   UNL     1      46.012   3.439  13.112  0.00  0.00    +0.000 A 
ATOM     22  C   UNL     1      45.117   3.413  12.036  0.00  0.00    +0.000 A 
ATOM     23  C   UNL     1      44.561   4.599  11.536  0.00  0.00    +0.000 A 
ATOM     24  C   UNL     1      44.923   5.811  12.136  0.00  0.00    +0.000 A 
ATOM     25  C   UNL     1      45.823   5.837  13.215  0.00  0.00    +0.000 A 
BRANCH  23  26
ATOM     26  C   UNL     1      43.607   4.563  10.361  0.00  0.00    +0.000 C 
BRANCH  26  27
ATOM     27  N   UNL     1      44.042   3.586   9.366  0.00  0.00    +0.000 NA
ATOM     28  H   UNL     1      43.227   3.274   8.836  0.00  0.00    +0.000 HD
BRANCH  27  29
ATOM     29  C   UNL     1      45.005   4.165   8.421  0.00  0.00    +0.000 C 
BRANCH  29  30
ATOM     30  C   UNL     1      45.876   3.095   7.784  0.00  0.00    +0.000 A 
ATOM     31  C   UNL     1      46.641   3.396   6.657  0.00  0.00    +0.000 A 
ATOM     32  C   UNL     1      47.457   2.409   6.110  0.00  0.00    +0.000 A 
ATOM     33  C   UNL     1      47.482   1.150   6.694  0.00  0.00    +0.000 A 
ATOM     34  C   UNL     1      46.689   0.929   7.808  0.00  0.00    +0.000 A 
ATOM     35  N   UNL     1      45.892   1.868   8.366  0.00  0.00    +0.000 NA
ENDBRANCH  29  30
ENDBRANCH  27  29
ENDBRANCH  26  27
ENDBRANCH  23  26
ENDBRANCH  19  20
ENDBRANCH   1  19
TORSDOF 10
ENDMDL
MODEL 2
REMARK VINA RESULT:    -7.656      1.698      2.544
REMARK INTER + INTRA:         -13.025
REMARK INTER:                 -12.062
REMARK INTRA:                  -0.962
REMARK UNBOUND:                -0.893
REMARK  Name = 
REMARK  11 active torsions:
REMARK  status: ('A' for Active; 'I' for Inactive)
REMARK    1  A    between atoms: C_1  and  O_2
REMARK    2  A    between atoms: O_2  and  C_3
REMARK    3  A    between atoms: C_3  and  C_5
REMARK    4  A    between atoms: C_8  and  C_9
REMARK    5  A    between atoms: C_9  and  O_10
REMARK    6  A    between atoms: O_10  and  C_11
REMARK    7  A    between atoms: C_11  and  C_12
REMARK    8  A    between atoms: C_15  and  C_16
REMARK    9  A    between atoms: C_16  and  N_17
REMARK   10  A    between atoms: N_17  and  C_18
REMARK   11  A    between atoms: C_18  and  C_19
REMARK                            x       y       z     vdW  Elec       q    Type
REMARK                         _______ _______ _______ _____ _____    ______ ____
ROOT
ATOM      1  O   UNL     1      48.106   4.842  15.155  0.00  0.00    +0.000 OA
ENDROOT
BRANCH   1   2
ATOM      2  C   UNL     1      48.047   5.047  16.572  0.00  0.00    +0.000 C 
BRANCH   2   6
ATOM      3  C   UNL     1      52.101   5.003  18.138  0.00  0.00    +0.000 A 
ATOM      4  C   UNL     1      51.366   6.191  18.057  0.00  0.00    +0.000 A 
ATOM      5  C   UNL     1      50.064   6.182  17.560  0.00  0.00    +0.000 A 
ATOM      6  C   UNL     1      49.453   4.987  17.142  0.00  0.00    +0.000 A 
ATOM      7  C   UNL     1      50.179   3.785  17.306  0.00  0.00    +0.000 A 
ATOM      8  C   UNL     1      49.588   2.451  17.019  0.00  0.00    +0.000 A 
ATOM      9  O   UNL     1      48.383   2.270  16.888  0.00  0.00    +0.000 OA
ATOM     10  N   UNL     1      50.462   1.398  16.973  0.00  0.00    +0.000 N 
ATOM     11  C   UNL     1      51.723   1.484  17.472  0.00  0.00    +0.000 A 
ATOM     12  N   UNL     1      52.250   2.578  17.892  0.00  0.00    +0.000 NA
ATOM     13  C   UNL     1      51.515   3.778  17.774  0.00  0.00    +0.000 A 
ATOM     14  H   UNL     1      50.062   0.493  16.771  0.00  0.00    +0.000 HD
BRANCH   3  15
ATOM     15  C   UNL     1      53.481   5.118  18.669  0.00  0.00    +0.000 C 
ATOM     16  O   UNL     1      53.770   4.829  19.821  0.00  0.00    +0.000 OA
BRANCH  15  18
ATOM     17  C   UNL     1      55.037   4.728  16.972  0.00  0.00    +0.000 C 
ATOM     18  O   UNL     1      54.313   5.674  17.758  0.00  0.00    +0.000 OA
ENDBRANCH  15  18
ENDBRANCH   3  15
ENDBRANCH   2   6
ENDBRANCH   1   2
BRANCH   1  19
ATOM     19  C   UNL     1      47.831   6.029  14.414  0.00  0.00    +0.000 C 
BRANCH  19  20
ATOM     20  C   UNL     1      46.752   5.733  13.397  0.00  0.00    +0.000 A 
ATOM     21  C   UNL     1      45.888   4.644  13.575  0.00  0.00    +0.000 A 
ATOM     22  C   UNL     1      44.881   4.369  12.645  0.00  0.00    +0.000 A 
ATOM     23  C   UNL     1      44.706   5.181  11.515  0.00  0.00    +0.000 A 
ATOM     24  C   UNL     1      45.564   6.272  11.338  0.00  0.00    +0.000 A 
ATOM     25  C   UNL     1      46.577   6.548  12.271  0.00  0.00    +0.000 A 
BRANCH  23  26
ATOM     26  C   UNL     1      43.624   4.865  10.504  0.00  0.00    +0.000 C 
BRANCH  26  27
ATOM     27  N   UNL     1      44.203   4.388   9.251  0.00  0.00    +0.000 NA
ATOM     28  H   UNL     1      45.115   4.829   9.123  0.00  0.00    +0.000 HD
BRANCH  27  29
ATOM     29  C   UNL     1      44.399   2.932   9.263  0.00  0.00    +0.000 C 
BRANCH  29  30
ATOM     30  C   UNL     1      45.518   2.511   8.325  0.00  0.00    +0.000 A 
ATOM     31  C   UNL     1      46.052   3.427   7.419  0.00  0.00    +0.000 A 
ATOM     32  C   UNL     1      47.098   3.028   6.591  0.00  0.00    +0.000 A 
ATOM     33  C   UNL     1      47.578   1.730   6.683  0.00  0.00    +0.000 A 
ATOM     34  C   UNL     1      46.991   0.879   7.605  0.00  0.00    +0.000 A 
ATOM     35  N   UNL     1      45.978   1.238   8.426  0.00  0.00    +0.000 NA
ENDBRANCH  29  30
ENDBRANCH  27  29
ENDBRANCH  26  27
ENDBRANCH  23  26
ENDBRANCH  19  20
ENDBRANCH   1  19
TORSDOF 10
ENDMDL
MODEL 3
REMARK VINA RESULT:    -7.541      1.636      3.231
REMARK INTER + INTRA:         -12.843
REMARK INTER:                 -12.151
REMARK INTRA:                  -0.691
REMARK UNBOUND:                -0.893
REMARK  Name = 
REMARK  11 active torsions:
REMARK  status: ('A' for Active; 'I' for Inactive)
REMARK    1  A    between atoms: C_1  and  O_2
REMARK    2  A    between atoms: O_2  and  C_3
REMARK    3  A    between atoms: C_3  and  C_5
REMARK    4  A    between atoms: C_8  and  C_9
REMARK    5  A    between atoms: C_9  and  O_10
REMARK    6  A    between atoms: O_10  and  C_11
REMARK    7  A    between atoms: C_11  and  C_12
REMARK    8  A    between atoms: C_15  and  C_16
REMARK    9  A    between atoms: C_16  and  N_17
REMARK   10  A    between atoms: N_17  and  C_18
REMARK   11  A    between atoms: C_18  and  C_19
REMARK                            x       y       z     vdW  Elec       q    Type
REMARK                         _______ _______ _______ _____ _____    ______ ____
ROOT
ATOM      1  O   UNL     1      46.692   4.045  15.631  0.00  0.00    +0.000 OA
ENDROOT
BRANCH   1   2
ATOM      2  C   UNL     1      47.635   3.224  16.330  0.00  0.00    +0.000 C 
BRANCH   2   6
ATOM      3  C   UNL     1      49.195   5.584  19.630  0.00  0.00    +0.000 A 
ATOM      4  C   UNL     1      47.850   5.666  19.249  0.00  0.00    +0.000 A 
ATOM      5  C   UNL     1      47.369   4.893  18.195  0.00  0.00    +0.000 A 
ATOM      6  C   UNL     1      48.209   4.009  17.497  0.00  0.00    +0.000 A 
ATOM      7  C   UNL     1      49.544   3.879  17.945  0.00  0.00    +0.000 A 
ATOM      8  C   UNL     1      50.485   2.884  17.368  0.00  0.00    +0.000 A 
ATOM      9  O   UNL     1      50.118   1.942  16.674  0.00  0.00    +0.000 OA
ATOM     10  N   UNL     1      51.804   3.029  17.706  0.00  0.00    +0.000 N 
ATOM     11  C   UNL     1      52.200   3.809  18.746  0.00  0.00    +0.000 A 
ATOM     12  N   UNL     1      51.408   4.578  19.402  0.00  0.00    +0.000 NA
ATOM     13  C   UNL     1      50.061   4.681  18.990  0.00  0.00    +0.000 A 
ATOM     14  H   UNL     1      52.445   2.358  17.308  0.00  0.00    +0.000 HD
BRANCH   3  15
ATOM     15  C   UNL     1      49.613   6.455  20.755  0.00  0.00    +0.000 C 
ATOM     16  O   UNL     1      48.996   6.512  21.809  0.00  0.00    +0.000 OA
BRANCH  15  18
ATOM     17  C   UNL     1      50.322   8.435  19.741  0.00  0.00    +0.000 C 
ATOM     18  O   UNL     1      50.672   7.226  20.413  0.00  0.00    +0.000 OA
ENDBRANCH  15  18
ENDBRANCH   3  15
ENDBRANCH   2   6
ENDBRANCH   1   2
BRANCH   1  19
ATOM     19  C   UNL     1      47.288   4.783  14.565  0.00  0.00    +0.000 C 
BRANCH  19  20
ATOM     20  C   UNL     1      46.390   4.702  13.351  0.00  0.00    +0.000 A 
ATOM     21  C   UNL     1      45.867   3.470  12.937  0.00  0.00    +0.000 A 
ATOM     22  C   UNL     1      45.027   3.388  11.821  0.00  0.00    +0.000 A 
ATOM     23  C   UNL     1      44.682   4.537  11.096  0.00  0.00    +0.000 A 
ATOM     24  C   UNL     1      45.198   5.769  11.513  0.00  0.00    +0.000 A 
ATOM     25  C   UNL     1      46.043   5.852  12.631  0.00  0.00    +0.000 A 
BRANCH  23  26
ATOM     26  C   UNL     1      43.785   4.436   9.880  0.00  0.00    +0.000 C 
BRANCH  26  27
ATOM     27  N   UNL     1      44.332   3.493   8.906  0.00  0.00    +0.000 NA
ATOM     28  H   UNL     1      43.616   3.295   8.206  0.00  0.00    +0.000 HD
BRANCH  27  29
ATOM     29  C   UNL     1      45.504   4.046   8.215  0.00  0.00    +0.000 C 
BRANCH  29  30
ATOM     30  C   UNL     1      46.207   2.992   7.378  0.00  0.00    +0.000 A 
ATOM     31  C   UNL     1      46.578   3.276   6.063  0.00  0.00    +0.000 A 
ATOM     32  C   UNL     1      47.251   2.306   5.325  0.00  0.00    +0.000 A 
ATOM     33  C   UNL     1      47.528   1.079   5.912  0.00  0.00    +0.000 A 
ATOM     34  C   UNL     1      47.123   0.873   7.219  0.00  0.00    +0.000 A 
ATOM     35  N   UNL     1      46.473   1.796   7.964  0.00  0.00    +0.000 NA
ENDBRANCH  29  30
ENDBRANCH  27  29
ENDBRANCH  26  27
ENDBRANCH  23  26
ENDBRANCH  19  20
ENDBRANCH   1  19
TORSDOF 10
ENDMDL
MODEL 4
REMARK VINA RESULT:    -7.342      2.451      4.505
REMARK INTER + INTRA:         -12.527
REMARK INTER:                 -11.394
REMARK INTRA:                  -1.133
REMARK UNBOUND:                -0.893
REMARK  Name = 
REMARK  11 active torsions:
REMARK  status: ('A' for Active; 'I' for Inactive)
REMARK    1  A    between atoms: C_1  and  O_2
REMARK    2  A    between atoms: O_2  and  C_3
REMARK    3  A    between atoms: C_3  and  C_5
REMARK    4  A    between atoms: C_8  and  C_9
REMARK    5  A    between atoms: C_9  and  O_10
REMARK    6  A    between atoms: O_10  and  C_11
REMARK    7  A    between atoms: C_11  and  C_12
REMARK    8  A    between atoms: C_15  and  C_16
REMARK    9  A    between atoms: C_16  and  N_17
REMARK   10  A    between atoms: N_17  and  C_18
REMARK   11  A    between atoms: C_18  and  C_19
REMARK                            x       y       z     vdW  Elec       q    Type
REMARK                         _______ _______ _______ _____ _____    ______ ____
ROOT
ATOM      1  O   UNL     1      48.145   6.346  14.851  0.00  0.00    +0.000 OA
ENDROOT
BRANCH   1   2
ATOM      2  C   UNL     1      49.356   6.688  15.537  0.00  0.00    +0.000 C 
BRANCH   2   6
ATOM      3  C   UNL     1      48.436   8.121  19.535  0.00  0.00    +0.000 A 
ATOM      4  C   UNL     1      48.184   8.908  18.405  0.00  0.00    +0.000 A 
ATOM      5  C   UNL     1      48.477   8.425  17.131  0.00  0.00    +0.000 A 
ATOM      6  C   UNL     1      49.019   7.141  16.946  0.00  0.00    +0.000 A 
ATOM      7  C   UNL     1      49.193   6.329  18.090  0.00  0.00    +0.000 A 
ATOM      8  C   UNL     1      49.635   4.913  18.004  0.00  0.00    +0.000 A 
ATOM      9  O   UNL     1      49.621   4.272  16.959  0.00  0.00    +0.000 OA
ATOM     10  N   UNL     1      50.006   4.320  19.182  0.00  0.00    +0.000 N 
ATOM     11  C   UNL     1      49.689   4.856  20.389  0.00  0.00    +0.000 A 
ATOM     12  N   UNL     1      49.153   6.013  20.537  0.00  0.00    +0.000 NA
ATOM     13  C   UNL     1      48.934   6.814  19.395  0.00  0.00    +0.000 A 
ATOM     14  H   UNL     1      50.314   3.361  19.122  0.00  0.00    +0.000 HD
BRANCH   3  15
ATOM     15  C   UNL     1      48.100   8.728  20.846  0.00  0.00    +0.000 C 
ATOM     16  O   UNL     1      46.977   8.680  21.327  0.00  0.00    +0.000 OA
BRANCH  15  18
ATOM     17  C   UNL     1      48.790  10.461  22.250  0.00  0.00    +0.000 C 
ATOM     18  O   UNL     1      49.152   9.411  21.355  0.00  0.00    +0.000 OA
ENDBRANCH  15  18
ENDBRANCH   3  15
ENDBRANCH   2   6
ENDBRANCH   1   2
BRANCH   1  19
ATOM     19  C   UNL     1      48.157   6.741  13.481  0.00  0.00    +0.000 C 
BRANCH  19  20
ATOM     20  C   UNL     1      46.979   6.106  12.777  0.00  0.00    +0.000 A 
ATOM     21  C   UNL     1      46.219   5.118  13.417  0.00  0.00    +0.000 A 
ATOM     22  C   UNL     1      45.122   4.532  12.778  0.00  0.00    +0.000 A 
ATOM     23  C   UNL     1      44.751   4.925  11.484  0.00  0.00    +0.000 A 
ATOM     24  C   UNL     1      45.505   5.915  10.845  0.00  0.00    +0.000 A 
ATOM     25  C   UNL     1      46.609   6.502  11.486  0.00  0.00    +0.000 A 
BRANCH  23  26
ATOM     26  C   UNL     1      43.572   4.273  10.793  0.00  0.00    +0.000 C 
BRANCH  26  27
ATOM     27  N   UNL     1      43.938   3.816   9.454  0.00  0.00    +0.000 NA
ATOM     28  H   UNL     1      44.618   4.468   9.061  0.00  0.00    +0.000 HD
BRANCH  27  29
ATOM     29  C   UNL     1      44.551   2.482   9.485  0.00  0.00    +0.000 C 
BRANCH  29  30
ATOM     30  C   UNL     1      45.624   2.335   8.419  0.00  0.00    +0.000 A 
ATOM     31  C   UNL     1      45.992   3.434   7.642  0.00  0.00    +0.000 A 
ATOM     32  C   UNL     1      47.000   3.284   6.693  0.00  0.00    +0.000 A 
ATOM     33  C   UNL     1      47.607   2.045   6.539  0.00  0.00    +0.000 A 
ATOM     34  C   UNL     1      47.181   1.003   7.345  0.00  0.00    +0.000 A 
ATOM     35  N   UNL     1      46.209   1.118   8.278  0.00  0.00    +0.000 NA
ENDBRANCH  29  30
ENDBRANCH  27  29
ENDBRANCH  26  27
ENDBRANCH  23  26
ENDBRANCH  19  20
ENDBRANCH   1  19
TORSDOF 10
ENDMDL
MODEL 5
REMARK VINA RESULT:    -7.281      3.406      4.512
REMARK INTER + INTRA:         -12.430
REMARK INTER:                 -10.726
REMARK INTRA:                  -1.704
REMARK UNBOUND:                -0.893
REMARK  Name = 
REMARK  11 active torsions:
REMARK  status: ('A' for Active; 'I' for Inactive)
REMARK    1  A    between atoms: C_1  and  O_2
REMARK    2  A    between atoms: O_2  and  C_3
REMARK    3  A    between atoms: C_3  and  C_5
REMARK    4  A    between atoms: C_8  and  C_9
REMARK    5  A    between atoms: C_9  and  O_10
REMARK    6  A    between atoms: O_10  and  C_11
REMARK    7  A    between atoms: C_11  and  C_12
REMARK    8  A    between atoms: C_15  and  C_16
REMARK    9  A    between atoms: C_16  and  N_17
REMARK   10  A    between atoms: N_17  and  C_18
REMARK   11  A    between atoms: C_18  and  C_19
REMARK                            x       y       z     vdW  Elec       q    Type
REMARK                         _______ _______ _______ _____ _____    ______ ____
ROOT
ATOM      1  O   UNL     1      49.674   7.175  13.392  0.00  0.00    +0.000 OA
ENDROOT
BRANCH   1   2
ATOM      2  C   UNL     1      50.370   7.850  14.448  0.00  0.00    +0.000 C 
BRANCH   2   6
ATOM      3  C   UNL     1      48.385   6.830  18.177  0.00  0.00    +0.000 A 
ATOM      4  C   UNL     1      49.087   5.869  17.441  0.00  0.00    +0.000 A 
ATOM      5  C   UNL     1      49.725   6.220  16.252  0.00  0.00    +0.000 A 
ATOM      6  C   UNL     1      49.691   7.539  15.770  0.00  0.00    +0.000 A 
ATOM      7  C   UNL     1      49.047   8.514  16.565  0.00  0.00    +0.000 A 
ATOM      8  C   UNL     1      49.059   9.960  16.220  0.00  0.00    +0.000 A 
ATOM      9  O   UNL     1      49.832  10.444  15.401  0.00  0.00    +0.000 OA
ATOM     10  N   UNL     1      48.196  10.758  16.923  0.00  0.00    +0.000 N 
ATOM     11  C   UNL     1      47.604  10.344  18.073  0.00  0.00    +0.000 A 
ATOM     12  N   UNL     1      47.682   9.143  18.523  0.00  0.00    +0.000 NA
ATOM     13  C   UNL     1      48.363   8.171  17.756  0.00  0.00    +0.000 A 
ATOM     14  H   UNL     1      48.198  11.739  16.683  0.00  0.00    +0.000 HD
BRANCH   3  15
ATOM     15  C   UNL     1      47.732   6.357  19.421  0.00  0.00    +0.000 C 
ATOM     16  O   UNL     1      46.587   5.928  19.443  0.00  0.00    +0.000 OA
BRANCH  15  18
ATOM     17  C   UNL     1      47.813   6.648  21.737  0.00  0.00    +0.000 C 
ATOM     18  O   UNL     1      48.521   6.566  20.501  0.00  0.00    +0.000 OA
ENDBRANCH  15  18
ENDBRANCH   3  15
ENDBRANCH   2   6
ENDBRANCH   1   2
BRANCH   1  19
ATOM     19  C   UNL     1      48.467   7.835  13.018  0.00  0.00    +0.000 C 
BRANCH  19  20
ATOM     20  C   UNL     1      47.417   6.794  12.701  0.00  0.00    +0.000 A 
ATOM     21  C   UNL     1      47.011   5.876  13.679  0.00  0.00    +0.000 A 
ATOM     22  C   UNL     1      46.033   4.916  13.398  0.00  0.00    +0.000 A 
ATOM     23  C   UNL     1      45.430   4.855  12.134  0.00  0.00    +0.000 A 
ATOM     24  C   UNL     1      45.829   5.775  11.158  0.00  0.00    +0.000 A 
ATOM     25  C   UNL     1      46.812   6.738  11.439  0.00  0.00    +0.000 A 
BRANCH  23  26
ATOM     26  C   UNL     1      44.384   3.801  11.834  0.00  0.00    +0.000 C 
BRANCH  26  27
ATOM     27  N   UNL     1      44.967   2.683  11.096  0.00  0.00    +0.000 NA
ATOM     28  H   UNL     1      44.806   1.824  11.624  0.00  0.00    +0.000 HD
BRANCH  27  29
ATOM     29  C   UNL     1      44.352   2.527   9.772  0.00  0.00    +0.000 C 
BRANCH  29  30
ATOM     30  C   UNL     1      45.397   2.496   8.670  0.00  0.00    +0.000 A 
ATOM     31  C   UNL     1      45.701   3.660   7.962  0.00  0.00    +0.000 A 
ATOM     32  C   UNL     1      46.686   3.615   6.979  0.00  0.00    +0.000 A 
ATOM     33  C   UNL     1      47.334   2.415   6.722  0.00  0.00    +0.000 A 
ATOM     34  C   UNL     1      46.971   1.304   7.464  0.00  0.00    +0.000 A 
ATOM     35  N   UNL     1      46.024   1.316   8.429  0.00  0.00    +0.000 NA
ENDBRANCH  29  30
ENDBRANCH  27  29
ENDBRANCH  26  27
ENDBRANCH  23  26
ENDBRANCH  19  20
ENDBRANCH   1  19
TORSDOF 10
ENDMDL
MODEL 6
REMARK VINA RESULT:    -7.173      2.017      2.719
REMARK INTER + INTRA:         -12.258
REMARK INTER:                 -11.098
REMARK INTRA:                  -1.161
REMARK UNBOUND:                -0.893
REMARK  Name = 
REMARK  11 active torsions:
REMARK  status: ('A' for Active; 'I' for Inactive)
REMARK    1  A    between atoms: C_1  and  O_2
REMARK    2  A    between atoms: O_2  and  C_3
REMARK    3  A    between atoms: C_3  and  C_5
REMARK    4  A    between atoms: C_8  and  C_9
REMARK    5  A    between atoms: C_9  and  O_10
REMARK    6  A    between atoms: O_10  and  C_11
REMARK    7  A    between atoms: C_11  and  C_12
REMARK    8  A    between atoms: C_15  and  C_16
REMARK    9  A    between atoms: C_16  and  N_17
REMARK   10  A    between atoms: N_17  and  C_18
REMARK   11  A    between atoms: C_18  and  C_19
REMARK                            x       y       z     vdW  Elec       q    Type
REMARK                         _______ _______ _______ _____ _____    ______ ____
ROOT
ATOM      1  O   UNL     1      49.391   6.868  14.210  0.00  0.00    +0.000 OA
ENDROOT
BRANCH   1   2
ATOM      2  C   UNL     1      49.745   7.476  15.458  0.00  0.00    +0.000 C 
BRANCH   2   6
ATOM      3  C   UNL     1      52.631   4.915  17.459  0.00  0.00    +0.000 A 
ATOM      4  C   UNL     1      53.024   6.107  16.839  0.00  0.00    +0.000 A 
ATOM      5  C   UNL     1      52.080   6.918  16.212  0.00  0.00    +0.000 A 
ATOM      6  C   UNL     1      50.719   6.572  16.193  0.00  0.00    +0.000 A 
ATOM      7  C   UNL     1      50.327   5.407  16.892  0.00  0.00    +0.000 A 
ATOM      8  C   UNL     1      48.903   5.012  17.050  0.00  0.00    +0.000 A 
ATOM      9  O   UNL     1      47.971   5.778  16.835  0.00  0.00    +0.000 OA
ATOM     10  N   UNL     1      48.673   3.747  17.521  0.00  0.00    +0.000 N 
ATOM     11  C   UNL     1      49.647   3.010  18.116  0.00  0.00    +0.000 A 
ATOM     12  N   UNL     1      50.880   3.365  18.162  0.00  0.00    +0.000 NA
ATOM     13  C   UNL     1      51.274   4.551  17.505  0.00  0.00    +0.000 A 
ATOM     14  H   UNL     1      47.705   3.476  17.621  0.00  0.00    +0.000 HD
BRANCH   3  15
ATOM     15  C   UNL     1      53.710   4.116  18.089  0.00  0.00    +0.000 C 
ATOM     16  O   UNL     1      54.259   3.184  17.519  0.00  0.00    +0.000 OA
BRANCH  15  18
ATOM     17  C   UNL     1      53.860   3.409  20.310  0.00  0.00    +0.000 C 
ATOM     18  O   UNL     1      53.909   4.486  19.376  0.00  0.00    +0.000 OA
ENDBRANCH  15  18
ENDBRANCH   3  15
ENDBRANCH   2   6
ENDBRANCH   1   2
BRANCH   1  19
ATOM     19  C   UNL     1      48.441   7.635  13.473  0.00  0.00    +0.000 C 
BRANCH  19  20
ATOM     20  C   UNL     1      47.388   6.706  12.914  0.00  0.00    +0.000 A 
ATOM     21  C   UNL     1      46.836   6.939  11.648  0.00  0.00    +0.000 A 
ATOM     22  C   UNL     1      45.868   6.078  11.119  0.00  0.00    +0.000 A 
ATOM     23  C   UNL     1      45.434   4.957  11.839  0.00  0.00    +0.000 A 
ATOM     24  C   UNL     1      45.988   4.719  13.102  0.00  0.00    +0.000 A 
ATOM     25  C   UNL     1      46.958   5.584  13.634  0.00  0.00    +0.000 A 
BRANCH  23  26
ATOM     26  C   UNL     1      44.374   4.040  11.266  0.00  0.00    +0.000 C 
BRANCH  26  27
ATOM     27  N   UNL     1      44.947   2.750  10.891  0.00  0.00    +0.000 NA
ATOM     28  H   UNL     1      44.684   2.059  11.595  0.00  0.00    +0.000 HD
BRANCH  27  29
ATOM     29  C   UNL     1      44.445   2.289   9.590  0.00  0.00    +0.000 C 
BRANCH  29  30
ATOM     30  C   UNL     1      45.525   2.341   8.524  0.00  0.00    +0.000 A 
ATOM     31  C   UNL     1      45.792   3.536   7.856  0.00  0.00    +0.000 A 
ATOM     32  C   UNL     1      46.808   3.568   6.905  0.00  0.00    +0.000 A 
ATOM     33  C   UNL     1      47.524   2.409   6.640  0.00  0.00    +0.000 A 
ATOM     34  C   UNL     1      47.195   1.261   7.341  0.00  0.00    +0.000 A 
ATOM     35  N   UNL     1      46.218   1.200   8.274  0.00  0.00    +0.000 NA
ENDBRANCH  29  30
ENDBRANCH  27  29
ENDBRANCH  26  27
ENDBRANCH  23  26
ENDBRANCH  19  20
ENDBRANCH   1  19
TORSDOF 10
ENDMDL
MODEL 7
REMARK VINA RESULT:    -7.150      2.033      2.277
REMARK INTER + INTRA:         -12.223
REMARK INTER:                 -11.144
REMARK INTRA:                  -1.079
REMARK UNBOUND:                -0.893
REMARK  Name = 
REMARK  11 active torsions:
REMARK  status: ('A' for Active; 'I' for Inactive)
REMARK    1  A    between atoms: C_1  and  O_2
REMARK    2  A    between atoms: O_2  and  C_3
REMARK    3  A    between atoms: C_3  and  C_5
REMARK    4  A    between atoms: C_8  and  C_9
REMARK    5  A    between atoms: C_9  and  O_10
REMARK    6  A    between atoms: O_10  and  C_11
REMARK    7  A    between atoms: C_11  and  C_12
REMARK    8  A    between atoms: C_15  and  C_16
REMARK    9  A    between atoms: C_16  and  N_17
REMARK   10  A    between atoms: N_17  and  C_18
REMARK   11  A    between atoms: C_18  and  C_19
REMARK                            x       y       z     vdW  Elec       q    Type
REMARK                         _______ _______ _______ _____ _____    ______ ____
ROOT
ATOM      1  O   UNL     1      48.511   5.891  14.702  0.00  0.00    +0.000 OA
ENDROOT
BRANCH   1   2
ATOM      2  C   UNL     1      48.810   6.482  15.973  0.00  0.00    +0.000 C 
BRANCH   2   6
ATOM      3  C   UNL     1      51.908   4.190  17.983  0.00  0.00    +0.000 A 
ATOM      4  C   UNL     1      50.583   3.738  17.936  0.00  0.00    +0.000 A 
ATOM      5  C   UNL     1      49.608   4.484  17.278  0.00  0.00    +0.000 A 
ATOM      6  C   UNL     1      49.924   5.694  16.638  0.00  0.00    +0.000 A 
ATOM      7  C   UNL     1      51.280   6.096  16.626  0.00  0.00    +0.000 A 
ATOM      8  C   UNL     1      51.751   7.287  15.872  0.00  0.00    +0.000 A 
ATOM      9  O   UNL     1      51.079   7.840  15.008  0.00  0.00    +0.000 OA
ATOM     10  N   UNL     1      53.025   7.712  16.144  0.00  0.00    +0.000 N 
ATOM     11  C   UNL     1      53.922   6.930  16.799  0.00  0.00    +0.000 A 
ATOM     12  N   UNL     1      53.624   5.804  17.340  0.00  0.00    +0.000 NA
ATOM     13  C   UNL     1      52.279   5.372  17.319  0.00  0.00    +0.000 A 
ATOM     14  H   UNL     1      53.343   8.526  15.638  0.00  0.00    +0.000 HD
BRANCH   3  15
ATOM     15  C   UNL     1      52.869   3.332  18.717  0.00  0.00    +0.000 C 
ATOM     16  O   UNL     1      53.132   3.497  19.899  0.00  0.00    +0.000 OA
BRANCH  15  18
ATOM     17  C   UNL     1      54.036   1.316  18.548  0.00  0.00    +0.000 C 
ATOM     18  O   UNL     1      53.470   2.446  17.887  0.00  0.00    +0.000 OA
ENDBRANCH  15  18
ENDBRANCH   3  15
ENDBRANCH   2   6
ENDBRANCH   1   2
BRANCH   1  19
ATOM     19  C   UNL     1      47.891   6.807  13.802  0.00  0.00    +0.000 C 
BRANCH  19  20
ATOM     20  C   UNL     1      46.781   6.093  13.064  0.00  0.00    +0.000 A 
ATOM     21  C   UNL     1      46.116   5.012  13.657  0.00  0.00    +0.000 A 
ATOM     22  C   UNL     1      45.081   4.352  12.986  0.00  0.00    +0.000 A 
ATOM     23  C   UNL     1      44.678   4.762  11.708  0.00  0.00    +0.000 A 
ATOM     24  C   UNL     1      45.336   5.846  11.116  0.00  0.00    +0.000 A 
ATOM     25  C   UNL     1      46.377   6.508  11.789  0.00  0.00    +0.000 A 
BRANCH  23  26
ATOM     26  C   UNL     1      43.568   4.031  10.982  0.00  0.00    +0.000 C 
BRANCH  26  27
ATOM     27  N   UNL     1      43.953   3.734   9.604  0.00  0.00    +0.000 NA
ATOM     28  H   UNL     1      44.691   4.381   9.324  0.00  0.00    +0.000 HD
BRANCH  27  29
ATOM     29  C   UNL     1      44.470   2.366   9.468  0.00  0.00    +0.000 C 
BRANCH  29  30
ATOM     30  C   UNL     1      45.579   2.288   8.434  0.00  0.00    +0.000 A 
ATOM     31  C   UNL     1      45.936   3.423   7.705  0.00  0.00    +0.000 A 
ATOM     32  C   UNL     1      46.978   3.336   6.785  0.00  0.00    +0.000 A 
ATOM     33  C   UNL     1      47.629   2.123   6.611  0.00  0.00    +0.000 A 
ATOM     34  C   UNL     1      47.212   1.042   7.369  0.00  0.00    +0.000 A 
ATOM     35  N   UNL     1      46.208   1.095   8.273  0.00  0.00    +0.000 NA
ENDBRANCH  29  30
ENDBRANCH  27  29
ENDBRANCH  26  27
ENDBRANCH  23  26
ENDBRANCH  19  20
ENDBRANCH   1  19
TORSDOF 10
ENDMDL
MODEL 8
REMARK VINA RESULT:    -7.120      2.459      3.941
REMARK INTER + INTRA:         -12.175
REMARK INTER:                 -11.045
REMARK INTRA:                  -1.130
REMARK UNBOUND:                -0.893
REMARK  Name = 
REMARK  11 active torsions:
REMARK  status: ('A' for Active; 'I' for Inactive)
REMARK    1  A    between atoms: C_1  and  O_2
REMARK    2  A    between atoms: O_2  and  C_3
REMARK    3  A    between atoms: C_3  and  C_5
REMARK    4  A    between atoms: C_8  and  C_9
REMARK    5  A    between atoms: C_9  and  O_10
REMARK    6  A    between atoms: O_10  and  C_11
REMARK    7  A    between atoms: C_11  and  C_12
REMARK    8  A    between atoms: C_15  and  C_16
REMARK    9  A    between atoms: C_16  and  N_17
REMARK   10  A    between atoms: N_17  and  C_18
REMARK   11  A    between atoms: C_18  and  C_19
REMARK                            x       y       z     vdW  Elec       q    Type
REMARK                         _______ _______ _______ _____ _____    ______ ____
ROOT
ATOM      1  O   UNL     1      49.419   8.903  13.823  0.00  0.00    +0.000 OA
ENDROOT
BRANCH   1   2
ATOM      2  C   UNL     1      49.016   8.922  15.198  0.00  0.00    +0.000 C 
BRANCH   2   6
ATOM      3  C   UNL     1      48.038   4.858  16.388  0.00  0.00    +0.000 A 
ATOM      4  C   UNL     1      47.973   5.259  15.049  0.00  0.00    +0.000 A 
ATOM      5  C   UNL     1      48.301   6.564  14.687  0.00  0.00    +0.000 A 
ATOM      6  C   UNL     1      48.712   7.504  15.648  0.00  0.00    +0.000 A 
ATOM      7  C   UNL     1      48.850   7.062  16.984  0.00  0.00    +0.000 A 
ATOM      8  C   UNL     1      49.399   7.929  18.058  0.00  0.00    +0.000 A 
ATOM      9  O   UNL     1      50.013   8.966  17.831  0.00  0.00    +0.000 OA
ATOM     10  N   UNL     1      49.245   7.476  19.342  0.00  0.00    +0.000 N 
ATOM     11  C   UNL     1      48.916   6.187  19.617  0.00  0.00    +0.000 A 
ATOM     12  N   UNL     1      48.585   5.329  18.721  0.00  0.00    +0.000 NA
ATOM     13  C   UNL     1      48.488   5.751  17.376  0.00  0.00    +0.000 A 
ATOM     14  H   UNL     1      49.611   8.069  20.072  0.00  0.00    +0.000 HD
BRANCH   3  15
ATOM     15  C   UNL     1      47.660   3.452  16.672  0.00  0.00    +0.000 C 
ATOM     16  O   UNL     1      46.694   3.155  17.361  0.00  0.00    +0.000 OA
BRANCH  15  18
ATOM     17  C   UNL     1      49.530   2.127  17.120  0.00  0.00    +0.000 C 
ATOM     18  O   UNL     1      48.571   2.587  16.169  0.00  0.00    +0.000 OA
ENDBRANCH  15  18
ENDBRANCH   3  15
ENDBRANCH   2   6
ENDBRANCH   1   2
BRANCH   1  19
ATOM     19  C   UNL     1      48.499   9.581  12.970  0.00  0.00    +0.000 C 
BRANCH  19  20
ATOM     20  C   UNL     1      47.445   8.600  12.508  0.00  0.00    +0.000 A 
ATOM     21  C   UNL     1      46.103   8.781  12.865  0.00  0.00    +0.000 A 
ATOM     22  C   UNL     1      45.120   7.885  12.433  0.00  0.00    +0.000 A 
ATOM     23  C   UNL     1      45.453   6.788  11.626  0.00  0.00    +0.000 A 
ATOM     24  C   UNL     1      46.792   6.609  11.262  0.00  0.00    +0.000 A 
ATOM     25  C   UNL     1      47.780   7.508  11.697  0.00  0.00    +0.000 A 
BRANCH  23  26
ATOM     26  C   UNL     1      44.384   5.814  11.177  0.00  0.00    +0.000 C 
BRANCH  26  27
ATOM     27  N   UNL     1      44.885   4.441  11.203  0.00  0.00    +0.000 NA
ATOM     28  H   UNL     1      44.729   4.054  12.135  0.00  0.00    +0.000 HD
BRANCH  27  29
ATOM     29  C   UNL     1      44.186   3.589  10.232  0.00  0.00    +0.000 C 
BRANCH  29  30
ATOM     30  C   UNL     1      45.113   3.138   9.116  0.00  0.00    +0.000 A 
ATOM     31  C   UNL     1      45.640   4.073   8.225  0.00  0.00    +0.000 A 
ATOM     32  C   UNL     1      46.513   3.641   7.229  0.00  0.00    +0.000 A 
ATOM     33  C   UNL     1      46.829   2.293   7.144  0.00  0.00    +0.000 A 
ATOM     34  C   UNL     1      46.260   1.427   8.063  0.00  0.00    +0.000 A 
ATOM     35  N   UNL     1      45.414   1.816   9.044  0.00  0.00    +0.000 NA
ENDBRANCH  29  30
ENDBRANCH  27  29
ENDBRANCH  26  27
ENDBRANCH  23  26
ENDBRANCH  19  20
ENDBRANCH   1  19
TORSDOF 10
ENDMDL
MODEL 9
REMARK VINA RESULT:    -7.018      2.238      3.016
REMARK INTER + INTRA:         -12.014
REMARK INTER:                 -10.677
REMARK INTRA:                  -1.336
REMARK UNBOUND:                -0.893
REMARK  Name = 
REMARK  11 active torsions:
REMARK  status: ('A' for Active; 'I' for Inactive)
REMARK    1  A    between atoms: C_1  and  O_2
REMARK    2  A    between atoms: O_2  and  C_3
REMARK    3  A    between atoms: C_3  and  C_5
REMARK    4  A    between atoms: C_8  and  C_9
REMARK    5  A    between atoms: C_9  and  O_10
REMARK    6  A    between atoms: O_10  and  C_11
REMARK    7  A    between atoms: C_11  and  C_12
REMARK    8  A    between atoms: C_15  and  C_16
REMARK    9  A    between atoms: C_16  and  N_17
REMARK   10  A    between atoms: N_17  and  C_18
REMARK   11  A    between atoms: C_18  and  C_19
REMARK                            x       y       z     vdW  Elec       q    Type
REMARK                         _______ _______ _______ _____ _____    ______ ____
ROOT
ATOM      1  O   UNL     1      50.348   7.643  14.112  0.00  0.00    +0.000 OA
ENDROOT
BRANCH   1   2
ATOM      2  C   UNL     1      50.801   8.120  15.385  0.00  0.00    +0.000 C 
BRANCH   2   6
ATOM      3  C   UNL     1      51.918   4.680  17.794  0.00  0.00    +0.000 A 
ATOM      4  C   UNL     1      52.867   5.375  17.034  0.00  0.00    +0.000 A 
ATOM      5  C   UNL     1      52.489   6.481  16.276  0.00  0.00    +0.000 A 
ATOM      6  C   UNL     1      51.159   6.934  16.263  0.00  0.00    +0.000 A 
ATOM      7  C   UNL     1      50.230   6.272  17.098  0.00  0.00    +0.000 A 
ATOM      8  C   UNL     1      48.829   6.742  17.263  0.00  0.00    +0.000 A 
ATOM      9  O   UNL     1      48.455   7.858  16.920  0.00  0.00    +0.000 OA
ATOM     10  N   UNL     1      47.970   5.880  17.890  0.00  0.00    +0.000 N 
ATOM     11  C   UNL     1      48.413   4.814  18.607  0.00  0.00    +0.000 A 
ATOM     12  N   UNL     1      49.641   4.441  18.643  0.00  0.00    +0.000 NA
ATOM     13  C   UNL     1      50.586   5.125  17.847  0.00  0.00    +0.000 A 
ATOM     14  H   UNL     1      47.017   6.196  17.996  0.00  0.00    +0.000 HD
BRANCH   3  15
ATOM     15  C   UNL     1      52.416   3.510  18.557  0.00  0.00    +0.000 C 
ATOM     16  O   UNL     1      52.691   3.567  19.747  0.00  0.00    +0.000 OA
BRANCH  15  18
ATOM     17  C   UNL     1      51.423   1.759  17.373  0.00  0.00    +0.000 C 
ATOM     18  O   UNL     1      52.618   2.445  17.747  0.00  0.00    +0.000 OA
ENDBRANCH  15  18
ENDBRANCH   3  15
ENDBRANCH   2   6
ENDBRANCH   1   2
BRANCH   1  19
ATOM     19  C   UNL     1      49.286   8.428  13.575  0.00  0.00    +0.000 C 
BRANCH  19  20
ATOM     20  C   UNL     1      48.197   7.504  13.077  0.00  0.00    +0.000 A 
ATOM     21  C   UNL     1      47.936   6.295  13.736  0.00  0.00    +0.000 A 
ATOM     22  C   UNL     1      46.925   5.439  13.289  0.00  0.00    +0.000 A 
ATOM     23  C   UNL     1      46.141   5.774  12.176  0.00  0.00    +0.000 A 
ATOM     24  C   UNL     1      46.395   6.984  11.520  0.00  0.00    +0.000 A 
ATOM     25  C   UNL     1      47.413   7.843  11.967  0.00  0.00    +0.000 A 
BRANCH  23  26
ATOM     26  C   UNL     1      45.059   4.833  11.689  0.00  0.00    +0.000 C 
BRANCH  26  27
ATOM     27  N   UNL     1      44.524   5.274  10.402  0.00  0.00    +0.000 NA
ATOM     28  H   UNL     1      45.277   5.710   9.868  0.00  0.00    +0.000 HD
BRANCH  27  29
ATOM     29  C   UNL     1      44.001   4.148   9.618  0.00  0.00    +0.000 C 
BRANCH  29  30
ATOM     30  C   UNL     1      45.088   3.498   8.779  0.00  0.00    +0.000 A 
ATOM     31  C   UNL     1      45.313   2.124   8.869  0.00  0.00    +0.000 A 
ATOM     32  C   UNL     1      46.293   1.545   8.068  0.00  0.00    +0.000 A 
ATOM     33  C   UNL     1      47.027   2.349   7.206  0.00  0.00    +0.000 A 
ATOM     34  C   UNL     1      46.747   3.705   7.179  0.00  0.00    +0.000 A 
ATOM     35  N   UNL     1      45.799   4.296   7.940  0.00  0.00    +0.000 NA
ENDBRANCH  29  30
ENDBRANCH  27  29
ENDBRANCH  26  27
ENDBRANCH  23  26
ENDBRANCH  19  20
ENDBRANCH   1  19
TORSDOF 10
ENDMDL
