MODEL 1
REMARK VINA RESULT:    -7.877      0.000      0.000
REMARK INTER + INTRA:         -13.101
REMARK INTER:                 -11.560
REMARK INTRA:                  -1.540
REMARK UNBOUND:                -1.540
REMARK  Name = 
REMARK  9 active torsions:
REMARK  status: ('A' for Active; 'I' for Inactive)
REMARK    1  A    between atoms: C_1  and  C_2
REMARK    2  A    between atoms: C_2  and  C_3
REMARK    3  A    between atoms: C_2  and  C_26
REMARK    4  A    between atoms: C_3  and  N_4
REMARK    5  A    between atoms: N_4  and  C_5
REMARK    6  A    between atoms: C_5  and  C_6
REMARK    7  A    between atoms: C_9  and  C_10
REMARK    8  A    between atoms: C_10  and  N_11
REMARK    9  A    between atoms: C_12  and  C_14
REMARK                            x       y       z     vdW  Elec       q    Type
REMARK                         _______ _______ _______ _____ _____    ______ ____
ROOT
ATOM      1  C   UNL     1      44.451   4.432  11.969  0.00  0.00    +0.000 A 
ATOM      2  C   UNL     1      44.122   5.799  11.972  0.00  0.00    +0.000 A 
ATOM      3  C   UNL     1      45.017   6.759  12.443  0.00  0.00    +0.000 A 
ATOM      4  C   UNL     1      46.264   6.377  12.941  0.00  0.00    +0.000 A 
ATOM      5  C   UNL     1      46.575   5.012  13.010  0.00  0.00    +0.000 A 
ATOM      6  C   UNL     1      45.680   4.051  12.526  0.00  0.00    +0.000 A 
ENDROOT
BRANCH   1   7
ATOM      7  C   UNL     1      43.505   3.372  11.426  0.00  0.00    +0.000 C 
BRANCH   7   8
ATOM      8  N   UNL     1      44.212   2.408  10.588  0.00  0.00    +0.000 NA
ATOM      9  H   UNL     1      45.167   2.349  10.939  0.00  0.00    +0.000 HD
BRANCH   8  10
ATOM     10  C   UNL     1      44.299   2.777   9.178  0.00  0.00    +0.000 C 
BRANCH  10  12
ATOM     11  C   UNL     1      45.765   4.816   8.723  0.00  0.00    +0.000 C 
ATOM     12  C   UNL     1      45.730   3.284   8.835  0.00  0.00    +0.000 C 
BRANCH  12  13
ATOM     13  C   UNL     1      46.296   2.578   7.610  0.00  0.00    +0.000 A 
ATOM     14  C   UNL     1      46.483   3.278   6.412  0.00  0.00    +0.000 A 
ATOM     15  C   UNL     1      47.055   2.640   5.314  0.00  0.00    +0.000 A 
ATOM     16  C   UNL     1      47.433   1.315   5.444  0.00  0.00    +0.000 A 
ATOM     17  N   UNL     1      47.280   0.605   6.579  0.00  0.00    +0.000 NA
ATOM     18  C   UNL     1      46.713   1.246   7.628  0.00  0.00    +0.000 A 
ENDBRANCH  12  13
ENDBRANCH  10  12
ENDBRANCH   8  10
ENDBRANCH   7   8
ENDBRANCH   1   7
BRANCH   4  19
ATOM     19  C   UNL     1      47.229   7.419  13.432  0.00  0.00    +0.000 C 
BRANCH  19  20
ATOM     20  N   UNL     1      47.725   7.086  14.741  0.00  0.00    +0.000 N 
ATOM     21  C   UNL     1      49.066   6.916  14.962  0.00  0.00    +0.000 C 
ATOM     22  O   UNL     1      49.897   7.081  14.073  0.00  0.00    +0.000 OA
ATOM     23  H   UNL     1      47.051   6.755  15.423  0.00  0.00    +0.000 HD
BRANCH  21  24
ATOM     24  C   UNL     1      49.468   6.580  16.332  0.00  0.00    +0.000 A 
ATOM     25  C   UNL     1      50.496   7.292  16.935  0.00  0.00    +0.000 A 
ATOM     26  S   UNL     1      50.819   6.804  18.535  0.00  0.00    +0.000 S 
ATOM     27  C   UNL     1      49.625   5.595  18.465  0.00  0.00    +0.000 A 
ATOM     28  N   UNL     1      49.402   4.771  19.526  0.00  0.00    +0.000 NA
ATOM     29  C   UNL     1      48.489   3.883  19.327  0.00  0.00    +0.000 A 
ATOM     30  N   UNL     1      47.775   3.744  18.166  0.00  0.00    +0.000 N 
ATOM     31  C   UNL     1      47.948   4.564  17.077  0.00  0.00    +0.000 A 
ATOM     32  O   UNL     1      47.263   4.433  16.068  0.00  0.00    +0.000 OA
ATOM     33  C   UNL     1      48.976   5.575  17.243  0.00  0.00    +0.000 A 
ATOM     34  H   UNL     1      47.067   3.030  18.077  0.00  0.00    +0.000 HD
ENDBRANCH  21  24
ENDBRANCH  19  20
ENDBRANCH   4  19
TORSDOF 8
ENDMDL
MODEL 2
REMARK VINA RESULT:    -7.555      1.915      2.368
REMARK INTER + INTRA:         -12.628
REMARK INTER:                 -11.362
REMARK INTRA:                  -1.266
REMARK UNBOUND:                -1.540
REMARK  Name = 
REMARK  9 active torsions:
REMARK  status: ('A' for Active; 'I' for Inactive)
REMARK    1  A    between atoms: C_1  and  C_2
REMARK    2  A    between atoms: C_2  and  C_3
REMARK    3  A    between atoms: C_2  and  C_26
REMARK    4  A    between atoms: C_3  and  N_4
REMARK    5  A    between atoms: N_4  and  C_5
REMARK    6  A    between atoms: C_5  and  C_6
REMARK    7  A    between atoms: C_9  and  C_10
REMARK    8  A    between atoms: C_10  and  N_11
REMARK    9  A    between atoms: C_12  and  C_14
REMARK                            x       y       z     vdW  Elec       q    Type
REMARK                         _______ _______ _______ _____ _____    ______ ____
ROOT
ATOM      1  C   UNL     1      44.718   3.940  12.246  0.00  0.00    +0.000 A 
ATOM      2  C   UNL     1      45.784   3.286  12.888  0.00  0.00    +0.000 A 
ATOM      3  C   UNL     1      46.803   4.003  13.515  0.00  0.00    +0.000 A 
ATOM      4  C   UNL     1      46.794   5.398  13.503  0.00  0.00    +0.000 A 
ATOM      5  C   UNL     1      45.776   6.062  12.805  0.00  0.00    +0.000 A 
ATOM      6  C   UNL     1      44.748   5.340  12.187  0.00  0.00    +0.000 A 
ENDROOT
BRANCH   1   7
ATOM      7  C   UNL     1      43.577   3.178  11.589  0.00  0.00    +0.000 C 
BRANCH   7   8
ATOM      8  N   UNL     1      43.607   3.327  10.137  0.00  0.00    +0.000 NA
ATOM      9  H   UNL     1      42.663   3.152   9.797  0.00  0.00    +0.000 HD
BRANCH   8  10
ATOM     10  C   UNL     1      44.488   2.387   9.449  0.00  0.00    +0.000 C 
BRANCH  10  12
ATOM     11  C   UNL     1      45.482   4.622   8.721  0.00  0.00    +0.000 C 
ATOM     12  C   UNL     1      45.749   3.120   8.906  0.00  0.00    +0.000 C 
BRANCH  12  13
ATOM     13  C   UNL     1      46.294   2.447   7.653  0.00  0.00    +0.000 A 
ATOM     14  C   UNL     1      46.476   3.182   6.476  0.00  0.00    +0.000 A 
ATOM     15  C   UNL     1      47.029   2.573   5.352  0.00  0.00    +0.000 A 
ATOM     16  C   UNL     1      47.393   1.240   5.437  0.00  0.00    +0.000 A 
ATOM     17  N   UNL     1      47.244   0.496   6.551  0.00  0.00    +0.000 NA
ATOM     18  C   UNL     1      46.696   1.110   7.625  0.00  0.00    +0.000 A 
ENDBRANCH  12  13
ENDBRANCH  10  12
ENDBRANCH   8  10
ENDBRANCH   7   8
ENDBRANCH   1   7
BRANCH   4  19
ATOM     19  C   UNL     1      47.888   6.163  14.194  0.00  0.00    +0.000 C 
BRANCH  19  20
ATOM     20  N   UNL     1      47.813   5.991  15.621  0.00  0.00    +0.000 N 
ATOM     21  C   UNL     1      48.941   6.053  16.396  0.00  0.00    +0.000 C 
ATOM     22  O   UNL     1      50.045   6.298  15.919  0.00  0.00    +0.000 OA
ATOM     23  H   UNL     1      46.958   5.597  15.998  0.00  0.00    +0.000 HD
BRANCH  21  24
ATOM     24  C   UNL     1      48.756   5.868  17.839  0.00  0.00    +0.000 A 
ATOM     25  C   UNL     1      49.046   4.638  18.413  0.00  0.00    +0.000 A 
ATOM     26  S   UNL     1      48.812   4.596  20.100  0.00  0.00    +0.000 S 
ATOM     27  C   UNL     1      48.275   6.209  20.119  0.00  0.00    +0.000 A 
ATOM     28  N   UNL     1      47.879   6.800  21.281  0.00  0.00    +0.000 NA
ATOM     29  C   UNL     1      47.469   8.015  21.147  0.00  0.00    +0.000 A 
ATOM     30  N   UNL     1      47.422   8.697  19.960  0.00  0.00    +0.000 N 
ATOM     31  C   UNL     1      47.831   8.153  18.766  0.00  0.00    +0.000 A 
ATOM     32  O   UNL     1      47.810   8.807  17.729  0.00  0.00    +0.000 OA
ATOM     33  C   UNL     1      48.290   6.779  18.858  0.00  0.00    +0.000 A 
ATOM     34  H   UNL     1      47.096   9.651  19.924  0.00  0.00    +0.000 HD
ENDBRANCH  21  24
ENDBRANCH  19  20
ENDBRANCH   4  19
TORSDOF 8
ENDMDL
MODEL 3
REMARK VINA RESULT:    -7.327      4.145      9.226
REMARK INTER + INTRA:         -12.294
REMARK INTER:                  -9.344
REMARK INTRA:                  -2.950
REMARK UNBOUND:                -1.540
REMARK  Name = 
REMARK  9 active torsions:
REMARK  status: ('A' for Active; 'I' for Inactive)
REMARK    1  A    between atoms: C_1  and  C_2
REMARK    2  A    between atoms: C_2  and  C_3
REMARK    3  A    between atoms: C_2  and  C_26
REMARK    4  A    between atoms: C_3  and  N_4
REMARK    5  A    between atoms: N_4  and  C_5
REMARK    6  A    between atoms: C_5  and  C_6
REMARK    7  A    between atoms: C_9  and  C_10
REMARK    8  A    between atoms: C_10  and  N_11
REMARK    9  A    between atoms: C_12  and  C_14
REMARK                            x       y       z     vdW  Elec       q    Type
REMARK                         _______ _______ _______ _____ _____    ______ ____
ROOT
ATOM      1  C   UNL     1      48.706   5.585  20.146  0.00  0.00    +0.000 A 
ATOM      2  C   UNL     1      49.562   4.652  19.536  0.00  0.00    +0.000 A 
ATOM      3  C   UNL     1      49.226   4.039  18.329  0.00  0.00    +0.000 A 
ATOM      4  C   UNL     1      48.012   4.329  17.705  0.00  0.00    +0.000 A 
ATOM      5  C   UNL     1      47.118   5.203  18.339  0.00  0.00    +0.000 A 
ATOM      6  C   UNL     1      47.463   5.826  19.544  0.00  0.00    +0.000 A 
ENDROOT
BRANCH   1   7
ATOM      7  C   UNL     1      49.069   6.293  21.442  0.00  0.00    +0.000 C 
BRANCH   7   8
ATOM      8  N   UNL     1      49.050   7.744  21.278  0.00  0.00    +0.000 NA
ATOM      9  H   UNL     1      48.154   7.987  20.857  0.00  0.00    +0.000 HD
BRANCH   8  10
ATOM     10  C   UNL     1      50.090   8.269  20.397  0.00  0.00    +0.000 C 
BRANCH  10  12
ATOM     11  C   UNL     1      48.006   9.462  19.530  0.00  0.00    +0.000 C 
ATOM     12  C   UNL     1      49.455   9.057  19.215  0.00  0.00    +0.000 C 
BRANCH  12  13
ATOM     13  C   UNL     1      49.595   8.302  17.899  0.00  0.00    +0.000 A 
ATOM     14  C   UNL     1      50.741   7.541  17.637  0.00  0.00    +0.000 A 
ATOM     15  C   UNL     1      50.836   6.808  16.457  0.00  0.00    +0.000 A 
ATOM     16  C   UNL     1      49.776   6.850  15.568  0.00  0.00    +0.000 A 
ATOM     17  N   UNL     1      48.652   7.561  15.781  0.00  0.00    +0.000 NA
ATOM     18  C   UNL     1      48.589   8.271  16.931  0.00  0.00    +0.000 A 
ENDBRANCH  12  13
ENDBRANCH  10  12
ENDBRANCH   8  10
ENDBRANCH   7   8
ENDBRANCH   1   7
BRANCH   4  19
ATOM     19  C   UNL     1      47.664   3.676  16.397  0.00  0.00    +0.000 C 
BRANCH  19  20
ATOM     20  N   UNL     1      47.012   4.607  15.514  0.00  0.00    +0.000 N 
ATOM     21  C   UNL     1      46.814   4.303  14.193  0.00  0.00    +0.000 C 
ATOM     22  O   UNL     1      47.142   3.218  13.720  0.00  0.00    +0.000 OA
ATOM     23  H   UNL     1      46.919   5.565  15.835  0.00  0.00    +0.000 HD
BRANCH  21  24
ATOM     24  C   UNL     1      46.138   5.318  13.380  0.00  0.00    +0.000 A 
ATOM     25  C   UNL     1      46.774   6.524  13.124  0.00  0.00    +0.000 A 
ATOM     26  S   UNL     1      45.871   7.580  12.138  0.00  0.00    +0.000 S 
ATOM     27  C   UNL     1      44.578   6.479  12.051  0.00  0.00    +0.000 A 
ATOM     28  N   UNL     1      43.443   6.787  11.364  0.00  0.00    +0.000 NA
ATOM     29  C   UNL     1      42.533   5.875  11.404  0.00  0.00    +0.000 A 
ATOM     30  N   UNL     1      42.653   4.681  12.065  0.00  0.00    +0.000 N 
ATOM     31  C   UNL     1      43.785   4.315  12.753  0.00  0.00    +0.000 A 
ATOM     32  O   UNL     1      43.870   3.221  13.300  0.00  0.00    +0.000 OA
ATOM     33  C   UNL     1      44.838   5.314  12.751  0.00  0.00    +0.000 A 
ATOM     34  H   UNL     1      41.903   4.005  12.051  0.00  0.00    +0.000 HD
ENDBRANCH  21  24
ENDBRANCH  19  20
ENDBRANCH   4  19
TORSDOF 8
ENDMDL
MODEL 4
REMARK VINA RESULT:    -7.198      4.117     10.092
REMARK INTER + INTRA:         -12.105
REMARK INTER:                  -9.593
REMARK INTRA:                  -2.512
REMARK UNBOUND:                -1.540
REMARK  Name = 
REMARK  9 active torsions:
REMARK  status: ('A' for Active; 'I' for Inactive)
REMARK    1  A    between atoms: C_1  and  C_2
REMARK    2  A    between atoms: C_2  and  C_3
REMARK    3  A    between atoms: C_2  and  C_26
REMARK    4  A    between atoms: C_3  and  N_4
REMARK    5  A    between atoms: N_4  and  C_5
REMARK    6  A    between atoms: C_5  and  C_6
REMARK    7  A    between atoms: C_9  and  C_10
REMARK    8  A    between atoms: C_10  and  N_11
REMARK    9  A    between atoms: C_12  and  C_14
REMARK                            x       y       z     vdW  Elec       q    Type
REMARK                         _______ _______ _______ _____ _____    ______ ____
ROOT
ATOM      1  C   UNL     1      51.579   4.603  17.685  0.00  0.00    +0.000 A 
ATOM      2  C   UNL     1      50.677   5.567  17.202  0.00  0.00    +0.000 A 
ATOM      3  C   UNL     1      49.360   5.235  16.885  0.00  0.00    +0.000 A 
ATOM      4  C   UNL     1      48.911   3.921  17.025  0.00  0.00    +0.000 A 
ATOM      5  C   UNL     1      49.820   2.936  17.437  0.00  0.00    +0.000 A 
ATOM      6  C   UNL     1      51.137   3.275  17.766  0.00  0.00    +0.000 A 
ENDROOT
BRANCH   1   7
ATOM      7  C   UNL     1      53.007   4.952  18.072  0.00  0.00    +0.000 C 
BRANCH   7   8
ATOM      8  N   UNL     1      53.169   4.992  19.523  0.00  0.00    +0.000 NA
ATOM      9  H   UNL     1      52.586   4.252  19.912  0.00  0.00    +0.000 HD
BRANCH   8  10
ATOM     10  C   UNL     1      52.743   6.242  20.147  0.00  0.00    +0.000 C 
BRANCH  10  12
ATOM     11  C   UNL     1      51.994   4.611  21.962  0.00  0.00    +0.000 C 
ATOM     12  C   UNL     1      51.715   5.961  21.281  0.00  0.00    +0.000 C 
BRANCH  12  13
ATOM     13  C   UNL     1      50.282   6.100  20.786  0.00  0.00    +0.000 A 
ATOM     14  C   UNL     1      49.418   4.999  20.797  0.00  0.00    +0.000 A 
ATOM     15  C   UNL     1      48.092   5.148  20.397  0.00  0.00    +0.000 A 
ATOM     16  C   UNL     1      47.661   6.403  20.001  0.00  0.00    +0.000 A 
ATOM     17  N   UNL     1      48.454   7.492  19.982  0.00  0.00    +0.000 NA
ATOM     18  C   UNL     1      49.739   7.317  20.367  0.00  0.00    +0.000 A 
ENDBRANCH  12  13
ENDBRANCH  10  12
ENDBRANCH   8  10
ENDBRANCH   7   8
ENDBRANCH   1   7
BRANCH   4  19
ATOM     19  C   UNL     1      47.486   3.574  16.696  0.00  0.00    +0.000 C 
BRANCH  19  20
ATOM     20  N   UNL     1      46.923   4.527  15.777  0.00  0.00    +0.000 N 
ATOM     21  C   UNL     1      46.882   4.269  14.433  0.00  0.00    +0.000 C 
ATOM     22  O   UNL     1      47.279   3.206  13.963  0.00  0.00    +0.000 OA
ATOM     23  H   UNL     1      46.779   5.472  16.119  0.00  0.00    +0.000 HD
BRANCH  21  24
ATOM     24  C   UNL     1      46.285   5.304  13.583  0.00  0.00    +0.000 A 
ATOM     25  C   UNL     1      46.951   6.508  13.404  0.00  0.00    +0.000 A 
ATOM     26  S   UNL     1      46.144   7.590  12.363  0.00  0.00    +0.000 S 
ATOM     27  C   UNL     1      44.853   6.504  12.149  0.00  0.00    +0.000 A 
ATOM     28  N   UNL     1      43.784   6.835  11.374  0.00  0.00    +0.000 NA
ATOM     29  C   UNL     1      42.866   5.932  11.320  0.00  0.00    +0.000 A 
ATOM     30  N   UNL     1      42.919   4.725  11.968  0.00  0.00    +0.000 N 
ATOM     31  C   UNL     1      43.985   4.336  12.742  0.00  0.00    +0.000 A 
ATOM     32  O   UNL     1      44.014   3.232  13.275  0.00  0.00    +0.000 OA
ATOM     33  C   UNL     1      45.043   5.324  12.847  0.00  0.00    +0.000 A 
ATOM     34  H   UNL     1      42.167   4.057  11.879  0.00  0.00    +0.000 HD
ENDBRANCH  21  24
ENDBRANCH  19  20
ENDBRANCH   4  19
TORSDOF 8
ENDMDL
MODEL 5
REMARK VINA RESULT:    -6.903      1.629      2.533
REMARK INTER + INTRA:         -11.672
REMARK INTER:                  -9.957
REMARK INTRA:                  -1.715
REMARK UNBOUND:                -1.540
REMARK  Name = 
REMARK  9 active torsions:
REMARK  status: ('A' for Active; 'I' for Inactive)
REMARK    1  A    between atoms: C_1  and  C_2
REMARK    2  A    between atoms: C_2  and  C_3
REMARK    3  A    between atoms: C_2  and  C_26
REMARK    4  A    between atoms: C_3  and  N_4
REMARK    5  A    between atoms: N_4  and  C_5
REMARK    6  A    between atoms: C_5  and  C_6
REMARK    7  A    between atoms: C_9  and  C_10
REMARK    8  A    between atoms: C_10  and  N_11
REMARK    9  A    between atoms: C_12  and  C_14
REMARK                            x       y       z     vdW  Elec       q    Type
REMARK                         _______ _______ _______ _____ _____    ______ ____
ROOT
ATOM      1  C   UNL     1      45.611   7.392  11.881  0.00  0.00    +0.000 A 
ATOM      2  C   UNL     1      46.037   8.634  12.383  0.00  0.00    +0.000 A 
ATOM      3  C   UNL     1      47.356   8.840  12.788  0.00  0.00    +0.000 A 
ATOM      4  C   UNL     1      48.285   7.801  12.718  0.00  0.00    +0.000 A 
ATOM      5  C   UNL     1      47.856   6.538  12.288  0.00  0.00    +0.000 A 
ATOM      6  C   UNL     1      46.535   6.337  11.871  0.00  0.00    +0.000 A 
ENDROOT
BRANCH   1   7
ATOM      7  C   UNL     1      44.188   7.157  11.400  0.00  0.00    +0.000 C 
BRANCH   7   8
ATOM      8  N   UNL     1      43.705   5.837  11.795  0.00  0.00    +0.000 NA
ATOM      9  H   UNL     1      44.480   5.357  12.250  0.00  0.00    +0.000 HD
BRANCH   8  10
ATOM     10  C   UNL     1      43.274   4.991  10.684  0.00  0.00    +0.000 C 
BRANCH  10  12
ATOM     11  C   UNL     1      44.689   3.397  12.089  0.00  0.00    +0.000 C 
ATOM     12  C   UNL     1      44.007   3.619  10.730  0.00  0.00    +0.000 C 
BRANCH  12  13
ATOM     13  C   UNL     1      44.953   3.450   9.548  0.00  0.00    +0.000 A 
ATOM     14  C   UNL     1      45.301   2.172   9.096  0.00  0.00    +0.000 A 
ATOM     15  C   UNL     1      46.120   2.026   7.979  0.00  0.00    +0.000 A 
ATOM     16  C   UNL     1      46.567   3.167   7.336  0.00  0.00    +0.000 A 
ATOM     17  N   UNL     1      46.251   4.417   7.730  0.00  0.00    +0.000 NA
ATOM     18  C   UNL     1      45.462   4.529   8.823  0.00  0.00    +0.000 A 
ENDBRANCH  12  13
ENDBRANCH  10  12
ENDBRANCH   8  10
ENDBRANCH   7   8
ENDBRANCH   1   7
BRANCH   4  19
ATOM     19  C   UNL     1      49.708   8.035  13.141  0.00  0.00    +0.000 C 
BRANCH  19  20
ATOM     20  N   UNL     1      50.001   7.341  14.367  0.00  0.00    +0.000 N 
ATOM     21  C   UNL     1      49.844   7.959  15.579  0.00  0.00    +0.000 C 
ATOM     22  O   UNL     1      49.407   9.103  15.674  0.00  0.00    +0.000 OA
ATOM     23  H   UNL     1      50.542   6.485  14.299  0.00  0.00    +0.000 HD
BRANCH  21  24
ATOM     24  C   UNL     1      50.167   7.164  16.768  0.00  0.00    +0.000 A 
ATOM     25  C   UNL     1      51.144   7.614  17.645  0.00  0.00    +0.000 A 
ATOM     26  S   UNL     1      51.377   6.596  18.992  0.00  0.00    +0.000 S 
ATOM     27  C   UNL     1      50.210   5.494  18.429  0.00  0.00    +0.000 A 
ATOM     28  N   UNL     1      49.937   4.353  19.119  0.00  0.00    +0.000 NA
ATOM     29  C   UNL     1      49.053   3.596  18.566  0.00  0.00    +0.000 A 
ATOM     30  N   UNL     1      48.413   3.874  17.386  0.00  0.00    +0.000 N 
ATOM     31  C   UNL     1      48.638   5.022  16.665  0.00  0.00    +0.000 A 
ATOM     32  O   UNL     1      48.019   5.256  15.633  0.00  0.00    +0.000 OA
ATOM     33  C   UNL     1      49.637   5.906  17.238  0.00  0.00    +0.000 A 
ATOM     34  H   UNL     1      47.725   3.240  17.009  0.00  0.00    +0.000 HD
ENDBRANCH  21  24
ENDBRANCH  19  20
ENDBRANCH   4  19
TORSDOF 8
ENDMDL
MODEL 6
REMARK VINA RESULT:    -6.878      3.066      8.989
REMARK INTER + INTRA:         -11.635
REMARK INTER:                  -9.966
REMARK INTRA:                  -1.669
REMARK UNBOUND:                -1.540
REMARK  Name = 
REMARK  9 active torsions:
REMARK  status: ('A' for Active; 'I' for Inactive)
REMARK    1  A    between atoms: C_1  and  C_2
REMARK    2  A    between atoms: C_2  and  C_3
REMARK    3  A    between atoms: C_2  and  C_26
REMARK    4  A    between atoms: C_3  and  N_4
REMARK    5  A    between atoms: N_4  and  C_5
REMARK    6  A    between atoms: C_5  and  C_6
REMARK    7  A    between atoms: C_9  and  C_10
REMARK    8  A    between atoms: C_10  and  N_11
REMARK    9  A    between atoms: C_12  and  C_14
REMARK                            x       y       z     vdW  Elec       q    Type
REMARK                         _______ _______ _______ _____ _____    ______ ____
ROOT
ATOM      1  C   UNL     1      48.823   8.280  16.050  0.00  0.00    +0.000 A 
ATOM      2  C   UNL     1      48.450   9.380  15.258  0.00  0.00    +0.000 A 
ATOM      3  C   UNL     1      48.080   9.220  13.923  0.00  0.00    +0.000 A 
ATOM      4  C   UNL     1      48.089   7.955  13.335  0.00  0.00    +0.000 A 
ATOM      5  C   UNL     1      48.528   6.860  14.092  0.00  0.00    +0.000 A 
ATOM      6  C   UNL     1      48.887   7.021  15.436  0.00  0.00    +0.000 A 
ENDROOT
BRANCH   1   7
ATOM      7  C   UNL     1      49.194   8.426  17.518  0.00  0.00    +0.000 C 
BRANCH   7   8
ATOM      8  N   UNL     1      48.195   7.803  18.382  0.00  0.00    +0.000 NA
ATOM      9  H   UNL     1      47.650   8.555  18.803  0.00  0.00    +0.000 HD
BRANCH   8  10
ATOM     10  C   UNL     1      48.749   7.015  19.479  0.00  0.00    +0.000 C 
BRANCH  10  12
ATOM     11  C   UNL     1      48.170   5.127  21.097  0.00  0.00    +0.000 C 
ATOM     12  C   UNL     1      47.899   5.732  19.710  0.00  0.00    +0.000 C 
BRANCH  12  13
ATOM     13  C   UNL     1      48.073   4.732  18.574  0.00  0.00    +0.000 A 
ATOM     14  C   UNL     1      49.253   3.988  18.458  0.00  0.00    +0.000 A 
ATOM     15  C   UNL     1      49.380   3.035  17.451  0.00  0.00    +0.000 A 
ATOM     16  C   UNL     1      48.317   2.845  16.585  0.00  0.00    +0.000 A 
ATOM     17  N   UNL     1      47.160   3.532  16.663  0.00  0.00    +0.000 NA
ATOM     18  C   UNL     1      47.067   4.457  17.646  0.00  0.00    +0.000 A 
ENDBRANCH  12  13
ENDBRANCH  10  12
ENDBRANCH   8  10
ENDBRANCH   7   8
ENDBRANCH   1   7
BRANCH   4  19
ATOM     19  C   UNL     1      47.674   7.789  11.900  0.00  0.00    +0.000 C 
BRANCH  19  20
ATOM     20  N   UNL     1      46.975   6.546  11.706  0.00  0.00    +0.000 N 
ATOM     21  C   UNL     1      45.608   6.491  11.770  0.00  0.00    +0.000 C 
ATOM     22  O   UNL     1      44.925   7.495  11.951  0.00  0.00    +0.000 OA
ATOM     23  H   UNL     1      47.522   5.693  11.756  0.00  0.00    +0.000 HD
BRANCH  21  24
ATOM     24  C   UNL     1      44.993   5.177  11.555  0.00  0.00    +0.000 A 
ATOM     25  C   UNL     1      44.307   4.566  12.595  0.00  0.00    +0.000 A 
ATOM     26  S   UNL     1      43.624   3.063  12.175  0.00  0.00    +0.000 S 
ATOM     27  C   UNL     1      44.257   3.154  10.600  0.00  0.00    +0.000 A 
ATOM     28  N   UNL     1      44.058   2.145   9.707  0.00  0.00    +0.000 NA
ATOM     29  C   UNL     1      44.616   2.332   8.560  0.00  0.00    +0.000 A 
ATOM     30  N   UNL     1      45.353   3.437   8.221  0.00  0.00    +0.000 N 
ATOM     31  C   UNL     1      45.562   4.490   9.078  0.00  0.00    +0.000 A 
ATOM     32  O   UNL     1      46.195   5.480   8.725  0.00  0.00    +0.000 OA
ATOM     33  C   UNL     1      44.966   4.325  10.390  0.00  0.00    +0.000 A 
ATOM     34  H   UNL     1      45.758   3.525   7.301  0.00  0.00    +0.000 HD
ENDBRANCH  21  24
ENDBRANCH  19  20
ENDBRANCH   4  19
TORSDOF 8
ENDMDL
MODEL 7
REMARK VINA RESULT:    -6.710      3.021      4.274
REMARK INTER + INTRA:         -11.388
REMARK INTER:                 -10.231
REMARK INTRA:                  -1.157
REMARK UNBOUND:                -1.540
REMARK  Name = 
REMARK  9 active torsions:
REMARK  status: ('A' for Active; 'I' for Inactive)
REMARK    1  A    between atoms: C_1  and  C_2
REMARK    2  A    between atoms: C_2  and  C_3
REMARK    3  A    between atoms: C_2  and  C_26
REMARK    4  A    between atoms: C_3  and  N_4
REMARK    5  A    between atoms: N_4  and  C_5
REMARK    6  A    between atoms: C_5  and  C_6
REMARK    7  A    between atoms: C_9  and  C_10
REMARK    8  A    between atoms: C_10  and  N_11
REMARK    9  A    between atoms: C_12  and  C_14
REMARK                            x       y       z     vdW  Elec       q    Type
REMARK                         _______ _______ _______ _____ _____    ______ ____
ROOT
ATOM      1  C   UNL     1      47.161   5.398  14.106  0.00  0.00    +0.000 A 
ATOM      2  C   UNL     1      47.270   4.673  15.305  0.00  0.00    +0.000 A 
ATOM      3  C   UNL     1      48.115   5.093  16.332  0.00  0.00    +0.000 A 
ATOM      4  C   UNL     1      48.891   6.243  16.182  0.00  0.00    +0.000 A 
ATOM      5  C   UNL     1      48.847   6.934  14.963  0.00  0.00    +0.000 A 
ATOM      6  C   UNL     1      47.988   6.518  13.939  0.00  0.00    +0.000 A 
ENDROOT
BRANCH   1   7
ATOM      7  C   UNL     1      46.218   4.980  12.988  0.00  0.00    +0.000 C 
BRANCH   7   8
ATOM      8  N   UNL     1      45.189   4.066  13.476  0.00  0.00    +0.000 NA
ATOM      9  H   UNL     1      45.659   3.206  13.758  0.00  0.00    +0.000 HD
BRANCH   8  10
ATOM     10  C   UNL     1      44.185   3.696  12.482  0.00  0.00    +0.000 C 
BRANCH  10  12
ATOM     11  C   UNL     1      42.909   5.337  11.001  0.00  0.00    +0.000 C 
ATOM     12  C   UNL     1      44.259   4.648  11.254  0.00  0.00    +0.000 C 
BRANCH  12  13
ATOM     13  C   UNL     1      44.810   3.936  10.025  0.00  0.00    +0.000 A 
ATOM     14  C   UNL     1      45.445   4.661   9.010  0.00  0.00    +0.000 A 
ATOM     15  C   UNL     1      45.996   3.996   7.918  0.00  0.00    +0.000 A 
ATOM     16  C   UNL     1      45.904   2.616   7.872  0.00  0.00    +0.000 A 
ATOM     17  N   UNL     1      45.310   1.876   8.828  0.00  0.00    +0.000 NA
ATOM     18  C   UNL     1      44.775   2.548   9.874  0.00  0.00    +0.000 A 
ENDBRANCH  12  13
ENDBRANCH  10  12
ENDBRANCH   8  10
ENDBRANCH   7   8
ENDBRANCH   1   7
BRANCH   4  19
ATOM     19  C   UNL     1      49.788   6.696  17.299  0.00  0.00    +0.000 C 
BRANCH  19  20
ATOM     20  N   UNL     1      50.821   5.728  17.556  0.00  0.00    +0.000 N 
ATOM     21  C   UNL     1      50.967   5.168  18.797  0.00  0.00    +0.000 C 
ATOM     22  O   UNL     1      50.205   5.432  19.723  0.00  0.00    +0.000 OA
ATOM     23  H   UNL     1      51.568   5.653  16.872  0.00  0.00    +0.000 HD
BRANCH  21  24
ATOM     24  C   UNL     1      52.049   4.190  18.953  0.00  0.00    +0.000 A 
ATOM     25  C   UNL     1      53.135   4.497  19.760  0.00  0.00    +0.000 A 
ATOM     26  S   UNL     1      54.287   3.244  19.863  0.00  0.00    +0.000 S 
ATOM     27  C   UNL     1      53.395   2.263  18.799  0.00  0.00    +0.000 A 
ATOM     28  N   UNL     1      53.852   1.034  18.434  0.00  0.00    +0.000 NA
ATOM     29  C   UNL     1      53.091   0.410  17.601  0.00  0.00    +0.000 A 
ATOM     30  N   UNL     1      51.913   0.899  17.101  0.00  0.00    +0.000 N 
ATOM     31  C   UNL     1      51.399   2.123  17.456  0.00  0.00    +0.000 A 
ATOM     32  O   UNL     1      50.322   2.512  17.017  0.00  0.00    +0.000 OA
ATOM     33  C   UNL     1      52.225   2.875  18.383  0.00  0.00    +0.000 A 
ATOM     34  H   UNL     1      51.360   0.356  16.455  0.00  0.00    +0.000 HD
ENDBRANCH  21  24
ENDBRANCH  19  20
ENDBRANCH   4  19
TORSDOF 8
ENDMDL
MODEL 8
REMARK VINA RESULT:    -6.706      4.164      9.135
REMARK INTER + INTRA:         -11.383
REMARK INTER:                  -9.074
REMARK INTRA:                  -2.309
REMARK UNBOUND:                -1.540
REMARK  Name = 
REMARK  9 active torsions:
REMARK  status: ('A' for Active; 'I' for Inactive)
REMARK    1  A    between atoms: C_1  and  C_2
REMARK    2  A    between atoms: C_2  and  C_3
REMARK    3  A    between atoms: C_2  and  C_26
REMARK    4  A    between atoms: C_3  and  N_4
REMARK    5  A    between atoms: N_4  and  C_5
REMARK    6  A    between atoms: C_5  and  C_6
REMARK    7  A    between atoms: C_9  and  C_10
REMARK    8  A    between atoms: C_10  and  N_11
REMARK    9  A    between atoms: C_12  and  C_14
REMARK                            x       y       z     vdW  Elec       q    Type
REMARK                         _______ _______ _______ _____ _____    ______ ____
ROOT
ATOM      1  C   UNL     1      51.129   4.052  18.516  0.00  0.00    +0.000 A 
ATOM      2  C   UNL     1      50.865   3.068  17.547  0.00  0.00    +0.000 A 
ATOM      3  C   UNL     1      49.576   2.861  17.056  0.00  0.00    +0.000 A 
ATOM      4  C   UNL     1      48.508   3.623  17.534  0.00  0.00    +0.000 A 
ATOM      5  C   UNL     1      48.746   4.556  18.552  0.00  0.00    +0.000 A 
ATOM      6  C   UNL     1      50.042   4.771  19.034  0.00  0.00    +0.000 A 
ENDROOT
BRANCH   1   7
ATOM      7  C   UNL     1      52.532   4.320  19.038  0.00  0.00    +0.000 C 
BRANCH   7   8
ATOM      8  N   UNL     1      53.085   5.545  18.469  0.00  0.00    +0.000 NA
ATOM      9  H   UNL     1      52.468   6.309  18.740  0.00  0.00    +0.000 HD
BRANCH   8  10
ATOM     10  C   UNL     1      53.159   5.557  17.010  0.00  0.00    +0.000 C 
BRANCH  10  12
ATOM     11  C   UNL     1      53.899   8.000  16.952  0.00  0.00    +0.000 C 
ATOM     12  C   UNL     1      52.857   6.982  16.462  0.00  0.00    +0.000 C 
BRANCH  12  13
ATOM     13  C   UNL     1      51.422   7.402  16.755  0.00  0.00    +0.000 A 
ATOM     14  C   UNL     1      50.366   6.909  15.979  0.00  0.00    +0.000 A 
ATOM     15  C   UNL     1      49.053   7.253  16.289  0.00  0.00    +0.000 A 
ATOM     16  C   UNL     1      48.827   8.078  17.377  0.00  0.00    +0.000 A 
ATOM     17  N   UNL     1      49.811   8.569  18.156  0.00  0.00    +0.000 NA
ATOM     18  C   UNL     1      51.078   8.227  17.827  0.00  0.00    +0.000 A 
ENDBRANCH  12  13
ENDBRANCH  10  12
ENDBRANCH   8  10
ENDBRANCH   7   8
ENDBRANCH   1   7
BRANCH   4  19
ATOM     19  C   UNL     1      47.125   3.404  16.988  0.00  0.00    +0.000 C 
BRANCH  19  20
ATOM     20  N   UNL     1      46.810   4.380  15.979  0.00  0.00    +0.000 N 
ATOM     21  C   UNL     1      46.975   4.096  14.650  0.00  0.00    +0.000 C 
ATOM     22  O   UNL     1      47.354   2.993  14.263  0.00  0.00    +0.000 OA
ATOM     23  H   UNL     1      46.690   5.341  16.283  0.00  0.00    +0.000 HD
BRANCH  21  24
ATOM     24  C   UNL     1      46.622   5.157  13.702  0.00  0.00    +0.000 A 
ATOM     25  C   UNL     1      47.548   6.149  13.411  0.00  0.00    +0.000 A 
ATOM     26  S   UNL     1      46.997   7.287  12.268  0.00  0.00    +0.000 S 
ATOM     27  C   UNL     1      45.484   6.519  12.153  0.00  0.00    +0.000 A 
ATOM     28  N   UNL     1      44.508   7.017  11.345  0.00  0.00    +0.000 NA
ATOM     29  C   UNL     1      43.403   6.354  11.375  0.00  0.00    +0.000 A 
ATOM     30  N   UNL     1      43.184   5.235  12.135  0.00  0.00    +0.000 N 
ATOM     31  C   UNL     1      44.144   4.681  12.948  0.00  0.00    +0.000 A 
ATOM     32  O   UNL     1      43.924   3.656  13.584  0.00  0.00    +0.000 OA
ATOM     33  C   UNL     1      45.406   5.399  12.962  0.00  0.00    +0.000 A 
ATOM     34  H   UNL     1      42.296   4.757  12.107  0.00  0.00    +0.000 HD
ENDBRANCH  21  24
ENDBRANCH  19  20
ENDBRANCH   4  19
TORSDOF 8
ENDMDL
MODEL 9
REMARK VINA RESULT:    -6.648      3.863      8.588
REMARK INTER + INTRA:         -11.298
REMARK INTER:                  -8.595
REMARK INTRA:                  -2.703
REMARK UNBOUND:                -1.540
REMARK  Name = 
REMARK  9 active torsions:
REMARK  status: ('A' for Active; 'I' for Inactive)
REMARK    1  A    between atoms: C_1  and  C_2
REMARK    2  A    between atoms: C_2  and  C_3
REMARK    3  A    between atoms: C_2  and  C_26
REMARK    4  A    between atoms: C_3  and  N_4
REMARK    5  A    between atoms: N_4  and  C_5
REMARK    6  A    between atoms: C_5  and  C_6
REMARK    7  A    between atoms: C_9  and  C_10
REMARK    8  A    between atoms: C_10  and  N_11
REMARK    9  A    between atoms: C_12  and  C_14
REMARK                            x       y       z     vdW  Elec       q    Type
REMARK                         _______ _______ _______ _____ _____    ______ ____
ROOT
ATOM      1  C   UNL     1      49.502   7.999  18.044  0.00  0.00    +0.000 A 
ATOM      2  C   UNL     1      48.472   8.494  17.225  0.00  0.00    +0.000 A 
ATOM      3  C   UNL     1      48.375   8.131  15.882  0.00  0.00    +0.000 A 
ATOM      4  C   UNL     1      49.317   7.273  15.313  0.00  0.00    +0.000 A 
ATOM      5  C   UNL     1      50.390   6.830  16.099  0.00  0.00    +0.000 A 
ATOM      6  C   UNL     1      50.479   7.187  17.450  0.00  0.00    +0.000 A 
ENDROOT
BRANCH   1   7
ATOM      7  C   UNL     1      49.606   8.352  19.519  0.00  0.00    +0.000 C 
BRANCH   7   8
ATOM      8  N   UNL     1      49.612   7.154  20.353  0.00  0.00    +0.000 NA
ATOM      9  H   UNL     1      50.464   6.639  20.135  0.00  0.00    +0.000 HD
BRANCH   8  10
ATOM     10  C   UNL     1      48.493   6.244  20.117  0.00  0.00    +0.000 C 
BRANCH  10  12
ATOM     11  C   UNL     1      50.521   4.694  20.175  0.00  0.00    +0.000 C 
ATOM     12  C   UNL     1      49.008   4.789  19.920  0.00  0.00    +0.000 C 
BRANCH  12  13
ATOM     13  C   UNL     1      48.589   4.224  18.569  0.00  0.00    +0.000 A 
ATOM     14  C   UNL     1      47.527   4.797  17.859  0.00  0.00    +0.000 A 
ATOM     15  C   UNL     1      47.188   4.311  16.599  0.00  0.00    +0.000 A 
ATOM     16  C   UNL     1      47.928   3.264  16.075  0.00  0.00    +0.000 A 
ATOM     17  N   UNL     1      48.962   2.688  16.718  0.00  0.00    +0.000 NA
ATOM     18  C   UNL     1      49.264   3.173  17.945  0.00  0.00    +0.000 A 
ENDBRANCH  12  13
ENDBRANCH  10  12
ENDBRANCH   8  10
ENDBRANCH   7   8
ENDBRANCH   1   7
BRANCH   4  19
ATOM     19  C   UNL     1      49.196   6.874  13.869  0.00  0.00    +0.000 C 
BRANCH  19  20
ATOM     20  N   UNL     1      47.841   6.512  13.547  0.00  0.00    +0.000 N 
ATOM     21  C   UNL     1      47.330   6.740  12.297  0.00  0.00    +0.000 C 
ATOM     22  O   UNL     1      48.012   7.219  11.394  0.00  0.00    +0.000 OA
ATOM     23  H   UNL     1      47.218   6.307  14.322  0.00  0.00    +0.000 HD
BRANCH  21  24
ATOM     24  C   UNL     1      45.940   6.332  12.071  0.00  0.00    +0.000 A 
ATOM     25  C   UNL     1      45.012   7.274  11.651  0.00  0.00    +0.000 A 
ATOM     26  S   UNL     1      43.452   6.634  11.401  0.00  0.00    +0.000 S 
ATOM     27  C   UNL     1      43.952   5.083  11.886  0.00  0.00    +0.000 A 
ATOM     28  N   UNL     1      43.070   4.047  11.929  0.00  0.00    +0.000 NA
ATOM     29  C   UNL     1      43.576   2.935  12.341  0.00  0.00    +0.000 A 
ATOM     30  N   UNL     1      44.884   2.761  12.710  0.00  0.00    +0.000 N 
ATOM     31  C   UNL     1      45.817   3.769  12.662  0.00  0.00    +0.000 A 
ATOM     32  O   UNL     1      46.988   3.566  12.963  0.00  0.00    +0.000 OA
ATOM     33  C   UNL     1      45.296   5.048  12.217  0.00  0.00    +0.000 A 
ATOM     34  H   UNL     1      45.219   1.860  13.018  0.00  0.00    +0.000 HD
ENDBRANCH  21  24
ENDBRANCH  19  20
ENDBRANCH   4  19
TORSDOF 8
ENDMDL
