MODEL 1
REMARK VINA RESULT:    -8.430      0.000      0.000
REMARK INTER + INTRA:         -11.634
REMARK INTER:                 -10.894
REMARK INTRA:                  -0.740
REMARK UNBOUND:                -0.740
REMARK  Name = 
REMARK  5 active torsions:
REMARK  status: ('A' for Active; 'I' for Inactive)
REMARK    1  A    between atoms: C_5  and  C_6
REMARK    2  A    between atoms: C_6  and  C_7
REMARK    3  A    between atoms: C_10  and  C_11
REMARK    4  A    between atoms: C_11  and  N_12
REMARK    5  A    between atoms: C_13  and  C_15
REMARK                            x       y       z     vdW  Elec       q    Type
REMARK                         _______ _______ _______ _____ _____    ______ ____
ROOT
ATOM      1  C   UNL     1      44.813   4.660  10.496  0.00  0.00    +0.000 A 
ATOM      2  C   UNL     1      45.837   5.465   9.980  0.00  0.00    +0.000 A 
ATOM      3  C   UNL     1      46.388   6.496  10.748  0.00  0.00    +0.000 A 
ATOM      4  C   UNL     1      45.936   6.732  12.052  0.00  0.00    +0.000 A 
ATOM      5  C   UNL     1      44.878   5.960  12.548  0.00  0.00    +0.000 A 
ATOM      6  C   UNL     1      44.327   4.930  11.782  0.00  0.00    +0.000 A 
ENDROOT
BRANCH   1   7
ATOM      7  C   UNL     1      44.266   3.501   9.696  0.00  0.00    +0.000 C 
BRANCH   7  12
ATOM      8  N   UNL     1      47.801   1.157   5.956  0.00  0.00    +0.000 N 
ATOM      9  C   UNL     1      46.974   1.787   6.883  0.00  0.00    +0.000 A 
ATOM     10  C   UNL     1      46.570   3.099   6.690  0.00  0.00    +0.000 A 
ATOM     11  C   UNL     1      45.699   3.681   7.610  0.00  0.00    +0.000 A 
ATOM     12  C   UNL     1      45.237   2.934   8.693  0.00  0.00    +0.000 A 
ATOM     13  C   UNL     1      45.712   1.631   8.802  0.00  0.00    +0.000 A 
ATOM     14  N   UNL     1      46.560   1.046   7.923  0.00  0.00    +0.000 NA
ATOM     15  H   UNL     1      48.642   1.692   5.779  0.00  0.00    +0.000 HD
ATOM     16  H   UNL     1      48.007   0.233   6.327  0.00  0.00    +0.000 HD
ENDBRANCH   7  12
ENDBRANCH   1   7
BRANCH   4  17
ATOM     17  C   UNL     1      46.579   7.784  12.915  0.00  0.00    +0.000 C 
BRANCH  17  18
ATOM     18  N   UNL     1      47.083   7.245  14.152  0.00  0.00    +0.000 N 
ATOM     19  C   UNL     1      48.403   6.882  14.257  0.00  0.00    +0.000 C 
ATOM     20  O   UNL     1      49.197   7.060  13.336  0.00  0.00    +0.000 OA
ATOM     21  H   UNL     1      46.406   6.895  14.825  0.00  0.00    +0.000 HD
BRANCH  19  22
ATOM     22  C   UNL     1      48.844   6.319  15.539  0.00  0.00    +0.000 A 
ATOM     23  C   UNL     1      49.905   6.909  16.211  0.00  0.00    +0.000 A 
ATOM     24  S   UNL     1      50.284   6.156  17.692  0.00  0.00    +0.000 S 
ATOM     25  C   UNL     1      49.073   4.984  17.465  0.00  0.00    +0.000 A 
ATOM     26  N   UNL     1      48.884   3.992  18.378  0.00  0.00    +0.000 NA
ATOM     27  C   UNL     1      47.951   3.154  18.067  0.00  0.00    +0.000 A 
ATOM     28  N   UNL     1      47.187   3.224  16.932  0.00  0.00    +0.000 N 
ATOM     29  C   UNL     1      47.319   4.225  15.999  0.00  0.00    +0.000 A 
ATOM     30  O   UNL     1      46.585   4.288  15.021  0.00  0.00    +0.000 OA
ATOM     31  C   UNL     1      48.370   5.182  16.291  0.00  0.00    +0.000 A 
ATOM     32  H   UNL     1      46.463   2.543  16.756  0.00  0.00    +0.000 HD
ENDBRANCH  19  22
ENDBRANCH  17  18
ENDBRANCH   4  17
TORSDOF 5
ENDMDL
MODEL 2
REMARK VINA RESULT:    -7.750      2.674      4.586
REMARK INTER + INTRA:         -10.755
REMARK INTER:                  -9.916
REMARK INTRA:                  -0.839
REMARK UNBOUND:                -0.740
REMARK  Name = 
REMARK  5 active torsions:
REMARK  status: ('A' for Active; 'I' for Inactive)
REMARK    1  A    between atoms: C_5  and  C_6
REMARK    2  A    between atoms: C_6  and  C_7
REMARK    3  A    between atoms: C_10  and  C_11
REMARK    4  A    between atoms: C_11  and  N_12
REMARK    5  A    between atoms: C_13  and  C_15
REMARK                            x       y       z     vdW  Elec       q    Type
REMARK                         _______ _______ _______ _____ _____    ______ ____
ROOT
ATOM      1  C   UNL     1      44.931   3.919  10.710  0.00  0.00    +0.000 A 
ATOM      2  C   UNL     1      45.178   5.298  10.745  0.00  0.00    +0.000 A 
ATOM      3  C   UNL     1      45.774   5.887  11.865  0.00  0.00    +0.000 A 
ATOM      4  C   UNL     1      46.147   5.106  12.967  0.00  0.00    +0.000 A 
ATOM      5  C   UNL     1      45.854   3.737  12.952  0.00  0.00    +0.000 A 
ATOM      6  C   UNL     1      45.259   3.148  11.833  0.00  0.00    +0.000 A 
ENDROOT
BRANCH   1   7
ATOM      7  C   UNL     1      44.354   3.270   9.475  0.00  0.00    +0.000 C 
BRANCH   7  12
ATOM      8  N   UNL     1      48.134   1.441   5.686  0.00  0.00    +0.000 N 
ATOM      9  C   UNL     1      47.244   1.945   6.633  0.00  0.00    +0.000 A 
ATOM     10  C   UNL     1      46.798   3.255   6.553  0.00  0.00    +0.000 A 
ATOM     11  C   UNL     1      45.866   3.711   7.486  0.00  0.00    +0.000 A 
ATOM     12  C   UNL     1      45.388   2.841   8.466  0.00  0.00    +0.000 A 
ATOM     13  C   UNL     1      45.908   1.551   8.466  0.00  0.00    +0.000 A 
ATOM     14  N   UNL     1      46.815   1.088   7.572  0.00  0.00    +0.000 NA
ATOM     15  H   UNL     1      48.960   2.020   5.603  0.00  0.00    +0.000 HD
ATOM     16  H   UNL     1      48.359   0.492   5.972  0.00  0.00    +0.000 HD
ENDBRANCH   7  12
ENDBRANCH   1   7
BRANCH   4  17
ATOM     17  C   UNL     1      46.863   5.718  14.141  0.00  0.00    +0.000 C 
BRANCH  17  18
ATOM     18  N   UNL     1      47.199   7.101  13.919  0.00  0.00    +0.000 N 
ATOM     19  C   UNL     1      48.404   7.433  13.350  0.00  0.00    +0.000 C 
ATOM     20  O   UNL     1      49.193   6.574  12.962  0.00  0.00    +0.000 OA
ATOM     21  H   UNL     1      46.667   7.802  14.425  0.00  0.00    +0.000 HD
BRANCH  19  22
ATOM     22  C   UNL     1      48.690   8.861  13.172  0.00  0.00    +0.000 A 
ATOM     23  C   UNL     1      49.955   9.344  13.480  0.00  0.00    +0.000 A 
ATOM     24  S   UNL     1      50.139  11.015  13.201  0.00  0.00    +0.000 S 
ATOM     25  C   UNL     1      48.519  11.163  12.704  0.00  0.00    +0.000 A 
ATOM     26  N   UNL     1      48.006  12.373  12.351  0.00  0.00    +0.000 NA
ATOM     27  C   UNL     1      46.757  12.346  12.022  0.00  0.00    +0.000 A 
ATOM     28  N   UNL     1      45.979  11.219  12.007  0.00  0.00    +0.000 N 
ATOM     29  C   UNL     1      46.461   9.970  12.324  0.00  0.00    +0.000 A 
ATOM     30  O   UNL     1      45.752   8.974  12.251  0.00  0.00    +0.000 OA
ATOM     31  C   UNL     1      47.856   9.949  12.722  0.00  0.00    +0.000 A 
ATOM     32  H   UNL     1      45.010  11.264  11.726  0.00  0.00    +0.000 HD
ENDBRANCH  19  22
ENDBRANCH  17  18
ENDBRANCH   4  17
TORSDOF 5
ENDMDL
MODEL 3
REMARK VINA RESULT:    -7.649      3.668      4.639
REMARK INTER + INTRA:         -10.624
REMARK INTER:                  -9.896
REMARK INTRA:                  -0.728
REMARK UNBOUND:                -0.740
REMARK  Name = 
REMARK  5 active torsions:
REMARK  status: ('A' for Active; 'I' for Inactive)
REMARK    1  A    between atoms: C_5  and  C_6
REMARK    2  A    between atoms: C_6  and  C_7
REMARK    3  A    between atoms: C_10  and  C_11
REMARK    4  A    between atoms: C_11  and  N_12
REMARK    5  A    between atoms: C_13  and  C_15
REMARK                            x       y       z     vdW  Elec       q    Type
REMARK                         _______ _______ _______ _____ _____    ______ ____
ROOT
ATOM      1  C   UNL     1      44.444   3.754  10.554  0.00  0.00    +0.000 A 
ATOM      2  C   UNL     1      43.600   4.863  10.411  0.00  0.00    +0.000 A 
ATOM      3  C   UNL     1      43.755   5.986  11.230  0.00  0.00    +0.000 A 
ATOM      4  C   UNL     1      44.765   6.027  12.199  0.00  0.00    +0.000 A 
ATOM      5  C   UNL     1      45.575   4.898  12.376  0.00  0.00    +0.000 A 
ATOM      6  C   UNL     1      45.422   3.776  11.557  0.00  0.00    +0.000 A 
ENDROOT
BRANCH   1   7
ATOM      7  C   UNL     1      44.325   2.570   9.624  0.00  0.00    +0.000 C 
BRANCH   7  12
ATOM      8  N   UNL     1      48.523   2.463   5.836  0.00  0.00    +0.000 N 
ATOM      9  C   UNL     1      47.459   2.438   6.736  0.00  0.00    +0.000 A 
ATOM     10  C   UNL     1      47.099   1.258   7.367  0.00  0.00    +0.000 A 
ATOM     11  C   UNL     1      46.064   1.279   8.301  0.00  0.00    +0.000 A 
ATOM     12  C   UNL     1      45.424   2.483   8.596  0.00  0.00    +0.000 A 
ATOM     13  C   UNL     1      45.853   3.608   7.899  0.00  0.00    +0.000 A 
ATOM     14  N   UNL     1      46.854   3.610   6.986  0.00  0.00    +0.000 NA
ATOM     15  H   UNL     1      48.414   1.771   5.107  0.00  0.00    +0.000 HD
ATOM     16  H   UNL     1      48.569   3.408   5.463  0.00  0.00    +0.000 HD
ENDBRANCH   7  12
ENDBRANCH   1   7
BRANCH   4  17
ATOM     17  C   UNL     1      44.992   7.263  13.029  0.00  0.00    +0.000 C 
BRANCH  17  18
ATOM     18  N   UNL     1      46.268   7.875  12.762  0.00  0.00    +0.000 N 
ATOM     19  C   UNL     1      46.327   9.124  12.196  0.00  0.00    +0.000 C 
ATOM     20  O   UNL     1      45.311   9.775  11.961  0.00  0.00    +0.000 OA
ATOM     21  H   UNL     1      47.086   7.272  12.746  0.00  0.00    +0.000 HD
BRANCH  19  22
ATOM     22  C   UNL     1      47.659   9.679  11.932  0.00  0.00    +0.000 A 
ATOM     23  C   UNL     1      47.802  11.048  11.748  0.00  0.00    +0.000 A 
ATOM     24  S   UNL     1      49.411  11.539  11.472  0.00  0.00    +0.000 S 
ATOM     25  C   UNL     1      49.968   9.934  11.540  0.00  0.00    +0.000 A 
ATOM     26  N   UNL     1      51.283   9.644  11.344  0.00  0.00    +0.000 NA
ATOM     27  C   UNL     1      51.564   8.385  11.395  0.00  0.00    +0.000 A 
ATOM     28  N   UNL     1      50.650   7.391  11.630  0.00  0.00    +0.000 N 
ATOM     29  C   UNL     1      49.318   7.638  11.867  0.00  0.00    +0.000 A 
ATOM     30  O   UNL     1      48.537   6.731  12.125  0.00  0.00    +0.000 OA
ATOM     31  C   UNL     1      48.946   9.039  11.799  0.00  0.00    +0.000 A 
ATOM     32  H   UNL     1      50.939   6.425  11.671  0.00  0.00    +0.000 HD
ENDBRANCH  19  22
ENDBRANCH  17  18
ENDBRANCH   4  17
TORSDOF 5
ENDMDL
MODEL 4
REMARK VINA RESULT:    -7.552      3.304      8.107
REMARK INTER + INTRA:         -10.499
REMARK INTER:                  -9.558
REMARK INTRA:                  -0.941
REMARK UNBOUND:                -0.740
REMARK  Name = 
REMARK  5 active torsions:
REMARK  status: ('A' for Active; 'I' for Inactive)
REMARK    1  A    between atoms: C_5  and  C_6
REMARK    2  A    between atoms: C_6  and  C_7
REMARK    3  A    between atoms: C_10  and  C_11
REMARK    4  A    between atoms: C_11  and  N_12
REMARK    5  A    between atoms: C_13  and  C_15
REMARK                            x       y       z     vdW  Elec       q    Type
REMARK                         _______ _______ _______ _____ _____    ______ ____
ROOT
ATOM      1  C   UNL     1      49.678   5.597  17.038  0.00  0.00    +0.000 A 
ATOM      2  C   UNL     1      48.421   5.319  16.485  0.00  0.00    +0.000 A 
ATOM      3  C   UNL     1      48.022   5.917  15.285  0.00  0.00    +0.000 A 
ATOM      4  C   UNL     1      48.879   6.794  14.608  0.00  0.00    +0.000 A 
ATOM      5  C   UNL     1      50.114   7.111  15.187  0.00  0.00    +0.000 A 
ATOM      6  C   UNL     1      50.513   6.513  16.385  0.00  0.00    +0.000 A 
ENDROOT
BRANCH   1   7
ATOM      7  C   UNL     1      50.138   4.898  18.295  0.00  0.00    +0.000 C 
BRANCH   7  12
ATOM      8  N   UNL     1      53.002   0.158  17.150  0.00  0.00    +0.000 N 
ATOM      9  C   UNL     1      52.318   1.322  17.497  0.00  0.00    +0.000 A 
ATOM     10  C   UNL     1      52.982   2.371  18.113  0.00  0.00    +0.000 A 
ATOM     11  C   UNL     1      52.280   3.542  18.398  0.00  0.00    +0.000 A 
ATOM     12  C   UNL     1      50.935   3.643  18.045  0.00  0.00    +0.000 A 
ATOM     13  C   UNL     1      50.360   2.530  17.442  0.00  0.00    +0.000 A 
ATOM     14  N   UNL     1      51.021   1.382  17.158  0.00  0.00    +0.000 NA
ATOM     15  H   UNL     1      53.492  -0.239  17.941  0.00  0.00    +0.000 HD
ATOM     16  H   UNL     1      52.312  -0.484  16.766  0.00  0.00    +0.000 HD
ENDBRANCH   7  12
ENDBRANCH   1   7
BRANCH   4  17
ATOM     17  C   UNL     1      48.493   7.377  13.275  0.00  0.00    +0.000 C 
BRANCH  17  18
ATOM     18  N   UNL     1      47.790   6.431  12.446  0.00  0.00    +0.000 N 
ATOM     19  C   UNL     1      46.514   6.705  12.020  0.00  0.00    +0.000 C 
ATOM     20  O   UNL     1      45.963   7.773  12.276  0.00  0.00    +0.000 OA
ATOM     21  H   UNL     1      48.141   5.478  12.417  0.00  0.00    +0.000 HD
BRANCH  19  22
ATOM     22  C   UNL     1      45.849   5.688  11.197  0.00  0.00    +0.000 A 
ATOM     23  C   UNL     1      45.980   5.740   9.816  0.00  0.00    +0.000 A 
ATOM     24  S   UNL     1      45.170   4.481   9.001  0.00  0.00    +0.000 S 
ATOM     25  C   UNL     1      44.575   3.848  10.464  0.00  0.00    +0.000 A 
ATOM     26  N   UNL     1      43.761   2.757  10.471  0.00  0.00    +0.000 NA
ATOM     27  C   UNL     1      43.360   2.401  11.646  0.00  0.00    +0.000 A 
ATOM     28  N   UNL     1      43.705   3.031  12.812  0.00  0.00    +0.000 N 
ATOM     29  C   UNL     1      44.550   4.115  12.858  0.00  0.00    +0.000 A 
ATOM     30  O   UNL     1      44.880   4.623  13.922  0.00  0.00    +0.000 OA
ATOM     31  C   UNL     1      45.013   4.569  11.560  0.00  0.00    +0.000 A 
ATOM     32  H   UNL     1      43.367   2.692  13.701  0.00  0.00    +0.000 HD
ENDBRANCH  19  22
ENDBRANCH  17  18
ENDBRANCH   4  17
TORSDOF 5
ENDMDL
MODEL 5
REMARK VINA RESULT:    -7.411      2.042      2.508
REMARK INTER + INTRA:         -10.317
REMARK INTER:                  -9.329
REMARK INTRA:                  -0.988
REMARK UNBOUND:                -0.740
REMARK  Name = 
REMARK  5 active torsions:
REMARK  status: ('A' for Active; 'I' for Inactive)
REMARK    1  A    between atoms: C_5  and  C_6
REMARK    2  A    between atoms: C_6  and  C_7
REMARK    3  A    between atoms: C_10  and  C_11
REMARK    4  A    between atoms: C_11  and  N_12
REMARK    5  A    between atoms: C_13  and  C_15
REMARK                            x       y       z     vdW  Elec       q    Type
REMARK                         _______ _______ _______ _____ _____    ______ ____
ROOT
ATOM      1  C   UNL     1      45.376   5.369  11.528  0.00  0.00    +0.000 A 
ATOM      2  C   UNL     1      45.778   6.697  11.328  0.00  0.00    +0.000 A 
ATOM      3  C   UNL     1      46.730   7.286  12.166  0.00  0.00    +0.000 A 
ATOM      4  C   UNL     1      47.309   6.555  13.211  0.00  0.00    +0.000 A 
ATOM      5  C   UNL     1      46.870   5.246  13.442  0.00  0.00    +0.000 A 
ATOM      6  C   UNL     1      45.919   4.656  12.604  0.00  0.00    +0.000 A 
ENDROOT
BRANCH   1   7
ATOM      7  C   UNL     1      44.402   4.708  10.581  0.00  0.00    +0.000 C 
BRANCH   7  12
ATOM      8  N   UNL     1      47.029   1.862   6.460  0.00  0.00    +0.000 N 
ATOM      9  C   UNL     1      46.326   2.525   7.465  0.00  0.00    +0.000 A 
ATOM     10  C   UNL     1      45.725   1.812   8.491  0.00  0.00    +0.000 A 
ATOM     11  C   UNL     1      45.075   2.510   9.509  0.00  0.00    +0.000 A 
ATOM     12  C   UNL     1      45.057   3.904   9.488  0.00  0.00    +0.000 A 
ATOM     13  C   UNL     1      45.679   4.523   8.408  0.00  0.00    +0.000 A 
ATOM     14  N   UNL     1      46.313   3.866   7.408  0.00  0.00    +0.000 NA
ATOM     15  H   UNL     1      46.466   1.146   6.019  0.00  0.00    +0.000 HD
ATOM     16  H   UNL     1      47.332   2.572   5.798  0.00  0.00    +0.000 HD
ENDBRANCH   7  12
ENDBRANCH   1   7
BRANCH   4  17
ATOM     17  C   UNL     1      48.394   7.154  14.066  0.00  0.00    +0.000 C 
BRANCH  17  18
ATOM     18  N   UNL     1      48.155   6.957  15.472  0.00  0.00    +0.000 N 
ATOM     19  C   UNL     1      48.848   7.697  16.398  0.00  0.00    +0.000 C 
ATOM     20  O   UNL     1      49.635   8.579  16.062  0.00  0.00    +0.000 OA
ATOM     21  H   UNL     1      47.687   6.101  15.756  0.00  0.00    +0.000 HD
BRANCH  19  22
ATOM     22  C   UNL     1      48.571   7.428  17.814  0.00  0.00    +0.000 A 
ATOM     23  C   UNL     1      48.100   8.455  18.621  0.00  0.00    +0.000 A 
ATOM     24  S   UNL     1      47.806   7.983  20.232  0.00  0.00    +0.000 S 
ATOM     25  C   UNL     1      48.344   6.400  19.921  0.00  0.00    +0.000 A 
ATOM     26  N   UNL     1      48.383   5.470  20.914  0.00  0.00    +0.000 NA
ATOM     27  C   UNL     1      48.839   4.318  20.546  0.00  0.00    +0.000 A 
ATOM     28  N   UNL     1      49.252   4.013  19.276  0.00  0.00    +0.000 N 
ATOM     29  C   UNL     1      49.200   4.908  18.234  0.00  0.00    +0.000 A 
ATOM     30  O   UNL     1      49.529   4.588  17.099  0.00  0.00    +0.000 OA
ATOM     31  C   UNL     1      48.715   6.226  18.600  0.00  0.00    +0.000 A 
ATOM     32  H   UNL     1      49.586   3.087  19.052  0.00  0.00    +0.000 HD
ENDBRANCH  19  22
ENDBRANCH  17  18
ENDBRANCH   4  17
TORSDOF 5
ENDMDL
MODEL 6
REMARK VINA RESULT:    -7.357      1.884      2.713
REMARK INTER + INTRA:         -10.247
REMARK INTER:                  -9.511
REMARK INTRA:                  -0.736
REMARK UNBOUND:                -0.740
REMARK  Name = 
REMARK  5 active torsions:
REMARK  status: ('A' for Active; 'I' for Inactive)
REMARK    1  A    between atoms: C_5  and  C_6
REMARK    2  A    between atoms: C_6  and  C_7
REMARK    3  A    between atoms: C_10  and  C_11
REMARK    4  A    between atoms: C_11  and  N_12
REMARK    5  A    between atoms: C_13  and  C_15
REMARK                            x       y       z     vdW  Elec       q    Type
REMARK                         _______ _______ _______ _____ _____    ______ ____
ROOT
ATOM      1  C   UNL     1      45.288   4.739  10.737  0.00  0.00    +0.000 A 
ATOM      2  C   UNL     1      45.364   4.212  12.033  0.00  0.00    +0.000 A 
ATOM      3  C   UNL     1      46.033   4.908  13.046  0.00  0.00    +0.000 A 
ATOM      4  C   UNL     1      46.626   6.149  12.785  0.00  0.00    +0.000 A 
ATOM      5  C   UNL     1      46.594   6.650  11.478  0.00  0.00    +0.000 A 
ATOM      6  C   UNL     1      45.925   5.956  10.466  0.00  0.00    +0.000 A 
ENDROOT
BRANCH   1   7
ATOM      7  C   UNL     1      44.506   4.025   9.660  0.00  0.00    +0.000 C 
BRANCH   7  12
ATOM      8  N   UNL     1      47.535   0.727   6.206  0.00  0.00    +0.000 N 
ATOM      9  C   UNL     1      46.843   1.581   7.063  0.00  0.00    +0.000 A 
ATOM     10  C   UNL     1      46.758   2.937   6.788  0.00  0.00    +0.000 A 
ATOM     11  C   UNL     1      46.012   3.754   7.637  0.00  0.00    +0.000 A 
ATOM     12  C   UNL     1      45.354   3.195   8.732  0.00  0.00    +0.000 A 
ATOM     13  C   UNL     1      45.513   1.826   8.926  0.00  0.00    +0.000 A 
ATOM     14  N   UNL     1      46.234   1.014   8.116  0.00  0.00    +0.000 NA
ATOM     15  H   UNL     1      48.481   1.045   6.044  0.00  0.00    +0.000 HD
ATOM     16  H   UNL     1      47.510  -0.197   6.631  0.00  0.00    +0.000 HD
ENDBRANCH   7  12
ENDBRANCH   1   7
BRANCH   4  17
ATOM     17  C   UNL     1      47.276   6.943  13.888  0.00  0.00    +0.000 C 
BRANCH  17  18
ATOM     18  N   UNL     1      47.870   6.099  14.893  0.00  0.00    +0.000 N 
ATOM     19  C   UNL     1      48.652   6.650  15.877  0.00  0.00    +0.000 C 
ATOM     20  O   UNL     1      48.817   7.864  15.968  0.00  0.00    +0.000 OA
ATOM     21  H   UNL     1      47.922   5.103  14.701  0.00  0.00    +0.000 HD
BRANCH  19  22
ATOM     22  C   UNL     1      49.244   5.730  16.856  0.00  0.00    +0.000 A 
ATOM     23  C   UNL     1      48.412   4.921  17.619  0.00  0.00    +0.000 A 
ATOM     24  S   UNL     1      49.248   3.895  18.692  0.00  0.00    +0.000 S 
ATOM     25  C   UNL     1      50.750   4.529  18.211  0.00  0.00    +0.000 A 
ATOM     26  N   UNL     1      51.906   4.094  18.784  0.00  0.00    +0.000 NA
ATOM     27  C   UNL     1      52.970   4.679  18.345  0.00  0.00    +0.000 A 
ATOM     28  N   UNL     1      52.984   5.653  17.381  0.00  0.00    +0.000 N 
ATOM     29  C   UNL     1      51.847   6.100  16.751  0.00  0.00    +0.000 A 
ATOM     30  O   UNL     1      51.898   6.935  15.856  0.00  0.00    +0.000 OA
ATOM     31  C   UNL     1      50.619   5.489  17.224  0.00  0.00    +0.000 A 
ATOM     32  H   UNL     1      53.854   6.061  17.073  0.00  0.00    +0.000 HD
ENDBRANCH  19  22
ENDBRANCH  17  18
ENDBRANCH   4  17
TORSDOF 5
ENDMDL
MODEL 7
REMARK VINA RESULT:    -7.353      2.439      3.054
REMARK INTER + INTRA:         -10.242
REMARK INTER:                  -9.187
REMARK INTRA:                  -1.056
REMARK UNBOUND:                -0.740
REMARK  Name = 
REMARK  5 active torsions:
REMARK  status: ('A' for Active; 'I' for Inactive)
REMARK    1  A    between atoms: C_5  and  C_6
REMARK    2  A    between atoms: C_6  and  C_7
REMARK    3  A    between atoms: C_10  and  C_11
REMARK    4  A    between atoms: C_11  and  N_12
REMARK    5  A    between atoms: C_13  and  C_15
REMARK                            x       y       z     vdW  Elec       q    Type
REMARK                         _______ _______ _______ _____ _____    ______ ____
ROOT
ATOM      1  C   UNL     1      45.247   5.546  11.601  0.00  0.00    +0.000 A 
ATOM      2  C   UNL     1      45.333   6.944  11.640  0.00  0.00    +0.000 A 
ATOM      3  C   UNL     1      46.256   7.578  12.479  0.00  0.00    +0.000 A 
ATOM      4  C   UNL     1      47.120   6.825  13.285  0.00  0.00    +0.000 A 
ATOM      5  C   UNL     1      46.998   5.431  13.283  0.00  0.00    +0.000 A 
ATOM      6  C   UNL     1      46.077   4.797  12.445  0.00  0.00    +0.000 A 
ENDROOT
BRANCH   1   7
ATOM      7  C   UNL     1      44.302   4.858  10.645  0.00  0.00    +0.000 C 
BRANCH   7  12
ATOM      8  N   UNL     1      47.057   1.906   6.685  0.00  0.00    +0.000 N 
ATOM      9  C   UNL     1      46.322   2.596   7.648  0.00  0.00    +0.000 A 
ATOM     10  C   UNL     1      45.659   1.909   8.652  0.00  0.00    +0.000 A 
ATOM     11  C   UNL     1      44.978   2.633   9.631  0.00  0.00    +0.000 A 
ATOM     12  C   UNL     1      44.990   4.027   9.593  0.00  0.00    +0.000 A 
ATOM     13  C   UNL     1      45.675   4.619   8.536  0.00  0.00    +0.000 A 
ATOM     14  N   UNL     1      46.340   3.936   7.574  0.00  0.00    +0.000 NA
ATOM     15  H   UNL     1      46.500   1.196   6.227  0.00  0.00    +0.000 HD
ATOM     16  H   UNL     1      47.405   2.602   6.029  0.00  0.00    +0.000 HD
ENDBRANCH   7  12
ENDBRANCH   1   7
BRANCH   4  17
ATOM     17  C   UNL     1      48.171   7.496  14.128  0.00  0.00    +0.000 C 
BRANCH  17  18
ATOM     18  N   UNL     1      48.051   7.160  15.523  0.00  0.00    +0.000 N 
ATOM     19  C   UNL     1      49.096   6.557  16.178  0.00  0.00    +0.000 C 
ATOM     20  O   UNL     1      50.171   6.345  15.622  0.00  0.00    +0.000 OA
ATOM     21  H   UNL     1      47.117   7.127  15.921  0.00  0.00    +0.000 HD
BRANCH  19  22
ATOM     22  C   UNL     1      48.897   6.223  17.593  0.00  0.00    +0.000 A 
ATOM     23  C   UNL     1      49.223   4.950  18.044  0.00  0.00    +0.000 A 
ATOM     24  S   UNL     1      48.956   4.723  19.711  0.00  0.00    +0.000 S 
ATOM     25  C   UNL     1      48.349   6.302  19.883  0.00  0.00    +0.000 A 
ATOM     26  N   UNL     1      47.899   6.749  21.087  0.00  0.00    +0.000 NA
ATOM     27  C   UNL     1      47.439   7.956  21.069  0.00  0.00    +0.000 A 
ATOM     28  N   UNL     1      47.396   8.757  19.958  0.00  0.00    +0.000 N 
ATOM     29  C   UNL     1      47.869   8.362  18.729  0.00  0.00    +0.000 A 
ATOM     30  O   UNL     1      47.863   9.120  17.767  0.00  0.00    +0.000 OA
ATOM     31  C   UNL     1      48.377   7.003  18.691  0.00  0.00    +0.000 A 
ATOM     32  H   UNL     1      47.035   9.698  20.015  0.00  0.00    +0.000 HD
ENDBRANCH  19  22
ENDBRANCH  17  18
ENDBRANCH   4  17
TORSDOF 5
ENDMDL
MODEL 8
REMARK VINA RESULT:    -7.011      4.198      9.850
REMARK INTER + INTRA:          -9.800
REMARK INTER:                  -8.621
REMARK INTRA:                  -1.179
REMARK UNBOUND:                -0.740
REMARK  Name = 
REMARK  5 active torsions:
REMARK  status: ('A' for Active; 'I' for Inactive)
REMARK    1  A    between atoms: C_5  and  C_6
REMARK    2  A    between atoms: C_6  and  C_7
REMARK    3  A    between atoms: C_10  and  C_11
REMARK    4  A    between atoms: C_11  and  N_12
REMARK    5  A    between atoms: C_13  and  C_15
REMARK                            x       y       z     vdW  Elec       q    Type
REMARK                         _______ _______ _______ _____ _____    ______ ____
ROOT
ATOM      1  C   UNL     1      48.621   6.570  19.296  0.00  0.00    +0.000 A 
ATOM      2  C   UNL     1      49.488   6.522  18.197  0.00  0.00    +0.000 A 
ATOM      3  C   UNL     1      49.198   5.711  17.095  0.00  0.00    +0.000 A 
ATOM      4  C   UNL     1      48.026   4.943  17.065  0.00  0.00    +0.000 A 
ATOM      5  C   UNL     1      47.186   4.952  18.185  0.00  0.00    +0.000 A 
ATOM      6  C   UNL     1      47.476   5.762  19.286  0.00  0.00    +0.000 A 
ENDROOT
BRANCH   1   7
ATOM      7  C   UNL     1      48.896   7.498  20.456  0.00  0.00    +0.000 C 
BRANCH   7  12
ATOM      8  N   UNL     1      44.931  11.375  21.565  0.00  0.00    +0.000 N 
ATOM      9  C   UNL     1      45.872  10.399  21.238  0.00  0.00    +0.000 A 
ATOM     10  C   UNL     1      46.420  10.350  19.966  0.00  0.00    +0.000 A 
ATOM     11  C   UNL     1      47.398   9.395  19.687  0.00  0.00    +0.000 A 
ATOM     12  C   UNL     1      47.817   8.523  20.691  0.00  0.00    +0.000 A 
ATOM     13  C   UNL     1      47.195   8.648  21.930  0.00  0.00    +0.000 A 
ATOM     14  N   UNL     1      46.243   9.565  22.221  0.00  0.00    +0.000 NA
ATOM     15  H   UNL     1      44.153  11.378  20.918  0.00  0.00    +0.000 HD
ATOM     16  H   UNL     1      44.634  11.185  22.520  0.00  0.00    +0.000 HD
ENDBRANCH   7  12
ENDBRANCH   1   7
BRANCH   4  17
ATOM     17  C   UNL     1      47.664   4.133  15.849  0.00  0.00    +0.000 C 
BRANCH  17  18
ATOM     18  N   UNL     1      46.711   4.806  15.006  0.00  0.00    +0.000 N 
ATOM     19  C   UNL     1      47.141   5.516  13.912  0.00  0.00    +0.000 C 
ATOM     20  O   UNL     1      48.327   5.547  13.587  0.00  0.00    +0.000 OA
ATOM     21  H   UNL     1      45.781   4.969  15.381  0.00  0.00    +0.000 HD
BRANCH  19  22
ATOM     22  C   UNL     1      46.119   6.196  13.109  0.00  0.00    +0.000 A 
ATOM     23  C   UNL     1      46.303   7.526  12.757  0.00  0.00    +0.000 A 
ATOM     24  S   UNL     1      45.041   8.168  11.808  0.00  0.00    +0.000 S 
ATOM     25  C   UNL     1      44.179   6.704  11.873  0.00  0.00    +0.000 A 
ATOM     26  N   UNL     1      42.962   6.585  11.275  0.00  0.00    +0.000 NA
ATOM     27  C   UNL     1      42.405   5.429  11.427  0.00  0.00    +0.000 A 
ATOM     28  N   UNL     1      42.958   4.382  12.115  0.00  0.00    +0.000 N 
ATOM     29  C   UNL     1      44.198   4.444  12.707  0.00  0.00    +0.000 A 
ATOM     30  O   UNL     1      44.686   3.472  13.270  0.00  0.00    +0.000 OA
ATOM     31  C   UNL     1      44.857   5.730  12.584  0.00  0.00    +0.000 A 
ATOM     32  H   UNL     1      42.475   3.498  12.184  0.00  0.00    +0.000 HD
ENDBRANCH  19  22
ENDBRANCH  17  18
ENDBRANCH   4  17
TORSDOF 5
ENDMDL
MODEL 9
REMARK VINA RESULT:    -6.857      1.738      2.596
REMARK INTER + INTRA:          -9.601
REMARK INTER:                  -8.690
REMARK INTRA:                  -0.911
REMARK UNBOUND:                -0.740
REMARK  Name = 
REMARK  5 active torsions:
REMARK  status: ('A' for Active; 'I' for Inactive)
REMARK    1  A    between atoms: C_5  and  C_6
REMARK    2  A    between atoms: C_6  and  C_7
REMARK    3  A    between atoms: C_10  and  C_11
REMARK    4  A    between atoms: C_11  and  N_12
REMARK    5  A    between atoms: C_13  and  C_15
REMARK                            x       y       z     vdW  Elec       q    Type
REMARK                         _______ _______ _______ _____ _____    ______ ____
ROOT
ATOM      1  C   UNL     1      45.021   6.884  12.017  0.00  0.00    +0.000 A 
ATOM      2  C   UNL     1      46.034   6.092  12.575  0.00  0.00    +0.000 A 
ATOM      3  C   UNL     1      47.100   6.680  13.263  0.00  0.00    +0.000 A 
ATOM      4  C   UNL     1      47.167   8.070  13.419  0.00  0.00    +0.000 A 
ATOM      5  C   UNL     1      46.182   8.864  12.818  0.00  0.00    +0.000 A 
ATOM      6  C   UNL     1      45.116   8.277  12.130  0.00  0.00    +0.000 A 
ENDROOT
BRANCH   1   7
ATOM      7  C   UNL     1      43.832   6.248  11.336  0.00  0.00    +0.000 C 
BRANCH   7  12
ATOM      8  N   UNL     1      44.748   1.236   8.881  0.00  0.00    +0.000 N 
ATOM      9  C   UNL     1      44.590   2.480   9.490  0.00  0.00    +0.000 A 
ATOM     10  C   UNL     1      45.219   3.602   8.973  0.00  0.00    +0.000 A 
ATOM     11  C   UNL     1      44.996   4.840   9.575  0.00  0.00    +0.000 A 
ATOM     12  C   UNL     1      44.137   4.931  10.670  0.00  0.00    +0.000 A 
ATOM     13  C   UNL     1      43.566   3.744  11.119  0.00  0.00    +0.000 A 
ATOM     14  N   UNL     1      43.769   2.531  10.551  0.00  0.00    +0.000 NA
ATOM     15  H   UNL     1      45.724   0.993   8.773  0.00  0.00    +0.000 HD
ATOM     16  H   UNL     1      44.247   0.563   9.456  0.00  0.00    +0.000 HD
ENDBRANCH   7  12
ENDBRANCH   1   7
BRANCH   4  17
ATOM     17  C   UNL     1      48.265   8.706  14.229  0.00  0.00    +0.000 C 
BRANCH  17  18
ATOM     18  N   UNL     1      48.369   8.141  15.550  0.00  0.00    +0.000 N 
ATOM     19  C   UNL     1      49.375   7.253  15.841  0.00  0.00    +0.000 C 
ATOM     20  O   UNL     1      50.241   6.965  15.017  0.00  0.00    +0.000 OA
ATOM     21  H   UNL     1      47.553   8.198  16.152  0.00  0.00    +0.000 HD
BRANCH  19  22
ATOM     22  C   UNL     1      49.409   6.700  17.200  0.00  0.00    +0.000 A 
ATOM     23  C   UNL     1      49.964   7.452  18.226  0.00  0.00    +0.000 A 
ATOM     24  S   UNL     1      49.910   6.684  19.747  0.00  0.00    +0.000 S 
ATOM     25  C   UNL     1      49.184   5.298  19.079  0.00  0.00    +0.000 A 
ATOM     26  N   UNL     1      48.895   4.219  19.857  0.00  0.00    +0.000 NA
ATOM     27  C   UNL     1      48.374   3.226  19.217  0.00  0.00    +0.000 A 
ATOM     28  N   UNL     1      48.109   3.218  17.873  0.00  0.00    +0.000 N 
ATOM     29  C   UNL     1      48.353   4.295  17.053  0.00  0.00    +0.000 A 
ATOM     30  O   UNL     1      48.057   4.274  15.865  0.00  0.00    +0.000 OA
ATOM     31  C   UNL     1      48.960   5.431  17.721  0.00  0.00    +0.000 A 
ATOM     32  H   UNL     1      47.687   2.412  17.435  0.00  0.00    +0.000 HD
ENDBRANCH  19  22
ENDBRANCH  17  18
ENDBRANCH   4  17
TORSDOF 5
ENDMDL
