MODEL 1
REMARK VINA RESULT:    -8.117      0.000      0.000
REMARK INTER + INTRA:         -12.663
REMARK INTER:                 -11.438
REMARK INTRA:                  -1.225
REMARK UNBOUND:                -1.225
REMARK  Name = 
REMARK  7 active torsions:
REMARK  status: ('A' for Active; 'I' for Inactive)
REMARK    1  A    between atoms: C_2  and  C_20
REMARK    2  A    between atoms: N_3  and  C_4
REMARK    3  A    between atoms: C_4  and  C_5
REMARK    4  A    between atoms: C_8  and  C_9
REMARK    5  A    between atoms: C_9  and  N_10
REMARK    6  A    between atoms: N_10  and  C_11
REMARK    7  A    between atoms: C_11  and  C_12
REMARK                            x       y       z     vdW  Elec       q    Type
REMARK                         _______ _______ _______ _____ _____    ______ ____
ROOT
ATOM      1  C   UNL     1      46.772   7.731  13.009  0.00  0.00    +0.000 C 
ENDROOT
BRANCH   1   2
ATOM      2  C   UNL     1      46.023   6.563  12.422  0.00  0.00    +0.000 A 
ATOM      3  C   UNL     1      45.251   5.747  13.260  0.00  0.00    +0.000 A 
ATOM      4  C   UNL     1      44.491   4.697  12.739  0.00  0.00    +0.000 A 
ATOM      5  C   UNL     1      44.485   4.432  11.362  0.00  0.00    +0.000 A 
ATOM      6  C   UNL     1      45.272   5.237  10.526  0.00  0.00    +0.000 A 
ATOM      7  C   UNL     1      46.039   6.287  11.049  0.00  0.00    +0.000 A 
BRANCH   5   8
ATOM      8  C   UNL     1      43.676   3.290  10.781  0.00  0.00    +0.000 C 
BRANCH   8   9
ATOM      9  N   UNL     1      44.003   3.061   9.374  0.00  0.00    +0.000 NA
ATOM     10  H   UNL     1      44.490   3.880   9.017  0.00  0.00    +0.000 HD
BRANCH   9  11
ATOM     11  C   UNL     1      44.859   1.886   9.186  0.00  0.00    +0.000 C 
BRANCH  11  12
ATOM     12  C   UNL     1      45.892   2.103   8.106  0.00  0.00    +0.000 A 
ATOM     13  C   UNL     1      45.970   3.275   7.344  0.00  0.00    +0.000 A 
ATOM     14  C   UNL     1      46.946   3.403   6.359  0.00  0.00    +0.000 A 
ATOM     15  C   UNL     1      47.806   2.340   6.145  0.00  0.00    +0.000 A 
ATOM     16  N   UNL     1      47.749   1.181   6.836  0.00  0.00    +0.000 NA
ATOM     17  C   UNL     1      46.794   1.089   7.790  0.00  0.00    +0.000 A 
ENDBRANCH  11  12
ENDBRANCH   9  11
ENDBRANCH   8   9
ENDBRANCH   5   8
ENDBRANCH   1   2
BRANCH   1  20
ATOM     18  O   UNL     1      49.242   6.519  13.519  0.00  0.00    +0.000 OA
ATOM     19  C   UNL     1      48.544   6.883  14.469  0.00  0.00    +0.000 C 
ATOM     20  N   UNL     1      47.318   7.468  14.312  0.00  0.00    +0.000 N 
ATOM     21  H   UNL     1      46.890   7.953  15.092  0.00  0.00    +0.000 HD
BRANCH  19  22
ATOM     22  C   UNL     1      48.979   6.663  15.844  0.00  0.00    +0.000 A 
ATOM     23  C   UNL     1      49.719   7.614  16.532  0.00  0.00    +0.000 A 
ATOM     24  S   UNL     1      50.071   7.148  18.139  0.00  0.00    +0.000 S 
ATOM     25  C   UNL     1      49.230   5.680  17.956  0.00  0.00    +0.000 A 
ATOM     26  N   UNL     1      49.115   4.794  18.980  0.00  0.00    +0.000 NA
ATOM     27  C   UNL     1      48.431   3.737  18.697  0.00  0.00    +0.000 A 
ATOM     28  N   UNL     1      47.855   3.476  17.482  0.00  0.00    +0.000 N 
ATOM     29  C   UNL     1      47.999   4.298  16.406  0.00  0.00    +0.000 A 
ATOM     30  O   UNL     1      47.595   3.961  15.293  0.00  0.00    +0.000 OA
ATOM     31  C   UNL     1      48.718   5.526  16.683  0.00  0.00    +0.000 A 
ATOM     32  H   UNL     1      47.371   2.607  17.306  0.00  0.00    +0.000 HD
ENDBRANCH  19  22
ENDBRANCH   1  20
TORSDOF 7
ENDMDL
MODEL 2
REMARK VINA RESULT:    -7.894      1.415      1.702
REMARK INTER + INTRA:         -12.349
REMARK INTER:                 -11.298
REMARK INTRA:                  -1.051
REMARK UNBOUND:                -1.225
REMARK  Name = 
REMARK  7 active torsions:
REMARK  status: ('A' for Active; 'I' for Inactive)
REMARK    1  A    between atoms: C_2  and  C_20
REMARK    2  A    between atoms: N_3  and  C_4
REMARK    3  A    between atoms: C_4  and  C_5
REMARK    4  A    between atoms: C_8  and  C_9
REMARK    5  A    between atoms: C_9  and  N_10
REMARK    6  A    between atoms: N_10  and  C_11
REMARK    7  A    between atoms: C_11  and  C_12
REMARK                            x       y       z     vdW  Elec       q    Type
REMARK                         _______ _______ _______ _____ _____    ______ ____
ROOT
ATOM      1  C   UNL     1      48.222   6.492  13.422  0.00  0.00    +0.000 C 
ENDROOT
BRANCH   1   2
ATOM      2  C   UNL     1      47.021   5.868  12.760  0.00  0.00    +0.000 A 
ATOM      3  C   UNL     1      46.442   4.722  13.321  0.00  0.00    +0.000 A 
ATOM      4  C   UNL     1      45.288   4.158  12.771  0.00  0.00    +0.000 A 
ATOM      5  C   UNL     1      44.681   4.725  11.642  0.00  0.00    +0.000 A 
ATOM      6  C   UNL     1      45.271   5.862  11.070  0.00  0.00    +0.000 A 
ATOM      7  C   UNL     1      46.432   6.425  11.617  0.00  0.00    +0.000 A 
BRANCH   5   8
ATOM      8  C   UNL     1      43.436   4.121  11.026  0.00  0.00    +0.000 C 
BRANCH   8   9
ATOM      9  N   UNL     1      43.670   3.696   9.647  0.00  0.00    +0.000 NA
ATOM     10  H   UNL     1      44.180   4.432   9.163  0.00  0.00    +0.000 HD
BRANCH   9  11
ATOM     11  C   UNL     1      44.449   2.457   9.571  0.00  0.00    +0.000 C 
BRANCH  11  12
ATOM     12  C   UNL     1      45.513   2.519   8.501  0.00  0.00    +0.000 A 
ATOM     13  C   UNL     1      46.307   1.422   8.144  0.00  0.00    +0.000 A 
ATOM     14  C   UNL     1      47.274   1.554   7.152  0.00  0.00    +0.000 A 
ATOM     15  C   UNL     1      47.440   2.793   6.558  0.00  0.00    +0.000 A 
ATOM     16  N   UNL     1      46.719   3.885   6.891  0.00  0.00    +0.000 NA
ATOM     17  C   UNL     1      45.782   3.723   7.854  0.00  0.00    +0.000 A 
ENDBRANCH  11  12
ENDBRANCH   9  11
ENDBRANCH   8   9
ENDBRANCH   5   8
ENDBRANCH   1   2
BRANCH   1  20
ATOM     18  O   UNL     1      50.325   6.800  15.243  0.00  0.00    +0.000 OA
ATOM     19  C   UNL     1      49.164   6.810  15.659  0.00  0.00    +0.000 C 
ATOM     20  N   UNL     1      48.078   6.650  14.843  0.00  0.00    +0.000 N 
ATOM     21  H   UNL     1      47.155   6.892  15.183  0.00  0.00    +0.000 HD
BRANCH  19  22
ATOM     22  C   UNL     1      48.880   6.951  17.083  0.00  0.00    +0.000 A 
ATOM     23  C   UNL     1      48.497   8.168  17.630  0.00  0.00    +0.000 A 
ATOM     24  S   UNL     1      48.179   8.073  19.307  0.00  0.00    +0.000 S 
ATOM     25  C   UNL     1      48.528   6.408  19.335  0.00  0.00    +0.000 A 
ATOM     26  N   UNL     1      48.428   5.679  20.478  0.00  0.00    +0.000 NA
ATOM     27  C   UNL     1      48.704   4.426  20.338  0.00  0.00    +0.000 A 
ATOM     28  N   UNL     1      49.080   3.831  19.163  0.00  0.00    +0.000 N 
ATOM     29  C   UNL     1      49.261   4.529  18.008  0.00  0.00    +0.000 A 
ATOM     30  O   UNL     1      49.741   3.989  17.011  0.00  0.00    +0.000 OA
ATOM     31  C   UNL     1      48.916   5.933  18.097  0.00  0.00    +0.000 A 
ATOM     32  H   UNL     1      49.329   2.853  19.126  0.00  0.00    +0.000 HD
ENDBRANCH  19  22
ENDBRANCH   1  20
TORSDOF 7
ENDMDL
MODEL 3
REMARK VINA RESULT:    -7.544      2.256      2.852
REMARK INTER + INTRA:         -11.856
REMARK INTER:                 -10.813
REMARK INTRA:                  -1.044
REMARK UNBOUND:                -1.225
REMARK  Name = 
REMARK  7 active torsions:
REMARK  status: ('A' for Active; 'I' for Inactive)
REMARK    1  A    between atoms: C_2  and  C_20
REMARK    2  A    between atoms: N_3  and  C_4
REMARK    3  A    between atoms: C_4  and  C_5
REMARK    4  A    between atoms: C_8  and  C_9
REMARK    5  A    between atoms: C_9  and  N_10
REMARK    6  A    between atoms: N_10  and  C_11
REMARK    7  A    between atoms: C_11  and  C_12
REMARK                            x       y       z     vdW  Elec       q    Type
REMARK                         _______ _______ _______ _____ _____    ______ ____
ROOT
ATOM      1  C   UNL     1      48.295   6.631  13.953  0.00  0.00    +0.000 C 
ENDROOT
BRANCH   1   2
ATOM      2  C   UNL     1      47.139   6.168  13.104  0.00  0.00    +0.000 A 
ATOM      3  C   UNL     1      46.596   4.893  13.315  0.00  0.00    +0.000 A 
ATOM      4  C   UNL     1      45.482   4.459  12.593  0.00  0.00    +0.000 A 
ATOM      5  C   UNL     1      44.881   5.289  11.635  0.00  0.00    +0.000 A 
ATOM      6  C   UNL     1      45.436   6.557  11.411  0.00  0.00    +0.000 A 
ATOM      7  C   UNL     1      46.557   6.991  12.132  0.00  0.00    +0.000 A 
BRANCH   5   8
ATOM      8  C   UNL     1      43.680   4.830  10.834  0.00  0.00    +0.000 C 
BRANCH   8   9
ATOM      9  N   UNL     1      44.026   3.744   9.919  0.00  0.00    +0.000 NA
ATOM     10  H   UNL     1      43.169   3.282   9.623  0.00  0.00    +0.000 HD
BRANCH   9  11
ATOM     11  C   UNL     1      44.737   4.222   8.730  0.00  0.00    +0.000 C 
BRANCH  11  12
ATOM     12  C   UNL     1      45.667   3.176   8.164  0.00  0.00    +0.000 A 
ATOM     13  C   UNL     1      46.613   3.449   7.168  0.00  0.00    +0.000 A 
ATOM     14  C   UNL     1      47.433   2.432   6.688  0.00  0.00    +0.000 A 
ATOM     15  C   UNL     1      47.268   1.158   7.202  0.00  0.00    +0.000 A 
ATOM     16  N   UNL     1      46.351   0.842   8.141  0.00  0.00    +0.000 NA
ATOM     17  C   UNL     1      45.572   1.854   8.593  0.00  0.00    +0.000 A 
ENDBRANCH  11  12
ENDBRANCH   9  11
ENDBRANCH   8   9
ENDBRANCH   5   8
ENDBRANCH   1   2
BRANCH   1  20
ATOM     18  O   UNL     1      50.189   6.213  15.971  0.00  0.00    +0.000 OA
ATOM     19  C   UNL     1      49.012   6.408  16.283  0.00  0.00    +0.000 C 
ATOM     20  N   UNL     1      48.019   6.605  15.363  0.00  0.00    +0.000 N 
ATOM     21  H   UNL     1      47.128   6.985  15.661  0.00  0.00    +0.000 HD
BRANCH  19  22
ATOM     22  C   UNL     1      48.597   6.395  17.682  0.00  0.00    +0.000 A 
ATOM     23  C   UNL     1      48.638   5.233  18.440  0.00  0.00    +0.000 A 
ATOM     24  S   UNL     1      48.144   5.478  20.059  0.00  0.00    +0.000 S 
ATOM     25  C   UNL     1      47.883   7.138  19.787  0.00  0.00    +0.000 A 
ATOM     26  N   UNL     1      47.468   7.965  20.782  0.00  0.00    +0.000 NA
ATOM     27  C   UNL     1      47.335   9.199  20.430  0.00  0.00    +0.000 A 
ATOM     28  N   UNL     1      47.569   9.686  19.171  0.00  0.00    +0.000 N 
ATOM     29  C   UNL     1      47.920   8.888  18.125  0.00  0.00    +0.000 A 
ATOM     30  O   UNL     1      47.977   9.335  16.979  0.00  0.00    +0.000 OA
ATOM     31  C   UNL     1      48.132   7.499  18.477  0.00  0.00    +0.000 A 
ATOM     32  H   UNL     1      47.401  10.656  18.943  0.00  0.00    +0.000 HD
ENDBRANCH  19  22
ENDBRANCH   1  20
TORSDOF 7
ENDMDL
MODEL 4
REMARK VINA RESULT:    -7.448      1.873      3.171
REMARK INTER + INTRA:         -11.721
REMARK INTER:                 -10.558
REMARK INTRA:                  -1.164
REMARK UNBOUND:                -1.225
REMARK  Name = 
REMARK  7 active torsions:
REMARK  status: ('A' for Active; 'I' for Inactive)
REMARK    1  A    between atoms: C_2  and  C_20
REMARK    2  A    between atoms: N_3  and  C_4
REMARK    3  A    between atoms: C_4  and  C_5
REMARK    4  A    between atoms: C_8  and  C_9
REMARK    5  A    between atoms: C_9  and  N_10
REMARK    6  A    between atoms: N_10  and  C_11
REMARK    7  A    between atoms: C_11  and  C_12
REMARK                            x       y       z     vdW  Elec       q    Type
REMARK                         _______ _______ _______ _____ _____    ______ ____
ROOT
ATOM      1  C   UNL     1      47.316   4.086  14.941  0.00  0.00    +0.000 C 
ENDROOT
BRANCH   1   2
ATOM      2  C   UNL     1      46.426   4.297  13.743  0.00  0.00    +0.000 A 
ATOM      3  C   UNL     1      45.993   3.189  13.003  0.00  0.00    +0.000 A 
ATOM      4  C   UNL     1      45.113   3.343  11.928  0.00  0.00    +0.000 A 
ATOM      5  C   UNL     1      44.643   4.612  11.563  0.00  0.00    +0.000 A 
ATOM      6  C   UNL     1      45.091   5.723  12.293  0.00  0.00    +0.000 A 
ATOM      7  C   UNL     1      45.978   5.570  13.368  0.00  0.00    +0.000 A 
BRANCH   5   8
ATOM      8  C   UNL     1      43.698   4.799  10.394  0.00  0.00    +0.000 C 
BRANCH   8   9
ATOM      9  N   UNL     1      43.990   3.861   9.311  0.00  0.00    +0.000 NA
ATOM     10  H   UNL     1      43.163   3.775   8.724  0.00  0.00    +0.000 HD
BRANCH   9  11
ATOM     11  C   UNL     1      45.113   4.302   8.480  0.00  0.00    +0.000 C 
BRANCH  11  12
ATOM     12  C   UNL     1      45.903   3.139   7.928  0.00  0.00    +0.000 A 
ATOM     13  C   UNL     1      46.740   3.243   6.810  0.00  0.00    +0.000 A 
ATOM     14  C   UNL     1      47.434   2.126   6.353  0.00  0.00    +0.000 A 
ATOM     15  C   UNL     1      47.251   0.924   7.013  0.00  0.00    +0.000 A 
ATOM     16  N   UNL     1      46.432   0.770   8.076  0.00  0.00    +0.000 NA
ATOM     17  C   UNL     1      45.777   1.876   8.502  0.00  0.00    +0.000 A 
ENDBRANCH  11  12
ENDBRANCH   9  11
ENDBRANCH   8   9
ENDBRANCH   5   8
ENDBRANCH   1   2
BRANCH   1  20
ATOM     18  O   UNL     1      49.503   4.667  16.589  0.00  0.00    +0.000 OA
ATOM     19  C   UNL     1      48.562   5.463  16.536  0.00  0.00    +0.000 C 
ATOM     20  N   UNL     1      47.448   5.252  15.771  0.00  0.00    +0.000 N 
ATOM     21  H   UNL     1      46.817   6.021  15.580  0.00  0.00    +0.000 HD
BRANCH  19  22
ATOM     22  C   UNL     1      48.565   6.681  17.340  0.00  0.00    +0.000 A 
ATOM     23  C   UNL     1      48.609   6.634  18.727  0.00  0.00    +0.000 A 
ATOM     24  S   UNL     1      48.648   8.187  19.443  0.00  0.00    +0.000 S 
ATOM     25  C   UNL     1      48.625   8.950  17.922  0.00  0.00    +0.000 A 
ATOM     26  N   UNL     1      48.666  10.303  17.805  0.00  0.00    +0.000 NA
ATOM     27  C   UNL     1      48.664  10.734  16.588  0.00  0.00    +0.000 A 
ATOM     28  N   UNL     1      48.615   9.939  15.473  0.00  0.00    +0.000 N 
ATOM     29  C   UNL     1      48.504   8.583  15.539  0.00  0.00    +0.000 A 
ATOM     30  O   UNL     1      48.313   7.914  14.523  0.00  0.00    +0.000 OA
ATOM     31  C   UNL     1      48.552   8.043  16.882  0.00  0.00    +0.000 A 
ATOM     32  H   UNL     1      48.567  10.337  14.547  0.00  0.00    +0.000 HD
ENDBRANCH  19  22
ENDBRANCH   1  20
TORSDOF 7
ENDMDL
MODEL 5
REMARK VINA RESULT:    -7.386      2.129      2.834
REMARK INTER + INTRA:         -11.634
REMARK INTER:                 -10.798
REMARK INTRA:                  -0.836
REMARK UNBOUND:                -1.225
REMARK  Name = 
REMARK  7 active torsions:
REMARK  status: ('A' for Active; 'I' for Inactive)
REMARK    1  A    between atoms: C_2  and  C_20
REMARK    2  A    between atoms: N_3  and  C_4
REMARK    3  A    between atoms: C_4  and  C_5
REMARK    4  A    between atoms: C_8  and  C_9
REMARK    5  A    between atoms: C_9  and  N_10
REMARK    6  A    between atoms: N_10  and  C_11
REMARK    7  A    between atoms: C_11  and  C_12
REMARK                            x       y       z     vdW  Elec       q    Type
REMARK                         _______ _______ _______ _____ _____    ______ ____
ROOT
ATOM      1  C   UNL     1      47.526   4.014  15.206  0.00  0.00    +0.000 C 
ENDROOT
BRANCH   1   2
ATOM      2  C   UNL     1      46.771   4.410  13.964  0.00  0.00    +0.000 A 
ATOM      3  C   UNL     1      46.805   5.743  13.533  0.00  0.00    +0.000 A 
ATOM      4  C   UNL     1      46.172   6.131  12.349  0.00  0.00    +0.000 A 
ATOM      5  C   UNL     1      45.484   5.195  11.565  0.00  0.00    +0.000 A 
ATOM      6  C   UNL     1      45.434   3.865  12.006  0.00  0.00    +0.000 A 
ATOM      7  C   UNL     1      46.065   3.476  13.196  0.00  0.00    +0.000 A 
BRANCH   5   8
ATOM      8  C   UNL     1      44.781   5.601  10.285  0.00  0.00    +0.000 C 
BRANCH   8   9
ATOM      9  N   UNL     1      45.518   5.155   9.103  0.00  0.00    +0.000 NA
ATOM     10  H   UNL     1      46.425   4.802   9.400  0.00  0.00    +0.000 HD
BRANCH   9  11
ATOM     11  C   UNL     1      44.815   4.094   8.376  0.00  0.00    +0.000 C 
BRANCH  11  12
ATOM     12  C   UNL     1      45.764   3.050   7.837  0.00  0.00    +0.000 A 
ATOM     13  C   UNL     1      46.597   3.269   6.733  0.00  0.00    +0.000 A 
ATOM     14  C   UNL     1      47.443   2.257   6.286  0.00  0.00    +0.000 A 
ATOM     15  C   UNL     1      47.414   1.040   6.943  0.00  0.00    +0.000 A 
ATOM     16  N   UNL     1      46.607   0.775   7.993  0.00  0.00    +0.000 NA
ATOM     17  C   UNL     1      45.801   1.780   8.408  0.00  0.00    +0.000 A 
ENDBRANCH  11  12
ENDBRANCH   9  11
ENDBRANCH   8   9
ENDBRANCH   5   8
ENDBRANCH   1   2
BRANCH   1  20
ATOM     18  O   UNL     1      49.707   4.861  16.743  0.00  0.00    +0.000 OA
ATOM     19  C   UNL     1      48.599   5.367  16.941  0.00  0.00    +0.000 C 
ATOM     20  N   UNL     1      47.478   5.001  16.249  0.00  0.00    +0.000 N 
ATOM     21  H   UNL     1      46.655   5.592  16.279  0.00  0.00    +0.000 HD
BRANCH  19  22
ATOM     22  C   UNL     1      48.412   6.374  17.980  0.00  0.00    +0.000 A 
ATOM     23  C   UNL     1      48.367   7.728  17.678  0.00  0.00    +0.000 A 
ATOM     24  S   UNL     1      48.095   8.707  19.054  0.00  0.00    +0.000 S 
ATOM     25  C   UNL     1      48.015   7.348  20.074  0.00  0.00    +0.000 A 
ATOM     26  N   UNL     1      47.775   7.471  21.406  0.00  0.00    +0.000 NA
ATOM     27  C   UNL     1      47.721   6.351  22.045  0.00  0.00    +0.000 A 
ATOM     28  N   UNL     1      47.893   5.115  21.479  0.00  0.00    +0.000 N 
ATOM     29  C   UNL     1      48.202   4.942  20.165  0.00  0.00    +0.000 A 
ATOM     30  O   UNL     1      48.496   3.831  19.724  0.00  0.00    +0.000 OA
ATOM     31  C   UNL     1      48.226   6.166  19.390  0.00  0.00    +0.000 A 
ATOM     32  H   UNL     1      47.887   4.276  22.041  0.00  0.00    +0.000 HD
ENDBRANCH  19  22
ENDBRANCH   1  20
TORSDOF 7
ENDMDL
MODEL 6
REMARK VINA RESULT:    -7.109      1.937      3.005
REMARK INTER + INTRA:         -11.243
REMARK INTER:                 -10.242
REMARK INTRA:                  -1.000
REMARK UNBOUND:                -1.225
REMARK  Name = 
REMARK  7 active torsions:
REMARK  status: ('A' for Active; 'I' for Inactive)
REMARK    1  A    between atoms: C_2  and  C_20
REMARK    2  A    between atoms: N_3  and  C_4
REMARK    3  A    between atoms: C_4  and  C_5
REMARK    4  A    between atoms: C_8  and  C_9
REMARK    5  A    between atoms: C_9  and  N_10
REMARK    6  A    between atoms: N_10  and  C_11
REMARK    7  A    between atoms: C_11  and  C_12
REMARK                            x       y       z     vdW  Elec       q    Type
REMARK                         _______ _______ _______ _____ _____    ______ ____
ROOT
ATOM      1  C   UNL     1      47.349   3.619  14.834  0.00  0.00    +0.000 C 
ENDROOT
BRANCH   1   2
ATOM      2  C   UNL     1      46.476   4.030  13.677  0.00  0.00    +0.000 A 
ATOM      3  C   UNL     1      45.858   3.046  12.895  0.00  0.00    +0.000 A 
ATOM      4  C   UNL     1      44.989   3.393  11.857  0.00  0.00    +0.000 A 
ATOM      5  C   UNL     1      44.715   4.738  11.572  0.00  0.00    +0.000 A 
ATOM      6  C   UNL     1      45.348   5.724  12.343  0.00  0.00    +0.000 A 
ATOM      7  C   UNL     1      46.225   5.376  13.381  0.00  0.00    +0.000 A 
BRANCH   5   8
ATOM      8  C   UNL     1      43.785   5.133  10.443  0.00  0.00    +0.000 C 
BRANCH   8   9
ATOM      9  N   UNL     1      44.025   4.333   9.244  0.00  0.00    +0.000 NA
ATOM     10  H   UNL     1      43.294   4.538   8.565  0.00  0.00    +0.000 HD
BRANCH   9  11
ATOM     11  C   UNL     1      45.326   4.620   8.634  0.00  0.00    +0.000 C 
BRANCH  11  12
ATOM     12  C   UNL     1      46.004   3.369   8.127  0.00  0.00    +0.000 A 
ATOM     13  C   UNL     1      46.970   3.378   7.113  0.00  0.00    +0.000 A 
ATOM     14  C   UNL     1      47.549   2.184   6.691  0.00  0.00    +0.000 A 
ATOM     15  C   UNL     1      47.126   1.005   7.280  0.00  0.00    +0.000 A 
ATOM     16  N   UNL     1      46.177   0.946   8.240  0.00  0.00    +0.000 NA
ATOM     17  C   UNL     1      45.638   2.124   8.633  0.00  0.00    +0.000 A 
ENDBRANCH  11  12
ENDBRANCH   9  11
ENDBRANCH   8   9
ENDBRANCH   5   8
ENDBRANCH   1   2
BRANCH   1  20
ATOM     18  O   UNL     1      47.926   3.219  17.543  0.00  0.00    +0.000 OA
ATOM     19  C   UNL     1      47.836   4.371  17.112  0.00  0.00    +0.000 C 
ATOM     20  N   UNL     1      47.541   4.658  15.808  0.00  0.00    +0.000 N 
ATOM     21  H   UNL     1      47.703   5.592  15.451  0.00  0.00    +0.000 HD
BRANCH  19  22
ATOM     22  C   UNL     1      47.997   5.517  18.000  0.00  0.00    +0.000 A 
ATOM     23  C   UNL     1      47.003   5.888  18.894  0.00  0.00    +0.000 A 
ATOM     24  S   UNL     1      47.442   7.233  19.855  0.00  0.00    +0.000 S 
ATOM     25  C   UNL     1      48.969   7.337  19.112  0.00  0.00    +0.000 A 
ATOM     26  N   UNL     1      49.879   8.274  19.485  0.00  0.00    +0.000 NA
ATOM     27  C   UNL     1      50.999   8.215  18.847  0.00  0.00    +0.000 A 
ATOM     28  N   UNL     1      51.294   7.310  17.861  0.00  0.00    +0.000 N 
ATOM     29  C   UNL     1      50.393   6.397  17.404  0.00  0.00    +0.000 A 
ATOM     30  O   UNL     1      50.641   5.701  16.419  0.00  0.00    +0.000 OA
ATOM     31  C   UNL     1      49.134   6.387  18.122  0.00  0.00    +0.000 A 
ATOM     32  H   UNL     1      52.172   7.344  17.363  0.00  0.00    +0.000 HD
ENDBRANCH  19  22
ENDBRANCH   1  20
TORSDOF 7
ENDMDL
MODEL 7
REMARK VINA RESULT:    -7.105      3.274      8.043
REMARK INTER + INTRA:         -11.237
REMARK INTER:                  -9.740
REMARK INTRA:                  -1.497
REMARK UNBOUND:                -1.225
REMARK  Name = 
REMARK  7 active torsions:
REMARK  status: ('A' for Active; 'I' for Inactive)
REMARK    1  A    between atoms: C_2  and  C_20
REMARK    2  A    between atoms: N_3  and  C_4
REMARK    3  A    between atoms: C_4  and  C_5
REMARK    4  A    between atoms: C_8  and  C_9
REMARK    5  A    between atoms: C_9  and  N_10
REMARK    6  A    between atoms: N_10  and  C_11
REMARK    7  A    between atoms: C_11  and  C_12
REMARK                            x       y       z     vdW  Elec       q    Type
REMARK                         _______ _______ _______ _____ _____    ______ ____
ROOT
ATOM      1  C   UNL     1      48.216   8.064  12.073  0.00  0.00    +0.000 C 
ENDROOT
BRANCH   1   2
ATOM      2  C   UNL     1      48.334   7.967  13.572  0.00  0.00    +0.000 A 
ATOM      3  C   UNL     1      48.900   6.820  14.145  0.00  0.00    +0.000 A 
ATOM      4  C   UNL     1      49.087   6.726  15.527  0.00  0.00    +0.000 A 
ATOM      5  C   UNL     1      48.710   7.777  16.374  0.00  0.00    +0.000 A 
ATOM      6  C   UNL     1      48.128   8.918  15.802  0.00  0.00    +0.000 A 
ATOM      7  C   UNL     1      47.935   9.011  14.416  0.00  0.00    +0.000 A 
BRANCH   5   8
ATOM      8  C   UNL     1      48.895   7.688  17.876  0.00  0.00    +0.000 C 
BRANCH   8   9
ATOM      9  N   UNL     1      47.724   7.104  18.527  0.00  0.00    +0.000 NA
ATOM     10  H   UNL     1      47.034   6.880  17.814  0.00  0.00    +0.000 HD
BRANCH   9  11
ATOM     11  C   UNL     1      48.050   5.882  19.267  0.00  0.00    +0.000 C 
BRANCH  11  12
ATOM     12  C   UNL     1      48.213   4.691  18.354  0.00  0.00    +0.000 A 
ATOM     13  C   UNL     1      49.407   3.969  18.242  0.00  0.00    +0.000 A 
ATOM     14  C   UNL     1      49.487   2.884  17.373  0.00  0.00    +0.000 A 
ATOM     15  C   UNL     1      48.373   2.565  16.617  0.00  0.00    +0.000 A 
ATOM     16  N   UNL     1      47.211   3.251  16.670  0.00  0.00    +0.000 NA
ATOM     17  C   UNL     1      47.162   4.296  17.529  0.00  0.00    +0.000 A 
ENDBRANCH  11  12
ENDBRANCH   9  11
ENDBRANCH   8   9
ENDBRANCH   5   8
ENDBRANCH   1   2
BRANCH   1  20
ATOM     18  O   UNL     1      45.451   7.912  11.663  0.00  0.00    +0.000 OA
ATOM     19  C   UNL     1      46.165   6.973  11.302  0.00  0.00    +0.000 C 
ATOM     20  N   UNL     1      47.521   6.956  11.478  0.00  0.00    +0.000 N 
ATOM     21  H   UNL     1      48.084   6.285  10.969  0.00  0.00    +0.000 HD
BRANCH  19  22
ATOM     22  C   UNL     1      45.582   5.781  10.694  0.00  0.00    +0.000 A 
ATOM     23  C   UNL     1      45.800   5.466   9.360  0.00  0.00    +0.000 A 
ATOM     24  S   UNL     1      45.051   4.001   8.892  0.00  0.00    +0.000 S 
ATOM     25  C   UNL     1      44.437   3.750  10.459  0.00  0.00    +0.000 A 
ATOM     26  N   UNL     1      43.706   2.646  10.768  0.00  0.00    +0.000 NA
ATOM     27  C   UNL     1      43.328   2.584  12.000  0.00  0.00    +0.000 A 
ATOM     28  N   UNL     1      43.604   3.527  12.955  0.00  0.00    +0.000 N 
ATOM     29  C   UNL     1      44.273   4.681  12.680  0.00  0.00    +0.000 A 
ATOM     30  O   UNL     1      44.373   5.571  13.525  0.00  0.00    +0.000 OA
ATOM     31  C   UNL     1      44.764   4.779  11.321  0.00  0.00    +0.000 A 
ATOM     32  H   UNL     1      43.240   3.446  13.893  0.00  0.00    +0.000 HD
ENDBRANCH  19  22
ENDBRANCH   1  20
TORSDOF 7
ENDMDL
MODEL 8
REMARK VINA RESULT:    -6.926      2.720      4.236
REMARK INTER + INTRA:         -10.985
REMARK INTER:                  -9.724
REMARK INTRA:                  -1.261
REMARK UNBOUND:                -1.225
REMARK  Name = 
REMARK  7 active torsions:
REMARK  status: ('A' for Active; 'I' for Inactive)
REMARK    1  A    between atoms: C_2  and  C_20
REMARK    2  A    between atoms: N_3  and  C_4
REMARK    3  A    between atoms: C_4  and  C_5
REMARK    4  A    between atoms: C_8  and  C_9
REMARK    5  A    between atoms: C_9  and  N_10
REMARK    6  A    between atoms: N_10  and  C_11
REMARK    7  A    between atoms: C_11  and  C_12
REMARK                            x       y       z     vdW  Elec       q    Type
REMARK                         _______ _______ _______ _____ _____    ______ ____
ROOT
ATOM      1  C   UNL     1      47.774   5.812  14.338  0.00  0.00    +0.000 C 
ENDROOT
BRANCH   1   2
ATOM      2  C   UNL     1      46.700   5.556  13.312  0.00  0.00    +0.000 A 
ATOM      3  C   UNL     1      45.598   4.759  13.652  0.00  0.00    +0.000 A 
ATOM      4  C   UNL     1      44.552   4.557  12.748  0.00  0.00    +0.000 A 
ATOM      5  C   UNL     1      44.580   5.147  11.476  0.00  0.00    +0.000 A 
ATOM      6  C   UNL     1      45.691   5.930  11.130  0.00  0.00    +0.000 A 
ATOM      7  C   UNL     1      46.744   6.128  12.034  0.00  0.00    +0.000 A 
BRANCH   5   8
ATOM      8  C   UNL     1      43.460   4.929  10.479  0.00  0.00    +0.000 C 
BRANCH   8   9
ATOM      9  N   UNL     1      43.961   4.385   9.218  0.00  0.00    +0.000 NA
ATOM     10  H   UNL     1      44.772   4.928   8.930  0.00  0.00    +0.000 HD
BRANCH   9  11
ATOM     11  C   UNL     1      44.354   2.979   9.336  0.00  0.00    +0.000 C 
BRANCH  11  12
ATOM     12  C   UNL     1      45.512   2.635   8.430  0.00  0.00    +0.000 A 
ATOM     13  C   UNL     1      46.148   3.574   7.608  0.00  0.00    +0.000 A 
ATOM     14  C   UNL     1      47.207   3.184   6.792  0.00  0.00    +0.000 A 
ATOM     15  C   UNL     1      47.586   1.854   6.801  0.00  0.00    +0.000 A 
ATOM     16  N   UNL     1      46.983   0.908   7.554  0.00  0.00    +0.000 NA
ATOM     17  C   UNL     1      45.962   1.319   8.342  0.00  0.00    +0.000 A 
ENDBRANCH  11  12
ENDBRANCH   9  11
ENDBRANCH   8   9
ENDBRANCH   5   8
ENDBRANCH   1   2
BRANCH   1  20
ATOM     18  O   UNL     1      50.246   6.496  15.457  0.00  0.00    +0.000 OA
ATOM     19  C   UNL     1      49.667   7.312  14.735  0.00  0.00    +0.000 C 
ATOM     20  N   UNL     1      48.450   7.067  14.162  0.00  0.00    +0.000 N 
ATOM     21  H   UNL     1      48.124   7.658  13.405  0.00  0.00    +0.000 HD
BRANCH  19  22
ATOM     22  C   UNL     1      50.241   8.630  14.485  0.00  0.00    +0.000 A 
ATOM     23  C   UNL     1      50.446   9.539  15.513  0.00  0.00    +0.000 A 
ATOM     24  S   UNL     1      51.168  10.994  14.980  0.00  0.00    +0.000 S 
ATOM     25  C   UNL     1      51.238  10.436  13.374  0.00  0.00    +0.000 A 
ATOM     26  N   UNL     1      51.776  11.192  12.381  0.00  0.00    +0.000 NA
ATOM     27  C   UNL     1      51.778  10.626  11.221  0.00  0.00    +0.000 A 
ATOM     28  N   UNL     1      51.283   9.376  10.955  0.00  0.00    +0.000 N 
ATOM     29  C   UNL     1      50.673   8.609  11.900  0.00  0.00    +0.000 A 
ATOM     30  O   UNL     1      50.109   7.558  11.595  0.00  0.00    +0.000 OA
ATOM     31  C   UNL     1      50.688   9.176  13.233  0.00  0.00    +0.000 A 
ATOM     32  H   UNL     1      51.269   9.006  10.016  0.00  0.00    +0.000 HD
ENDBRANCH  19  22
ENDBRANCH   1  20
TORSDOF 7
ENDMDL
MODEL 9
REMARK VINA RESULT:    -6.923      2.848      8.488
REMARK INTER + INTRA:         -10.981
REMARK INTER:                  -9.435
REMARK INTRA:                  -1.546
REMARK UNBOUND:                -1.225
REMARK  Name = 
REMARK  7 active torsions:
REMARK  status: ('A' for Active; 'I' for Inactive)
REMARK    1  A    between atoms: C_2  and  C_20
REMARK    2  A    between atoms: N_3  and  C_4
REMARK    3  A    between atoms: C_4  and  C_5
REMARK    4  A    between atoms: C_8  and  C_9
REMARK    5  A    between atoms: C_9  and  N_10
REMARK    6  A    between atoms: N_10  and  C_11
REMARK    7  A    between atoms: C_11  and  C_12
REMARK                            x       y       z     vdW  Elec       q    Type
REMARK                         _______ _______ _______ _____ _____    ______ ____
ROOT
ATOM      1  C   UNL     1      47.503   7.774  12.246  0.00  0.00    +0.000 C 
ENDROOT
BRANCH   1   2
ATOM      2  C   UNL     1      48.040   7.839  13.652  0.00  0.00    +0.000 A 
ATOM      3  C   UNL     1      47.794   8.977  14.432  0.00  0.00    +0.000 A 
ATOM      4  C   UNL     1      48.219   9.042  15.762  0.00  0.00    +0.000 A 
ATOM      5  C   UNL     1      48.906   7.970  16.348  0.00  0.00    +0.000 A 
ATOM      6  C   UNL     1      49.168   6.838  15.561  0.00  0.00    +0.000 A 
ATOM      7  C   UNL     1      48.747   6.774  14.226  0.00  0.00    +0.000 A 
BRANCH   5   8
ATOM      8  C   UNL     1      49.385   8.028  17.784  0.00  0.00    +0.000 C 
BRANCH   8   9
ATOM      9  N   UNL     1      48.433   7.393  18.694  0.00  0.00    +0.000 NA
ATOM     10  H   UNL     1      47.581   7.183  18.178  0.00  0.00    +0.000 HD
BRANCH   9  11
ATOM     11  C   UNL     1      48.954   6.150  19.268  0.00  0.00    +0.000 C 
BRANCH  11  12
ATOM     12  C   UNL     1      48.592   4.944  18.435  0.00  0.00    +0.000 A 
ATOM     13  C   UNL     1      49.528   3.988  18.021  0.00  0.00    +0.000 A 
ATOM     14  C   UNL     1      49.123   2.904  17.247  0.00  0.00    +0.000 A 
ATOM     15  C   UNL     1      47.790   2.817  16.886  0.00  0.00    +0.000 A 
ATOM     16  N   UNL     1      46.858   3.729  17.237  0.00  0.00    +0.000 NA
ATOM     17  C   UNL     1      47.282   4.769  17.994  0.00  0.00    +0.000 A 
ENDBRANCH  11  12
ENDBRANCH   9  11
ENDBRANCH   8   9
ENDBRANCH   5   8
ENDBRANCH   1   2
BRANCH   1  20
ATOM     18  O   UNL     1      44.737   7.373  12.396  0.00  0.00    +0.000 OA
ATOM     19  C   UNL     1      45.461   6.442  12.033  0.00  0.00    +0.000 C 
ATOM     20  N   UNL     1      46.822   6.545  11.947  0.00  0.00    +0.000 N 
ATOM     21  H   UNL     1      47.346   5.847  11.433  0.00  0.00    +0.000 HD
BRANCH  19  22
ATOM     22  C   UNL     1      44.895   5.136  11.711  0.00  0.00    +0.000 A 
ATOM     23  C   UNL     1      44.192   4.398  12.653  0.00  0.00    +0.000 A 
ATOM     24  S   UNL     1      43.591   2.924  12.029  0.00  0.00    +0.000 S 
ATOM     25  C   UNL     1      44.239   3.247  10.489  0.00  0.00    +0.000 A 
ATOM     26  N   UNL     1      44.068   2.388   9.450  0.00  0.00    +0.000 NA
ATOM     27  C   UNL     1      44.598   2.779   8.340  0.00  0.00    +0.000 A 
ATOM     28  N   UNL     1      45.293   3.948   8.171  0.00  0.00    +0.000 N 
ATOM     29  C   UNL     1      45.550   4.808   9.195  0.00  0.00    +0.000 A 
ATOM     30  O   UNL     1      46.302   5.771   9.040  0.00  0.00    +0.000 OA
ATOM     31  C   UNL     1      44.934   4.441  10.454  0.00  0.00    +0.000 A 
ATOM     32  H   UNL     1      45.727   4.177   7.288  0.00  0.00    +0.000 HD
ENDBRANCH  19  22
ENDBRANCH   1  20
TORSDOF 7
ENDMDL
