MODEL 1
REMARK VINA RESULT:    -7.271      0.000      0.000
REMARK INTER + INTRA:         -10.104
REMARK INTER:                  -9.396
REMARK INTRA:                  -0.708
REMARK UNBOUND:                -0.708
REMARK  Name = 
REMARK  5 active torsions:
REMARK  status: ('A' for Active; 'I' for Inactive)
REMARK    1  A    between atoms: C_2  and  C_5
REMARK    2  A    between atoms: C_10  and  C_11
REMARK    3  A    between atoms: C_11  and  C_12
REMARK    4  A    between atoms: C_12  and  C_13
REMARK    5  A    between atoms: C_17  and  C_18
REMARK                            x       y       z     vdW  Elec       q    Type
REMARK                         _______ _______ _______ _____ _____    ______ ____
ROOT
ATOM      1  C   UNL     1      46.115   4.843  14.061  0.00  0.00    +0.000 C 
ENDROOT
BRANCH   1   2
ATOM      2  C   UNL     1      45.196   4.748  12.863  0.00  0.00    +0.000 A 
ATOM      3  C   UNL     1      43.950   5.385  12.862  0.00  0.00    +0.000 A 
ATOM      4  C   UNL     1      43.133   5.334  11.736  0.00  0.00    +0.000 A 
ATOM      5  C   UNL     1      43.564   4.671  10.585  0.00  0.00    +0.000 A 
ATOM      6  C   UNL     1      44.827   4.057  10.525  0.00  0.00    +0.000 A 
ATOM      7  C   UNL     1      45.618   4.092  11.693  0.00  0.00    +0.000 A 
BRANCH   6   8
ATOM      8  C   UNL     1      45.337   3.461   9.269  0.00  0.00    +0.000 A 
ATOM      9  C   UNL     1      45.760   4.255   8.193  0.00  0.00    +0.000 A 
ATOM     10  C   UNL     1      46.304   3.675   7.046  0.00  0.00    +0.000 A 
ATOM     11  C   UNL     1      46.414   2.299   6.998  0.00  0.00    +0.000 A 
ATOM     12  N   UNL     1      46.008   1.484   7.992  0.00  0.00    +0.000 NA
ATOM     13  C   UNL     1      45.478   2.084   9.090  0.00  0.00    +0.000 A 
ENDBRANCH   6   8
ENDBRANCH   1   2
BRANCH   1  14
ATOM     14  C   UNL     1      46.919   3.566  14.323  0.00  0.00    +0.000 C 
BRANCH  14  20
ATOM     15  C   UNL     1      47.871   4.542  17.877  0.00  0.00    +0.000 A 
ATOM     16  C   UNL     1      48.903   3.627  18.093  0.00  0.00    +0.000 A 
ATOM     17  C   UNL     1      49.215   2.747  17.074  0.00  0.00    +0.000 A 
ATOM     18 CL   UNL     1      50.470   1.595  17.258  0.00  0.00    +0.000 Cl
ATOM     19  N   UNL     1      48.592   2.716  15.879  0.00  0.00    +0.000 NA
ATOM     20  C   UNL     1      47.600   3.610  15.669  0.00  0.00    +0.000 A 
ATOM     21  C   UNL     1      47.208   4.526  16.641  0.00  0.00    +0.000 A 
BRANCH  15  23
ATOM     22  F   UNL     1      46.136   5.770  18.988  0.00  0.00    +0.000 F 
ATOM     23  C   UNL     1      47.476   5.535  18.936  0.00  0.00    +0.000 C 
ATOM     24  F   UNL     1      48.063   6.749  18.751  0.00  0.00    +0.000 F 
ATOM     25  F   UNL     1      47.834   5.130  20.185  0.00  0.00    +0.000 F 
ENDBRANCH  15  23
ENDBRANCH  14  20
ENDBRANCH   1  14
TORSDOF 5
ENDMDL
MODEL 2
REMARK VINA RESULT:    -7.015      3.133      3.793
REMARK INTER + INTRA:          -9.774
REMARK INTER:                  -8.757
REMARK INTRA:                  -1.017
REMARK UNBOUND:                -0.708
REMARK  Name = 
REMARK  5 active torsions:
REMARK  status: ('A' for Active; 'I' for Inactive)
REMARK    1  A    between atoms: C_2  and  C_5
REMARK    2  A    between atoms: C_10  and  C_11
REMARK    3  A    between atoms: C_11  and  C_12
REMARK    4  A    between atoms: C_12  and  C_13
REMARK    5  A    between atoms: C_17  and  C_18
REMARK                            x       y       z     vdW  Elec       q    Type
REMARK                         _______ _______ _______ _____ _____    ______ ____
ROOT
ATOM      1  C   UNL     1      49.114   7.150  14.102  0.00  0.00    +0.000 C 
ENDROOT
BRANCH   1   2
ATOM      2  C   UNL     1      47.740   7.315  13.489  0.00  0.00    +0.000 A 
ATOM      3  C   UNL     1      47.059   8.534  13.571  0.00  0.00    +0.000 A 
ATOM      4  C   UNL     1      45.818   8.691  12.960  0.00  0.00    +0.000 A 
ATOM      5  C   UNL     1      45.255   7.639  12.235  0.00  0.00    +0.000 A 
ATOM      6  C   UNL     1      45.925   6.411  12.088  0.00  0.00    +0.000 A 
ATOM      7  C   UNL     1      47.163   6.268  12.748  0.00  0.00    +0.000 A 
BRANCH   6   8
ATOM      8  C   UNL     1      45.388   5.340  11.218  0.00  0.00    +0.000 A 
ATOM      9  C   UNL     1      45.556   5.363   9.827  0.00  0.00    +0.000 A 
ATOM     10  C   UNL     1      45.105   4.308   9.033  0.00  0.00    +0.000 A 
ATOM     11  C   UNL     1      44.489   3.239   9.654  0.00  0.00    +0.000 A 
ATOM     12  N   UNL     1      44.283   3.168  10.984  0.00  0.00    +0.000 NA
ATOM     13  C   UNL     1      44.731   4.217  11.724  0.00  0.00    +0.000 A 
ENDBRANCH   6   8
ENDBRANCH   1   2
BRANCH   1  14
ATOM     14  C   UNL     1      49.230   7.722  15.518  0.00  0.00    +0.000 C 
BRANCH  14  20
ATOM     15  C   UNL     1      48.122   4.513  17.239  0.00  0.00    +0.000 A 
ATOM     16  C   UNL     1      47.790   5.033  18.493  0.00  0.00    +0.000 A 
ATOM     17  C   UNL     1      47.958   6.389  18.698  0.00  0.00    +0.000 A 
ATOM     18 CL   UNL     1      47.573   7.105  20.206  0.00  0.00    +0.000 Cl
ATOM     19  N   UNL     1      48.417   7.248  17.767  0.00  0.00    +0.000 NA
ATOM     20  C   UNL     1      48.727   6.744  16.551  0.00  0.00    +0.000 A 
ATOM     21  C   UNL     1      48.602   5.390  16.255  0.00  0.00    +0.000 A 
BRANCH  15  23
ATOM     22  F   UNL     1      46.931   2.464  17.608  0.00  0.00    +0.000 F 
ATOM     23  C   UNL     1      47.962   3.048  16.937  0.00  0.00    +0.000 C 
ATOM     24  F   UNL     1      49.073   2.330  17.257  0.00  0.00    +0.000 F 
ATOM     25  F   UNL     1      47.730   2.814  15.617  0.00  0.00    +0.000 F 
ENDBRANCH  15  23
ENDBRANCH  14  20
ENDBRANCH   1  14
TORSDOF 5
ENDMDL
MODEL 3
REMARK VINA RESULT:    -6.967      5.155      8.461
REMARK INTER + INTRA:          -9.711
REMARK INTER:                  -8.773
REMARK INTRA:                  -0.938
REMARK UNBOUND:                -0.708
REMARK  Name = 
REMARK  5 active torsions:
REMARK  status: ('A' for Active; 'I' for Inactive)
REMARK    1  A    between atoms: C_2  and  C_5
REMARK    2  A    between atoms: C_10  and  C_11
REMARK    3  A    between atoms: C_11  and  C_12
REMARK    4  A    between atoms: C_12  and  C_13
REMARK    5  A    between atoms: C_17  and  C_18
REMARK                            x       y       z     vdW  Elec       q    Type
REMARK                         _______ _______ _______ _____ _____    ______ ____
ROOT
ATOM      1  C   UNL     1      46.696   7.176  11.103  0.00  0.00    +0.000 C 
ENDROOT
BRANCH   1   2
ATOM      2  C   UNL     1      47.591   7.241  12.321  0.00  0.00    +0.000 A 
ATOM      3  C   UNL     1      48.470   8.314  12.510  0.00  0.00    +0.000 A 
ATOM      4  C   UNL     1      49.254   8.389  13.658  0.00  0.00    +0.000 A 
ATOM      5  C   UNL     1      49.147   7.409  14.646  0.00  0.00    +0.000 A 
ATOM      6  C   UNL     1      48.244   6.338  14.520  0.00  0.00    +0.000 A 
ATOM      7  C   UNL     1      47.491   6.267  13.330  0.00  0.00    +0.000 A 
BRANCH   6   8
ATOM      8  C   UNL     1      48.041   5.368  15.619  0.00  0.00    +0.000 A 
ATOM      9  C   UNL     1      48.695   5.499  16.852  0.00  0.00    +0.000 A 
ATOM     10  C   UNL     1      48.434   4.614  17.899  0.00  0.00    +0.000 A 
ATOM     11  C   UNL     1      47.514   3.606  17.690  0.00  0.00    +0.000 A 
ATOM     12  N   UNL     1      46.868   3.418  16.522  0.00  0.00    +0.000 NA
ATOM     13  C   UNL     1      47.152   4.296  15.524  0.00  0.00    +0.000 A 
ENDBRANCH   6   8
ENDBRANCH   1   2
BRANCH   1  14
ATOM     14  C   UNL     1      45.298   6.624  11.395  0.00  0.00    +0.000 C 
BRANCH  14  20
ATOM     15  C   UNL     1      45.460   3.697   8.966  0.00  0.00    +0.000 A 
ATOM     16  C   UNL     1      44.665   2.782   9.662  0.00  0.00    +0.000 A 
ATOM     17  C   UNL     1      44.138   3.174  10.878  0.00  0.00    +0.000 A 
ATOM     18 CL   UNL     1      43.151   2.113  11.792  0.00  0.00    +0.000 Cl
ATOM     19  N   UNL     1      44.334   4.384  11.438  0.00  0.00    +0.000 NA
ATOM     20  C   UNL     1      45.095   5.270  10.757  0.00  0.00    +0.000 A 
ATOM     21  C   UNL     1      45.678   4.962   9.532  0.00  0.00    +0.000 A 
BRANCH  15  23
ATOM     22  F   UNL     1      45.147   3.222   6.636  0.00  0.00    +0.000 F 
ATOM     23  C   UNL     1      46.065   3.346   7.634  0.00  0.00    +0.000 C 
ATOM     24  F   UNL     1      46.744   2.167   7.669  0.00  0.00    +0.000 F 
ATOM     25  F   UNL     1      46.957   4.281   7.209  0.00  0.00    +0.000 F 
ENDBRANCH  15  23
ENDBRANCH  14  20
ENDBRANCH   1  14
TORSDOF 5
ENDMDL
MODEL 4
REMARK VINA RESULT:    -6.592      2.374      3.347
REMARK INTER + INTRA:          -9.227
REMARK INTER:                  -8.351
REMARK INTRA:                  -0.876
REMARK UNBOUND:                -0.708
REMARK  Name = 
REMARK  5 active torsions:
REMARK  status: ('A' for Active; 'I' for Inactive)
REMARK    1  A    between atoms: C_2  and  C_5
REMARK    2  A    between atoms: C_10  and  C_11
REMARK    3  A    between atoms: C_11  and  C_12
REMARK    4  A    between atoms: C_12  and  C_13
REMARK    5  A    between atoms: C_17  and  C_18
REMARK                            x       y       z     vdW  Elec       q    Type
REMARK                         _______ _______ _______ _____ _____    ______ ____
ROOT
ATOM      1  C   UNL     1      49.021   6.910  14.391  0.00  0.00    +0.000 C 
ENDROOT
BRANCH   1   2
ATOM      2  C   UNL     1      47.659   7.142  13.773  0.00  0.00    +0.000 A 
ATOM      3  C   UNL     1      47.201   8.437  13.512  0.00  0.00    +0.000 A 
ATOM      4  C   UNL     1      45.967   8.638  12.898  0.00  0.00    +0.000 A 
ATOM      5  C   UNL     1      45.191   7.545  12.510  0.00  0.00    +0.000 A 
ATOM      6  C   UNL     1      45.632   6.226  12.711  0.00  0.00    +0.000 A 
ATOM      7  C   UNL     1      46.868   6.052  13.369  0.00  0.00    +0.000 A 
BRANCH   6   8
ATOM      8  C   UNL     1      44.868   5.069  12.190  0.00  0.00    +0.000 A 
ATOM      9  C   UNL     1      44.827   4.766  10.822  0.00  0.00    +0.000 A 
ATOM     10  C   UNL     1      44.161   3.631  10.359  0.00  0.00    +0.000 A 
ATOM     11  C   UNL     1      43.544   2.812  11.285  0.00  0.00    +0.000 A 
ATOM     12  N   UNL     1      43.534   3.061  12.610  0.00  0.00    +0.000 NA
ATOM     13  C   UNL     1      44.188   4.178  13.022  0.00  0.00    +0.000 A 
ENDBRANCH   6   8
ENDBRANCH   1   2
BRANCH   1  14
ATOM     14  C   UNL     1      49.121   7.361  15.851  0.00  0.00    +0.000 C 
BRANCH  14  20
ATOM     15  C   UNL     1      48.361   5.367  19.003  0.00  0.00    +0.000 A 
ATOM     16  C   UNL     1      48.372   4.079  18.464  0.00  0.00    +0.000 A 
ATOM     17  C   UNL     1      48.616   3.945  17.110  0.00  0.00    +0.000 A 
ATOM     18 CL   UNL     1      48.649   2.399  16.371  0.00  0.00    +0.000 Cl
ATOM     19  N   UNL     1      48.850   4.975  16.273  0.00  0.00    +0.000 NA
ATOM     20  C   UNL     1      48.848   6.220  16.801  0.00  0.00    +0.000 A 
ATOM     21  C   UNL     1      48.601   6.455  18.150  0.00  0.00    +0.000 A 
BRANCH  15  23
ATOM     22  F   UNL     1      46.829   5.968  20.748  0.00  0.00    +0.000 F 
ATOM     23  C   UNL     1      48.108   5.595  20.469  0.00  0.00    +0.000 C 
ATOM     24  F   UNL     1      48.904   6.571  20.985  0.00  0.00    +0.000 F 
ATOM     25  F   UNL     1      48.345   4.482  21.215  0.00  0.00    +0.000 F 
ENDBRANCH  15  23
ENDBRANCH  14  20
ENDBRANCH   1  14
TORSDOF 5
ENDMDL
MODEL 5
REMARK VINA RESULT:    -6.538      5.484      8.946
REMARK INTER + INTRA:          -9.157
REMARK INTER:                  -8.300
REMARK INTRA:                  -0.857
REMARK UNBOUND:                -0.708
REMARK  Name = 
REMARK  5 active torsions:
REMARK  status: ('A' for Active; 'I' for Inactive)
REMARK    1  A    between atoms: C_2  and  C_5
REMARK    2  A    between atoms: C_10  and  C_11
REMARK    3  A    between atoms: C_11  and  C_12
REMARK    4  A    between atoms: C_12  and  C_13
REMARK    5  A    between atoms: C_17  and  C_18
REMARK                            x       y       z     vdW  Elec       q    Type
REMARK                         _______ _______ _______ _____ _____    ______ ____
ROOT
ATOM      1  C   UNL     1      45.749   7.061  12.602  0.00  0.00    +0.000 C 
ENDROOT
BRANCH   1   2
ATOM      2  C   UNL     1      47.246   7.156  12.799  0.00  0.00    +0.000 A 
ATOM      3  C   UNL     1      48.091   7.489  11.734  0.00  0.00    +0.000 A 
ATOM      4  C   UNL     1      49.462   7.624  11.937  0.00  0.00    +0.000 A 
ATOM      5  C   UNL     1      50.002   7.456  13.214  0.00  0.00    +0.000 A 
ATOM      6  C   UNL     1      49.185   7.167  14.321  0.00  0.00    +0.000 A 
ATOM      7  C   UNL     1      47.806   6.999  14.080  0.00  0.00    +0.000 A 
BRANCH   6   8
ATOM      8  C   UNL     1      49.738   7.111  15.693  0.00  0.00    +0.000 A 
ATOM      9  C   UNL     1      50.649   8.068  16.163  0.00  0.00    +0.000 A 
ATOM     10  C   UNL     1      51.103   8.039  17.482  0.00  0.00    +0.000 A 
ATOM     11  C   UNL     1      50.631   7.043  18.314  0.00  0.00    +0.000 A 
ATOM     12  N   UNL     1      49.770   6.085  17.915  0.00  0.00    +0.000 NA
ATOM     13  C   UNL     1      49.354   6.143  16.623  0.00  0.00    +0.000 A 
ENDBRANCH   6   8
ENDBRANCH   1   2
BRANCH   1  14
ATOM     14  C   UNL     1      45.320   7.061  11.132  0.00  0.00    +0.000 C 
BRANCH  14  20
ATOM     15  C   UNL     1      45.577   3.949   8.955  0.00  0.00    +0.000 A 
ATOM     16  C   UNL     1      44.788   3.079   9.711  0.00  0.00    +0.000 A 
ATOM     17  C   UNL     1      44.234   3.559  10.883  0.00  0.00    +0.000 A 
ATOM     18 CL   UNL     1      43.252   2.556  11.867  0.00  0.00    +0.000 Cl
ATOM     19  N   UNL     1      44.398   4.814  11.344  0.00  0.00    +0.000 NA
ATOM     20  C   UNL     1      45.154   5.657  10.605  0.00  0.00    +0.000 A 
ATOM     21  C   UNL     1      45.762   5.261   9.418  0.00  0.00    +0.000 A 
BRANCH  15  23
ATOM     22  F   UNL     1      46.836   2.297   7.756  0.00  0.00    +0.000 F 
ATOM     23  C   UNL     1      46.211   3.503   7.665  0.00  0.00    +0.000 C 
ATOM     24  F   UNL     1      47.151   4.381   7.221  0.00  0.00    +0.000 F 
ATOM     25  F   UNL     1      45.305   3.381   6.658  0.00  0.00    +0.000 F 
ENDBRANCH  15  23
ENDBRANCH  14  20
ENDBRANCH   1  14
TORSDOF 5
ENDMDL
MODEL 6
REMARK VINA RESULT:    -6.472      4.695      9.318
REMARK INTER + INTRA:          -9.071
REMARK INTER:                  -8.350
REMARK INTRA:                  -0.721
REMARK UNBOUND:                -0.708
REMARK  Name = 
REMARK  5 active torsions:
REMARK  status: ('A' for Active; 'I' for Inactive)
REMARK    1  A    between atoms: C_2  and  C_5
REMARK    2  A    between atoms: C_10  and  C_11
REMARK    3  A    between atoms: C_11  and  C_12
REMARK    4  A    between atoms: C_12  and  C_13
REMARK    5  A    between atoms: C_17  and  C_18
REMARK                            x       y       z     vdW  Elec       q    Type
REMARK                         _______ _______ _______ _____ _____    ______ ____
ROOT
ATOM      1  C   UNL     1      46.943   4.030  15.001  0.00  0.00    +0.000 C 
ENDROOT
BRANCH   1   2
ATOM      2  C   UNL     1      47.548   3.952  16.386  0.00  0.00    +0.000 A 
ATOM      3  C   UNL     1      48.412   2.908  16.734  0.00  0.00    +0.000 A 
ATOM      4  C   UNL     1      49.003   2.873  17.994  0.00  0.00    +0.000 A 
ATOM      5  C   UNL     1      48.759   3.896  18.912  0.00  0.00    +0.000 A 
ATOM      6  C   UNL     1      47.935   4.988  18.589  0.00  0.00    +0.000 A 
ATOM      7  C   UNL     1      47.320   4.979  17.319  0.00  0.00    +0.000 A 
BRANCH   6   8
ATOM      8  C   UNL     1      47.775   6.134  19.513  0.00  0.00    +0.000 A 
ATOM      9  C   UNL     1      47.716   7.455  19.049  0.00  0.00    +0.000 A 
ATOM     10  C   UNL     1      47.493   8.515  19.929  0.00  0.00    +0.000 A 
ATOM     11  C   UNL     1      47.330   8.227  21.270  0.00  0.00    +0.000 A 
ATOM     12  N   UNL     1      47.395   6.980  21.778  0.00  0.00    +0.000 NA
ATOM     13  C   UNL     1      47.619   5.975  20.891  0.00  0.00    +0.000 A 
ENDBRANCH   6   8
ENDBRANCH   1   2
BRANCH   1  14
ATOM     14  C   UNL     1      47.301   5.312  14.244  0.00  0.00    +0.000 C 
BRANCH  14  20
ATOM     15  C   UNL     1      44.802   4.870  11.406  0.00  0.00    +0.000 A 
ATOM     16  C   UNL     1      44.514   6.212  11.148  0.00  0.00    +0.000 A 
ATOM     17  C   UNL     1      45.144   7.171  11.919  0.00  0.00    +0.000 A 
ATOM     18 CL   UNL     1      44.847   8.839  11.664  0.00  0.00    +0.000 Cl
ATOM     19  N   UNL     1      46.023   6.898  12.903  0.00  0.00    +0.000 NA
ATOM     20  C   UNL     1      46.307   5.599  13.144  0.00  0.00    +0.000 A 
ATOM     21  C   UNL     1      45.714   4.564  12.428  0.00  0.00    +0.000 A 
BRANCH  15  23
ATOM     22  F   UNL     1      44.975   2.695  10.410  0.00  0.00    +0.000 F 
ATOM     23  C   UNL     1      44.161   3.768  10.606  0.00  0.00    +0.000 C 
ATOM     24  F   UNL     1      43.782   4.183   9.367  0.00  0.00    +0.000 F 
ATOM     25  F   UNL     1      43.038   3.283  11.201  0.00  0.00    +0.000 F 
ENDBRANCH  15  23
ENDBRANCH  14  20
ENDBRANCH   1  14
TORSDOF 5
ENDMDL
MODEL 7
REMARK VINA RESULT:    -6.450      3.527      4.791
REMARK INTER + INTRA:          -9.043
REMARK INTER:                  -7.930
REMARK INTRA:                  -1.113
REMARK UNBOUND:                -0.708
REMARK  Name = 
REMARK  5 active torsions:
REMARK  status: ('A' for Active; 'I' for Inactive)
REMARK    1  A    between atoms: C_2  and  C_5
REMARK    2  A    between atoms: C_10  and  C_11
REMARK    3  A    between atoms: C_11  and  C_12
REMARK    4  A    between atoms: C_12  and  C_13
REMARK    5  A    between atoms: C_17  and  C_18
REMARK                            x       y       z     vdW  Elec       q    Type
REMARK                         _______ _______ _______ _____ _____    ______ ____
ROOT
ATOM      1  C   UNL     1      50.117   7.745  15.430  0.00  0.00    +0.000 C 
ENDROOT
BRANCH   1   2
ATOM      2  C   UNL     1      49.530   7.686  14.036  0.00  0.00    +0.000 A 
ATOM      3  C   UNL     1      50.220   8.222  12.944  0.00  0.00    +0.000 A 
ATOM      4  C   UNL     1      49.694   8.118  11.658  0.00  0.00    +0.000 A 
ATOM      5  C   UNL     1      48.487   7.450  11.446  0.00  0.00    +0.000 A 
ATOM      6  C   UNL     1      47.783   6.856  12.508  0.00  0.00    +0.000 A 
ATOM      7  C   UNL     1      48.319   7.009  13.803  0.00  0.00    +0.000 A 
BRANCH   6   8
ATOM      8  C   UNL     1      46.569   6.042  12.269  0.00  0.00    +0.000 A 
ATOM      9  C   UNL     1      45.982   5.275  13.284  0.00  0.00    +0.000 A 
ATOM     10  C   UNL     1      44.798   4.573  13.058  0.00  0.00    +0.000 A 
ATOM     11  C   UNL     1      44.219   4.654  11.806  0.00  0.00    +0.000 A 
ATOM     12  N   UNL     1      44.746   5.359  10.786  0.00  0.00    +0.000 NA
ATOM     13  C   UNL     1      45.902   6.025  11.043  0.00  0.00    +0.000 A 
ENDBRANCH   6   8
ENDBRANCH   1   2
BRANCH   1  14
ATOM     14  C   UNL     1      49.064   7.807  16.540  0.00  0.00    +0.000 C 
BRANCH  14  20
ATOM     15  C   UNL     1      48.507   4.166  17.504  0.00  0.00    +0.000 A 
ATOM     16  C   UNL     1      48.943   4.215  18.830  0.00  0.00    +0.000 A 
ATOM     17  C   UNL     1      49.398   5.425  19.319  0.00  0.00    +0.000 A 
ATOM     18 CL   UNL     1      49.948   5.569  20.936  0.00  0.00    +0.000 Cl
ATOM     19  N   UNL     1      49.445   6.566  18.604  0.00  0.00    +0.000 NA
ATOM     20  C   UNL     1      49.013   6.518  17.324  0.00  0.00    +0.000 A 
ATOM     21  C   UNL     1      48.549   5.343  16.740  0.00  0.00    +0.000 A 
BRANCH  15  23
ATOM     22  F   UNL     1      47.456   3.051  15.659  0.00  0.00    +0.000 F 
ATOM     23  C   UNL     1      47.994   2.888  16.899  0.00  0.00    +0.000 C 
ATOM     24  F   UNL     1      47.021   2.312  17.657  0.00  0.00    +0.000 F 
ATOM     25  F   UNL     1      48.970   1.949  16.765  0.00  0.00    +0.000 F 
ENDBRANCH  15  23
ENDBRANCH  14  20
ENDBRANCH   1  14
TORSDOF 5
ENDMDL
MODEL 8
REMARK VINA RESULT:    -6.356      3.204      4.149
REMARK INTER + INTRA:          -8.921
REMARK INTER:                  -8.079
REMARK INTRA:                  -0.842
REMARK UNBOUND:                -0.708
REMARK  Name = 
REMARK  5 active torsions:
REMARK  status: ('A' for Active; 'I' for Inactive)
REMARK    1  A    between atoms: C_2  and  C_5
REMARK    2  A    between atoms: C_10  and  C_11
REMARK    3  A    between atoms: C_11  and  C_12
REMARK    4  A    between atoms: C_12  and  C_13
REMARK    5  A    between atoms: C_17  and  C_18
REMARK                            x       y       z     vdW  Elec       q    Type
REMARK                         _______ _______ _______ _____ _____    ______ ____
ROOT
ATOM      1  C   UNL     1      49.327   7.221  14.737  0.00  0.00    +0.000 C 
ENDROOT
BRANCH   1   2
ATOM      2  C   UNL     1      48.010   7.432  14.022  0.00  0.00    +0.000 A 
ATOM      3  C   UNL     1      47.494   8.718  13.833  0.00  0.00    +0.000 A 
ATOM      4  C   UNL     1      46.307   8.905  13.130  0.00  0.00    +0.000 A 
ATOM      5  C   UNL     1      45.636   7.810  12.582  0.00  0.00    +0.000 A 
ATOM      6  C   UNL     1      46.142   6.505  12.708  0.00  0.00    +0.000 A 
ATOM      7  C   UNL     1      47.326   6.341  13.457  0.00  0.00    +0.000 A 
BRANCH   6   8
ATOM      8  C   UNL     1      45.500   5.359  12.024  0.00  0.00    +0.000 A 
ATOM      9  C   UNL     1      45.115   5.423  10.678  0.00  0.00    +0.000 A 
ATOM     10  C   UNL     1      44.577   4.309  10.032  0.00  0.00    +0.000 A 
ATOM     11  C   UNL     1      44.434   3.141  10.755  0.00  0.00    +0.000 A 
ATOM     12  N   UNL     1      44.769   3.023  12.055  0.00  0.00    +0.000 NA
ATOM     13  C   UNL     1      45.284   4.131  12.651  0.00  0.00    +0.000 A 
ENDBRANCH   6   8
ENDBRANCH   1   2
BRANCH   1  14
ATOM     14  C   UNL     1      49.200   7.175  16.262  0.00  0.00    +0.000 C 
BRANCH  14  20
ATOM     15  C   UNL     1      50.846   4.022  17.619  0.00  0.00    +0.000 A 
ATOM     16  C   UNL     1      49.715   3.210  17.738  0.00  0.00    +0.000 A 
ATOM     17  C   UNL     1      48.493   3.745  17.379  0.00  0.00    +0.000 A 
ATOM     18 CL   UNL     1      47.058   2.815  17.493  0.00  0.00    +0.000 Cl
ATOM     19  N   UNL     1      48.317   4.998  16.915  0.00  0.00    +0.000 NA
ATOM     20  C   UNL     1      49.414   5.777  16.792  0.00  0.00    +0.000 A 
ATOM     21  C   UNL     1      50.686   5.331  17.139  0.00  0.00    +0.000 A 
BRANCH  15  23
ATOM     22  F   UNL     1      52.482   3.585  19.318  0.00  0.00    +0.000 F 
ATOM     23  C   UNL     1      52.213   3.511  17.985  0.00  0.00    +0.000 C 
ATOM     24  F   UNL     1      53.207   4.202  17.363  0.00  0.00    +0.000 F 
ATOM     25  F   UNL     1      52.388   2.207  17.640  0.00  0.00    +0.000 F 
ENDBRANCH  15  23
ENDBRANCH  14  20
ENDBRANCH   1  14
TORSDOF 5
ENDMDL
MODEL 9
REMARK VINA RESULT:    -6.290      2.909      4.021
REMARK INTER + INTRA:          -8.836
REMARK INTER:                  -7.677
REMARK INTRA:                  -1.159
REMARK UNBOUND:                -0.708
REMARK  Name = 
REMARK  5 active torsions:
REMARK  status: ('A' for Active; 'I' for Inactive)
REMARK    1  A    between atoms: C_2  and  C_5
REMARK    2  A    between atoms: C_10  and  C_11
REMARK    3  A    between atoms: C_11  and  C_12
REMARK    4  A    between atoms: C_12  and  C_13
REMARK    5  A    between atoms: C_17  and  C_18
REMARK                            x       y       z     vdW  Elec       q    Type
REMARK                         _______ _______ _______ _____ _____    ______ ____
ROOT
ATOM      1  C   UNL     1      50.017   7.397  14.210  0.00  0.00    +0.000 C 
ENDROOT
BRANCH   1   2
ATOM      2  C   UNL     1      48.588   7.621  13.767  0.00  0.00    +0.000 A 
ATOM      3  C   UNL     1      48.157   8.884  13.345  0.00  0.00    +0.000 A 
ATOM      4  C   UNL     1      46.853   9.068  12.891  0.00  0.00    +0.000 A 
ATOM      5  C   UNL     1      45.974   7.986  12.825  0.00  0.00    +0.000 A 
ATOM      6  C   UNL     1      46.378   6.692  13.195  0.00  0.00    +0.000 A 
ATOM      7  C   UNL     1      47.691   6.541  13.686  0.00  0.00    +0.000 A 
BRANCH   6   8
ATOM      8  C   UNL     1      45.487   5.523  13.009  0.00  0.00    +0.000 A 
ATOM      9  C   UNL     1      44.109   5.671  12.796  0.00  0.00    +0.000 A 
ATOM     10  C   UNL     1      43.299   4.561  12.552  0.00  0.00    +0.000 A 
ATOM     11  C   UNL     1      43.891   3.313  12.525  0.00  0.00    +0.000 A 
ATOM     12  N   UNL     1      45.205   3.107  12.741  0.00  0.00    +0.000 NA
ATOM     13  C   UNL     1      45.961   4.211  12.981  0.00  0.00    +0.000 A 
ENDBRANCH   6   8
ENDBRANCH   1   2
BRANCH   1  14
ATOM     14  C   UNL     1      50.281   7.800  15.664  0.00  0.00    +0.000 C 
BRANCH  14  20
ATOM     15  C   UNL     1      48.398   5.894  18.367  0.00  0.00    +0.000 A 
ATOM     16  C   UNL     1      49.126   4.702  18.351  0.00  0.00    +0.000 A 
ATOM     17  C   UNL     1      50.174   4.593  17.457  0.00  0.00    +0.000 A 
ATOM     18 CL   UNL     1      51.118   3.166  17.375  0.00  0.00    +0.000 Cl
ATOM     19  N   UNL     1      50.546   5.565  16.599  0.00  0.00    +0.000 NA
ATOM     20  C   UNL     1      49.846   6.721  16.624  0.00  0.00    +0.000 A 
ATOM     21  C   UNL     1      48.768   6.918  17.482  0.00  0.00    +0.000 A 
BRANCH  15  23
ATOM     22  F   UNL     1      46.053   5.665  18.817  0.00  0.00    +0.000 F 
ATOM     23  C   UNL     1      47.247   6.090  19.316  0.00  0.00    +0.000 C 
ATOM     24  F   UNL     1      47.070   7.397  19.650  0.00  0.00    +0.000 F 
ATOM     25  F   UNL     1      47.422   5.422  20.488  0.00  0.00    +0.000 F 
ENDBRANCH  15  23
ENDBRANCH  14  20
ENDBRANCH   1  14
TORSDOF 5
ENDMDL
