MODEL 1
REMARK VINA RESULT:    -7.732      0.000      0.000
REMARK INTER + INTRA:          -9.920
REMARK INTER:                  -9.088
REMARK INTRA:                  -0.833
REMARK UNBOUND:                -0.833
REMARK  Name = 
REMARK  3 active torsions:
REMARK  status: ('A' for Active; 'I' for Inactive)
REMARK    1  A    between atoms: N_6  and  C_7
REMARK    2  A    between atoms: C_7  and  C_8
REMARK    3  A    between atoms: C_12  and  C_13
REMARK                            x       y       z     vdW  Elec       q    Type
REMARK                         _______ _______ _______ _____ _____    ______ ____
ROOT
ATOM      1  C   UNL     1      45.096   5.342  12.228  0.00  0.00    +0.000 A 
ATOM      2  C   UNL     1      45.543   4.502  13.254  0.00  0.00    +0.000 A 
ATOM      3  C   UNL     1      46.801   4.683  13.827  0.00  0.00    +0.000 A 
ATOM      4  C   UNL     1      47.640   5.701  13.373  0.00  0.00    +0.000 A 
ATOM      5  C   UNL     1      47.214   6.614  12.400  0.00  0.00    +0.000 A 
ATOM      6  C   UNL     1      45.918   6.438  11.882  0.00  0.00    +0.000 A 
ENDROOT
BRANCH   5   7
ATOM      7  C   UNL     1      48.111   7.674  11.765  0.00  0.00    +0.000 C 
ATOM      8  C   UNL     1      49.625   7.504  11.986  0.00  0.00    +0.000 C 
ATOM      9  C   UNL     1      50.068   7.974  13.373  0.00  0.00    +0.000 C 
ATOM     10  N   UNL     1      49.668   9.352  13.642  0.00  0.00    +0.000 NA
ATOM     11  C   UNL     1      48.217   9.517  13.515  0.00  0.00    +0.000 C 
ATOM     12  C   UNL     1      47.722   9.121  12.127  0.00  0.00    +0.000 C 
ATOM     13  H   UNL     1      50.134   9.973  12.984  0.00  0.00    +0.000 HD
ENDBRANCH   5   7
BRANCH   1  14
ATOM     14  C   UNL     1      43.840   5.002  11.414  0.00  0.00    +0.000 C 
ATOM     15  C   UNL     1      42.501   5.226  12.128  0.00  0.00    +0.000 C 
ATOM     16  C   UNL     1      42.941   6.185  11.081  0.00  0.00    +0.000 C 
BRANCH  14  22
ATOM     17 CL   UNL     1      47.276   1.965   6.144  0.00  0.00    +0.000 Cl
ATOM     18  C   UNL     1      46.382   2.556   7.483  0.00  0.00    +0.000 A 
ATOM     19  C   UNL     1      46.205   3.911   7.670  0.00  0.00    +0.000 A 
ATOM     20  C   UNL     1      45.439   4.354   8.755  0.00  0.00    +0.000 A 
ATOM     21  C   UNL     1      44.849   3.439   9.617  0.00  0.00    +0.000 A 
ATOM     22  N   UNL     1      43.956   3.764  10.636  0.00  0.00    +0.000 N 
ATOM     23  N   UNL     1      45.041   2.111   9.445  0.00  0.00    +0.000 NA
ATOM     24  C   UNL     1      45.799   1.699   8.396  0.00  0.00    +0.000 A 
ATOM     25  H   UNL     1      43.736   2.896  11.122  0.00  0.00    +0.000 HD
ENDBRANCH  14  22
ENDBRANCH   1  14
TORSDOF 3
ENDMDL
MODEL 2
REMARK VINA RESULT:    -6.743      2.292      3.484
REMARK INTER + INTRA:          -8.758
REMARK INTER:                  -8.146
REMARK INTRA:                  -0.612
REMARK UNBOUND:                -0.833
REMARK  Name = 
REMARK  3 active torsions:
REMARK  status: ('A' for Active; 'I' for Inactive)
REMARK    1  A    between atoms: N_6  and  C_7
REMARK    2  A    between atoms: C_7  and  C_8
REMARK    3  A    between atoms: C_12  and  C_13
REMARK                            x       y       z     vdW  Elec       q    Type
REMARK                         _______ _______ _______ _____ _____    ______ ____
ROOT
ATOM      1  C   UNL     1      45.844   5.164  12.752  0.00  0.00    +0.000 A 
ATOM      2  C   UNL     1      46.801   6.022  12.198  0.00  0.00    +0.000 A 
ATOM      3  C   UNL     1      47.912   6.422  12.938  0.00  0.00    +0.000 A 
ATOM      4  C   UNL     1      48.079   5.982  14.251  0.00  0.00    +0.000 A 
ATOM      5  C   UNL     1      47.189   5.066  14.828  0.00  0.00    +0.000 A 
ATOM      6  C   UNL     1      46.109   4.638  14.036  0.00  0.00    +0.000 A 
ENDROOT
BRANCH   5   7
ATOM      7  C   UNL     1      47.232   4.632  16.292  0.00  0.00    +0.000 C 
ATOM      8  C   UNL     1      48.248   5.364  17.188  0.00  0.00    +0.000 C 
ATOM      9  C   UNL     1      49.674   4.840  17.002  0.00  0.00    +0.000 C 
ATOM     10  N   UNL     1      49.762   3.398  17.208  0.00  0.00    +0.000 NA
ATOM     11  C   UNL     1      48.859   2.677  16.307  0.00  0.00    +0.000 C 
ATOM     12  C   UNL     1      47.408   3.114  16.490  0.00  0.00    +0.000 C 
ATOM     13  H   UNL     1      49.517   3.180  18.172  0.00  0.00    +0.000 HD
ENDBRANCH   5   7
BRANCH   1  14
ATOM     14  C   UNL     1      44.496   4.925  12.057  0.00  0.00    +0.000 C 
ATOM     15  C   UNL     1      43.251   5.113  12.934  0.00  0.00    +0.000 C 
ATOM     16  C   UNL     1      43.603   6.152  11.930  0.00  0.00    +0.000 C 
BRANCH  14  22
ATOM     17 CL   UNL     1      46.758   2.523   5.900  0.00  0.00    +0.000 Cl
ATOM     18  C   UNL     1      46.172   2.952   7.453  0.00  0.00    +0.000 A 
ATOM     19  C   UNL     1      45.979   4.275   7.794  0.00  0.00    +0.000 A 
ATOM     20  C   UNL     1      45.464   4.584   9.058  0.00  0.00    +0.000 A 
ATOM     21  C   UNL     1      45.135   3.570   9.949  0.00  0.00    +0.000 A 
ATOM     22  N   UNL     1      44.488   3.758  11.168  0.00  0.00    +0.000 N 
ATOM     23  N   UNL     1      45.344   2.274   9.622  0.00  0.00    +0.000 NA
ATOM     24  C   UNL     1      45.857   1.992   8.396  0.00  0.00    +0.000 A 
ATOM     25  H   UNL     1      44.428   2.844  11.614  0.00  0.00    +0.000 HD
ENDBRANCH  14  22
ENDBRANCH   1  14
TORSDOF 3
ENDMDL
MODEL 3
REMARK VINA RESULT:    -6.459      3.748      7.496
REMARK INTER + INTRA:          -8.424
REMARK INTER:                  -7.563
REMARK INTRA:                  -0.861
REMARK UNBOUND:                -0.833
REMARK  Name = 
REMARK  3 active torsions:
REMARK  status: ('A' for Active; 'I' for Inactive)
REMARK    1  A    between atoms: N_6  and  C_7
REMARK    2  A    between atoms: C_7  and  C_8
REMARK    3  A    between atoms: C_12  and  C_13
REMARK                            x       y       z     vdW  Elec       q    Type
REMARK                         _______ _______ _______ _____ _____    ______ ____
ROOT
ATOM      1  C   UNL     1      47.255   8.017  12.390  0.00  0.00    +0.000 A 
ATOM      2  C   UNL     1      46.658   9.279  12.293  0.00  0.00    +0.000 A 
ATOM      3  C   UNL     1      45.350   9.415  11.834  0.00  0.00    +0.000 A 
ATOM      4  C   UNL     1      44.619   8.290  11.450  0.00  0.00    +0.000 A 
ATOM      5  C   UNL     1      45.143   6.999  11.594  0.00  0.00    +0.000 A 
ATOM      6  C   UNL     1      46.445   6.892  12.114  0.00  0.00    +0.000 A 
ENDROOT
BRANCH   5   7
ATOM      7  C   UNL     1      44.458   5.732  11.086  0.00  0.00    +0.000 C 
ATOM      8  C   UNL     1      42.989   5.539  11.504  0.00  0.00    +0.000 C 
ATOM      9  C   UNL     1      42.855   5.022  12.939  0.00  0.00    +0.000 C 
ATOM     10  N   UNL     1      43.611   3.792  13.155  0.00  0.00    +0.000 NA
ATOM     11  C   UNL     1      45.030   3.978  12.837  0.00  0.00    +0.000 C 
ATOM     12  C   UNL     1      45.232   4.436  11.394  0.00  0.00    +0.000 C 
ATOM     13  H   UNL     1      43.230   3.055  12.564  0.00  0.00    +0.000 HD
ENDBRANCH   5   7
BRANCH   1  14
ATOM     14  C   UNL     1      48.763   7.868  12.639  0.00  0.00    +0.000 C 
ATOM     15  C   UNL     1      49.647   7.846  11.385  0.00  0.00    +0.000 C 
ATOM     16  C   UNL     1      49.610   9.067  12.233  0.00  0.00    +0.000 C 
BRANCH  14  22
ATOM     17 CL   UNL     1      48.606   6.704  19.525  0.00  0.00    +0.000 Cl
ATOM     18  C   UNL     1      48.668   6.824  17.816  0.00  0.00    +0.000 A 
ATOM     19  C   UNL     1      48.686   8.056  17.195  0.00  0.00    +0.000 A 
ATOM     20  C   UNL     1      48.774   8.114  15.799  0.00  0.00    +0.000 A 
ATOM     21  C   UNL     1      48.863   6.945  15.053  0.00  0.00    +0.000 A 
ATOM     22  N   UNL     1      49.097   6.891  13.680  0.00  0.00    +0.000 N 
ATOM     23  N   UNL     1      48.825   5.737  15.661  0.00  0.00    +0.000 NA
ATOM     24  C   UNL     1      48.725   5.699  17.015  0.00  0.00    +0.000 A 
ATOM     25  H   UNL     1      49.061   5.908  13.414  0.00  0.00    +0.000 HD
ENDBRANCH  14  22
ENDBRANCH   1  14
TORSDOF 3
ENDMDL
MODEL 4
REMARK VINA RESULT:    -6.214      1.371      2.227
REMARK INTER + INTRA:          -8.136
REMARK INTER:                  -7.653
REMARK INTRA:                  -0.484
REMARK UNBOUND:                -0.833
REMARK  Name = 
REMARK  3 active torsions:
REMARK  status: ('A' for Active; 'I' for Inactive)
REMARK    1  A    between atoms: N_6  and  C_7
REMARK    2  A    between atoms: C_7  and  C_8
REMARK    3  A    between atoms: C_12  and  C_13
REMARK                            x       y       z     vdW  Elec       q    Type
REMARK                         _______ _______ _______ _____ _____    ______ ____
ROOT
ATOM      1  C   UNL     1      44.785   5.947  11.608  0.00  0.00    +0.000 A 
ATOM      2  C   UNL     1      44.610   7.302  11.304  0.00  0.00    +0.000 A 
ATOM      3  C   UNL     1      45.617   8.227  11.571  0.00  0.00    +0.000 A 
ATOM      4  C   UNL     1      46.813   7.815  12.160  0.00  0.00    +0.000 A 
ATOM      5  C   UNL     1      47.067   6.461  12.417  0.00  0.00    +0.000 A 
ATOM      6  C   UNL     1      46.053   5.546  12.084  0.00  0.00    +0.000 A 
ENDROOT
BRANCH   5   7
ATOM      7  C   UNL     1      48.293   5.945  13.167  0.00  0.00    +0.000 C 
ATOM      8  C   UNL     1      48.045   4.808  14.174  0.00  0.00    +0.000 C 
ATOM      9  C   UNL     1      47.464   5.316  15.496  0.00  0.00    +0.000 C 
ATOM     10  N   UNL     1      48.292   6.356  16.098  0.00  0.00    +0.000 NA
ATOM     11  C   UNL     1      48.475   7.485  15.183  0.00  0.00    +0.000 C 
ATOM     12  C   UNL     1      49.111   7.049  13.865  0.00  0.00    +0.000 C 
ATOM     13  H   UNL     1      49.202   5.966  16.335  0.00  0.00    +0.000 HD
ENDBRANCH   5   7
BRANCH   1  14
ATOM     14  C   UNL     1      43.605   4.965  11.566  0.00  0.00    +0.000 C 
ATOM     15  C   UNL     1      42.835   4.791  12.882  0.00  0.00    +0.000 C 
ATOM     16  C   UNL     1      42.232   5.589  11.781  0.00  0.00    +0.000 C 
BRANCH  14  22
ATOM     17 CL   UNL     1      47.160   2.364   6.145  0.00  0.00    +0.000 Cl
ATOM     18  C   UNL     1      46.268   2.843   7.528  0.00  0.00    +0.000 A 
ATOM     19  C   UNL     1      45.870   4.155   7.692  0.00  0.00    +0.000 A 
ATOM     20  C   UNL     1      45.112   4.501   8.817  0.00  0.00    +0.000 A 
ATOM     21  C   UNL     1      44.750   3.531   9.744  0.00  0.00    +0.000 A 
ATOM     22  N   UNL     1      43.883   3.737  10.815  0.00  0.00    +0.000 N 
ATOM     23  N   UNL     1      45.158   2.250   9.593  0.00  0.00    +0.000 NA
ATOM     24  C   UNL     1      45.905   1.934   8.503  0.00  0.00    +0.000 A 
ATOM     25  H   UNL     1      43.850   2.863  11.339  0.00  0.00    +0.000 HD
ENDBRANCH  14  22
ENDBRANCH   1  14
TORSDOF 3
ENDMDL
MODEL 5
REMARK VINA RESULT:    -6.116      3.636      6.117
REMARK INTER + INTRA:          -8.021
REMARK INTER:                  -6.950
REMARK INTRA:                  -1.071
REMARK UNBOUND:                -0.833
REMARK  Name = 
REMARK  3 active torsions:
REMARK  status: ('A' for Active; 'I' for Inactive)
REMARK    1  A    between atoms: N_6  and  C_7
REMARK    2  A    between atoms: C_7  and  C_8
REMARK    3  A    between atoms: C_12  and  C_13
REMARK                            x       y       z     vdW  Elec       q    Type
REMARK                         _______ _______ _______ _____ _____    ______ ____
ROOT
ATOM      1  C   UNL     1      48.750   8.237  14.626  0.00  0.00    +0.000 A 
ATOM      2  C   UNL     1      48.354   9.420  15.261  0.00  0.00    +0.000 A 
ATOM      3  C   UNL     1      48.243   9.481  16.649  0.00  0.00    +0.000 A 
ATOM      4  C   UNL     1      48.516   8.355  17.426  0.00  0.00    +0.000 A 
ATOM      5  C   UNL     1      48.985   7.169  16.847  0.00  0.00    +0.000 A 
ATOM      6  C   UNL     1      49.140   7.157  15.449  0.00  0.00    +0.000 A 
ENDROOT
BRANCH   5   7
ATOM      7  C   UNL     1      49.188   5.862  17.611  0.00  0.00    +0.000 C 
ATOM      8  C   UNL     1      48.821   4.570  16.857  0.00  0.00    +0.000 C 
ATOM      9  C   UNL     1      47.312   4.314  16.839  0.00  0.00    +0.000 C 
ATOM     10  N   UNL     1      46.741   4.298  18.183  0.00  0.00    +0.000 NA
ATOM     11  C   UNL     1      47.011   5.553  18.890  0.00  0.00    +0.000 C 
ATOM     12  C   UNL     1      48.508   5.833  18.993  0.00  0.00    +0.000 C 
ATOM     13  H   UNL     1      47.141   3.524  18.709  0.00  0.00    +0.000 HD
ENDBRANCH   5   7
BRANCH   1  14
ATOM     14  C   UNL     1      48.625   8.072  13.105  0.00  0.00    +0.000 C 
ATOM     15  C   UNL     1      49.461   9.041  12.258  0.00  0.00    +0.000 C 
ATOM     16  C   UNL     1      49.895   7.625  12.393  0.00  0.00    +0.000 C 
BRANCH  14  22
ATOM     17 CL   UNL     1      43.493   3.337  12.910  0.00  0.00    +0.000 Cl
ATOM     18  C   UNL     1      44.636   4.615  12.919  0.00  0.00    +0.000 A 
ATOM     19  C   UNL     1      45.986   4.354  13.036  0.00  0.00    +0.000 A 
ATOM     20  C   UNL     1      46.892   5.421  13.003  0.00  0.00    +0.000 A 
ATOM     21  C   UNL     1      46.436   6.722  12.835  0.00  0.00    +0.000 A 
ATOM     22  N   UNL     1      47.253   7.835  12.646  0.00  0.00    +0.000 N 
ATOM     23  N   UNL     1      45.111   6.979  12.742  0.00  0.00    +0.000 NA
ATOM     24  C   UNL     1      44.245   5.934  12.790  0.00  0.00    +0.000 A 
ATOM     25  H   UNL     1      46.638   8.647  12.602  0.00  0.00    +0.000 HD
ENDBRANCH  14  22
ENDBRANCH   1  14
TORSDOF 3
ENDMDL
MODEL 6
REMARK VINA RESULT:    -6.050      3.342      4.998
REMARK INTER + INTRA:          -7.943
REMARK INTER:                  -7.332
REMARK INTRA:                  -0.611
REMARK UNBOUND:                -0.833
REMARK  Name = 
REMARK  3 active torsions:
REMARK  status: ('A' for Active; 'I' for Inactive)
REMARK    1  A    between atoms: N_6  and  C_7
REMARK    2  A    between atoms: C_7  and  C_8
REMARK    3  A    between atoms: C_12  and  C_13
REMARK                            x       y       z     vdW  Elec       q    Type
REMARK                         _______ _______ _______ _____ _____    ______ ____
ROOT
ATOM      1  C   UNL     1      48.201   7.020  14.130  0.00  0.00    +0.000 A 
ATOM      2  C   UNL     1      49.436   7.638  13.903  0.00  0.00    +0.000 A 
ATOM      3  C   UNL     1      50.457   7.559  14.848  0.00  0.00    +0.000 A 
ATOM      4  C   UNL     1      50.257   6.870  16.044  0.00  0.00    +0.000 A 
ATOM      5  C   UNL     1      49.066   6.174  16.290  0.00  0.00    +0.000 A 
ATOM      6  C   UNL     1      48.077   6.227  15.293  0.00  0.00    +0.000 A 
ENDROOT
BRANCH   5   7
ATOM      7  C   UNL     1      48.723   5.502  17.618  0.00  0.00    +0.000 C 
ATOM      8  C   UNL     1      49.915   5.098  18.504  0.00  0.00    +0.000 C 
ATOM      9  C   UNL     1      50.579   3.802  18.033  0.00  0.00    +0.000 C 
ATOM     10  N   UNL     1      49.626   2.701  17.931  0.00  0.00    +0.000 NA
ATOM     11  C   UNL     1      48.522   3.036  17.027  0.00  0.00    +0.000 C 
ATOM     12  C   UNL     1      47.780   4.291  17.482  0.00  0.00    +0.000 C 
ATOM     13  H   UNL     1      49.252   2.493  18.854  0.00  0.00    +0.000 HD
ENDBRANCH   5   7
BRANCH   1  14
ATOM     14  C   UNL     1      46.990   7.313  13.234  0.00  0.00    +0.000 C 
ATOM     15  C   UNL     1      46.384   8.716  13.367  0.00  0.00    +0.000 C 
ATOM     16  C   UNL     1      47.209   8.385  12.175  0.00  0.00    +0.000 C 
BRANCH  14  22
ATOM     17 CL   UNL     1      44.294   2.512   8.934  0.00  0.00    +0.000 Cl
ATOM     18  C   UNL     1      44.893   3.599  10.117  0.00  0.00    +0.000 A 
ATOM     19  C   UNL     1      45.459   4.803   9.748  0.00  0.00    +0.000 A 
ATOM     20  C   UNL     1      45.904   5.680  10.743  0.00  0.00    +0.000 A 
ATOM     21  C   UNL     1      45.759   5.349  12.085  0.00  0.00    +0.000 A 
ATOM     22  N   UNL     1      46.034   6.204  13.151  0.00  0.00    +0.000 N 
ATOM     23  N   UNL     1      45.223   4.161  12.446  0.00  0.00    +0.000 NA
ATOM     24  C   UNL     1      44.809   3.315  11.466  0.00  0.00    +0.000 A 
ATOM     25  H   UNL     1      45.879   5.668  14.004  0.00  0.00    +0.000 HD
ENDBRANCH  14  22
ENDBRANCH   1  14
TORSDOF 3
ENDMDL
MODEL 7
REMARK VINA RESULT:    -5.910      2.989      6.753
REMARK INTER + INTRA:          -7.779
REMARK INTER:                  -7.021
REMARK INTRA:                  -0.758
REMARK UNBOUND:                -0.833
REMARK  Name = 
REMARK  3 active torsions:
REMARK  status: ('A' for Active; 'I' for Inactive)
REMARK    1  A    between atoms: N_6  and  C_7
REMARK    2  A    between atoms: C_7  and  C_8
REMARK    3  A    between atoms: C_12  and  C_13
REMARK                            x       y       z     vdW  Elec       q    Type
REMARK                         _______ _______ _______ _____ _____    ______ ____
ROOT
ATOM      1  C   UNL     1      45.963   6.058  11.951  0.00  0.00    +0.000 A 
ATOM      2  C   UNL     1      46.138   5.267  13.091  0.00  0.00    +0.000 A 
ATOM      3  C   UNL     1      45.797   3.916  13.081  0.00  0.00    +0.000 A 
ATOM      4  C   UNL     1      45.261   3.335  11.931  0.00  0.00    +0.000 A 
ATOM      5  C   UNL     1      45.133   4.063  10.742  0.00  0.00    +0.000 A 
ATOM      6  C   UNL     1      45.539   5.409  10.769  0.00  0.00    +0.000 A 
ENDROOT
BRANCH   5   7
ATOM      7  C   UNL     1      44.446   3.538   9.483  0.00  0.00    +0.000 C 
ATOM      8  C   UNL     1      44.559   2.024   9.228  0.00  0.00    +0.000 C 
ATOM      9  C   UNL     1      45.916   1.633   8.638  0.00  0.00    +0.000 C 
ATOM     10  N   UNL     1      46.223   2.377   7.420  0.00  0.00    +0.000 NA
ATOM     11  C   UNL     1      46.198   3.822   7.661  0.00  0.00    +0.000 C 
ATOM     12  C   UNL     1      44.844   4.284   8.195  0.00  0.00    +0.000 C 
ATOM     13  H   UNL     1      45.539   2.146   6.703  0.00  0.00    +0.000 HD
ENDBRANCH   5   7
BRANCH   1  14
ATOM     14  C   UNL     1      46.083   7.587  12.018  0.00  0.00    +0.000 C 
ATOM     15  C   UNL     1      44.890   8.376  11.463  0.00  0.00    +0.000 C 
ATOM     16  C   UNL     1      45.082   8.278  12.934  0.00  0.00    +0.000 C 
BRANCH  14  22
ATOM     17 CL   UNL     1      52.606   8.441  14.370  0.00  0.00    +0.000 Cl
ATOM     18  C   UNL     1      51.066   8.257  13.638  0.00  0.00    +0.000 A 
ATOM     19  C   UNL     1      49.926   8.152  14.408  0.00  0.00    +0.000 A 
ATOM     20  C   UNL     1      48.684   8.040  13.774  0.00  0.00    +0.000 A 
ATOM     21  C   UNL     1      48.600   8.055  12.387  0.00  0.00    +0.000 A 
ATOM     22  N   UNL     1      47.412   8.093  11.660  0.00  0.00    +0.000 N 
ATOM     23  N   UNL     1      49.720   8.136  11.633  0.00  0.00    +0.000 NA
ATOM     24  C   UNL     1      50.919   8.230  12.264  0.00  0.00    +0.000 A 
ATOM     25  H   UNL     1      47.669   8.047  10.675  0.00  0.00    +0.000 HD
ENDBRANCH  14  22
ENDBRANCH   1  14
TORSDOF 3
ENDMDL
MODEL 8
REMARK VINA RESULT:    -5.522      2.964      6.980
REMARK INTER + INTRA:          -7.324
REMARK INTER:                  -7.301
REMARK INTRA:                  -0.022
REMARK UNBOUND:                -0.833
REMARK  Name = 
REMARK  3 active torsions:
REMARK  status: ('A' for Active; 'I' for Inactive)
REMARK    1  A    between atoms: N_6  and  C_7
REMARK    2  A    between atoms: C_7  and  C_8
REMARK    3  A    between atoms: C_12  and  C_13
REMARK                            x       y       z     vdW  Elec       q    Type
REMARK                         _______ _______ _______ _____ _____    ______ ____
ROOT
ATOM      1  C   UNL     1      47.608   6.806  13.699  0.00  0.00    +0.000 A 
ATOM      2  C   UNL     1      47.678   5.724  14.583  0.00  0.00    +0.000 A 
ATOM      3  C   UNL     1      46.945   4.563  14.347  0.00  0.00    +0.000 A 
ATOM      4  C   UNL     1      46.116   4.469  13.229  0.00  0.00    +0.000 A 
ATOM      5  C   UNL     1      46.064   5.494  12.276  0.00  0.00    +0.000 A 
ATOM      6  C   UNL     1      46.860   6.629  12.514  0.00  0.00    +0.000 A 
ENDROOT
BRANCH   5   7
ATOM      7  C   UNL     1      45.096   5.521  11.095  0.00  0.00    +0.000 C 
ATOM      8  C   UNL     1      43.680   6.048  11.389  0.00  0.00    +0.000 C 
ATOM      9  C   UNL     1      42.799   5.001  12.074  0.00  0.00    +0.000 C 
ATOM     10  N   UNL     1      42.730   3.756  11.313  0.00  0.00    +0.000 NA
ATOM     11  C   UNL     1      44.065   3.196  11.091  0.00  0.00    +0.000 C 
ATOM     12  C   UNL     1      44.975   4.176  10.354  0.00  0.00    +0.000 C 
ATOM     13  H   UNL     1      42.288   3.936  10.414  0.00  0.00    +0.000 HD
ENDBRANCH   5   7
BRANCH   1  14
ATOM     14  C   UNL     1      48.194   8.175  14.072  0.00  0.00    +0.000 C 
ATOM     15  C   UNL     1      48.747   8.298  15.498  0.00  0.00    +0.000 C 
ATOM     16  C   UNL     1      49.691   8.187  14.355  0.00  0.00    +0.000 C 
BRANCH  14  22
ATOM     17 CL   UNL     1      47.671  12.904   8.957  0.00  0.00    +0.000 Cl
ATOM     18  C   UNL     1      47.640  11.782  10.253  0.00  0.00    +0.000 A 
ATOM     19  C   UNL     1      48.789  11.127  10.647  0.00  0.00    +0.000 A 
ATOM     20  C   UNL     1      48.732  10.246  11.733  0.00  0.00    +0.000 A 
ATOM     21  C   UNL     1      47.537  10.049  12.415  0.00  0.00    +0.000 A 
ATOM     22  N   UNL     1      47.401   9.310  13.588  0.00  0.00    +0.000 N 
ATOM     23  N   UNL     1      46.407  10.675  12.014  0.00  0.00    +0.000 NA
ATOM     24  C   UNL     1      46.477  11.516  10.950  0.00  0.00    +0.000 A 
ATOM     25  H   UNL     1      46.409   9.307  13.820  0.00  0.00    +0.000 HD
ENDBRANCH  14  22
ENDBRANCH   1  14
TORSDOF 3
ENDMDL
MODEL 9
REMARK VINA RESULT:    -5.433      4.158      7.854
REMARK INTER + INTRA:          -7.219
REMARK INTER:                  -7.161
REMARK INTRA:                  -0.058
REMARK UNBOUND:                -0.833
REMARK  Name = 
REMARK  3 active torsions:
REMARK  status: ('A' for Active; 'I' for Inactive)
REMARK    1  A    between atoms: N_6  and  C_7
REMARK    2  A    between atoms: C_7  and  C_8
REMARK    3  A    between atoms: C_12  and  C_13
REMARK                            x       y       z     vdW  Elec       q    Type
REMARK                         _______ _______ _______ _____ _____    ______ ____
ROOT
ATOM      1  C   UNL     1      47.638   7.246  13.382  0.00  0.00    +0.000 A 
ATOM      2  C   UNL     1      47.876   7.561  12.040  0.00  0.00    +0.000 A 
ATOM      3  C   UNL     1      47.163   6.928  11.023  0.00  0.00    +0.000 A 
ATOM      4  C   UNL     1      46.209   5.958  11.331  0.00  0.00    +0.000 A 
ATOM      5  C   UNL     1      45.882   5.657  12.660  0.00  0.00    +0.000 A 
ATOM      6  C   UNL     1      46.579   6.354  13.663  0.00  0.00    +0.000 A 
ENDROOT
BRANCH   5   7
ATOM      7  C   UNL     1      44.943   4.528  13.079  0.00  0.00    +0.000 C 
ATOM      8  C   UNL     1      45.011   3.240  12.238  0.00  0.00    +0.000 C 
ATOM      9  C   UNL     1      44.251   3.367  10.916  0.00  0.00    +0.000 C 
ATOM     10  N   UNL     1      42.862   3.771  11.114  0.00  0.00    +0.000 NA
ATOM     11  C   UNL     1      42.778   5.038  11.845  0.00  0.00    +0.000 C 
ATOM     12  C   UNL     1      43.468   4.955  13.205  0.00  0.00    +0.000 C 
ATOM     13  H   UNL     1      42.374   3.048  11.640  0.00  0.00    +0.000 HD
ENDBRANCH   5   7
BRANCH   1  14
ATOM     14  C   UNL     1      48.583   7.732  14.491  0.00  0.00    +0.000 C 
ATOM     15  C   UNL     1      49.465   8.936  14.135  0.00  0.00    +0.000 C 
ATOM     16  C   UNL     1      48.292   9.127  15.028  0.00  0.00    +0.000 C 
BRANCH  14  22
ATOM     17 CL   UNL     1      48.761   4.385  20.620  0.00  0.00    +0.000 Cl
ATOM     18  C   UNL     1      48.802   5.076  19.051  0.00  0.00    +0.000 A 
ATOM     19  C   UNL     1      48.370   6.368  18.837  0.00  0.00    +0.000 A 
ATOM     20  C   UNL     1      48.452   6.910  17.550  0.00  0.00    +0.000 A 
ATOM     21  C   UNL     1      48.981   6.160  16.506  0.00  0.00    +0.000 A 
ATOM     22  N   UNL     1      49.240   6.646  15.226  0.00  0.00    +0.000 N 
ATOM     23  N   UNL     1      49.385   4.886  16.712  0.00  0.00    +0.000 NA
ATOM     24  C   UNL     1      49.285   4.371  17.965  0.00  0.00    +0.000 A 
ATOM     25  H   UNL     1      49.577   5.858  14.675  0.00  0.00    +0.000 HD
ENDBRANCH  14  22
ENDBRANCH   1  14
TORSDOF 3
ENDMDL
