MODEL 1
REMARK VINA RESULT:    -7.210      0.000      0.000
REMARK INTER + INTRA:         -11.236
REMARK INTER:                 -10.582
REMARK INTRA:                  -0.654
REMARK UNBOUND:                -0.654
REMARK  Name = 
REMARK  8 active torsions:
REMARK  status: ('A' for Active; 'I' for Inactive)
REMARK    1  A    between atoms: C_2  and  C_3
REMARK    2  A    between atoms: C_6  and  N_7
REMARK    3  A    between atoms: N_7  and  C_8
REMARK    4  A    between atoms: C_8  and  C_9
REMARK    5  A    between atoms: C_9  and  C_10
REMARK    6  A    between atoms: C_14  and  O_15
REMARK    7  A    between atoms: O_15  and  C_16
REMARK    8  A    between atoms: C_22  and  C_23
REMARK                            x       y       z     vdW  Elec       q    Type
REMARK                         _______ _______ _______ _____ _____    ______ ____
ROOT
ATOM      1  N   UNL     1      43.442   4.580  11.913  0.00  0.00    +0.000 N 
ATOM      2  H   UNL     1      42.601   5.025  12.273  0.00  0.00    +0.000 HD
ENDROOT
BRANCH   1   6
ATOM      3  C   UNL     1      47.135   6.078  13.355  0.00  0.00    +0.000 A 
ATOM      4  C   UNL     1      46.476   6.721  12.302  0.00  0.00    +0.000 A 
ATOM      5  C   UNL     1      45.249   6.247  11.828  0.00  0.00    +0.000 A 
ATOM      6  C   UNL     1      44.621   5.143  12.409  0.00  0.00    +0.000 A 
ATOM      7  C   UNL     1      45.293   4.496  13.463  0.00  0.00    +0.000 A 
ATOM      8  C   UNL     1      46.545   4.946  13.935  0.00  0.00    +0.000 A 
BRANCH   8   9
ATOM      9  C   UNL     1      47.220   4.233  15.054  0.00  0.00    +0.000 C 
ATOM     10  N   UNL     1      47.258   4.847  16.274  0.00  0.00    +0.000 N 
ATOM     11  O   UNL     1      47.718   3.126  14.908  0.00  0.00    +0.000 OA
ATOM     12  H   UNL     1      46.740   5.682  16.507  0.00  0.00    +0.000 HD
ATOM     13  H   UNL     1      47.643   4.300  17.036  0.00  0.00    +0.000 HD
ENDBRANCH   8   9
BRANCH   3  15
ATOM     14  N   UNL     1      49.472   6.922  14.104  0.00  0.00    +0.000 NA
ATOM     15  C   UNL     1      48.418   6.597  13.747  0.00  0.00    +0.000 C 
ENDBRANCH   3  15
ENDBRANCH   1   6
BRANCH   1  16
ATOM     16  C   UNL     1      43.364   4.158  10.511  0.00  0.00    +0.000 C 
BRANCH  16  17
ATOM     17  C   UNL     1      44.195   2.895  10.259  0.00  0.00    +0.000 C 
BRANCH  17  18
ATOM     18  C   UNL     1      45.165   3.081   9.114  0.00  0.00    +0.000 A 
ATOM     19  C   UNL     1      45.594   4.359   8.740  0.00  0.00    +0.000 A 
ATOM     20  C   UNL     1      46.523   4.518   7.708  0.00  0.00    +0.000 A 
ATOM     21  C   UNL     1      47.037   3.405   7.036  0.00  0.00    +0.000 A 
ATOM     22  C   UNL     1      46.612   2.129   7.394  0.00  0.00    +0.000 A 
ATOM     23  C   UNL     1      45.687   1.972   8.434  0.00  0.00    +0.000 A 
BRANCH  22  24
ATOM     24  O   UNL     1      47.064   0.956   6.843  0.00  0.00    +0.000 OA
BRANCH  24  25
ATOM     25  C   UNL     1      47.507   0.931   5.466  0.00  0.00    +0.000 C 
ATOM     26  C   UNL     1      46.697   1.733   4.424  0.00  0.00    +0.000 C 
ATOM     27  N   UNL     1      46.677   0.557   3.531  0.00  0.00    +0.000 NA
ATOM     28  C   UNL     1      47.036  -0.308   4.668  0.00  0.00    +0.000 C 
ATOM     29  H   UNL     1      47.382   0.581   2.794  0.00  0.00    +0.000 HD
ENDBRANCH  24  25
ENDBRANCH  22  24
ENDBRANCH  17  18
ENDBRANCH  16  17
ENDBRANCH   1  16
TORSDOF 8
ENDMDL
MODEL 2
REMARK VINA RESULT:    -7.194      1.977      3.246
REMARK INTER + INTRA:         -11.213
REMARK INTER:                 -10.553
REMARK INTRA:                  -0.660
REMARK UNBOUND:                -0.654
REMARK  Name = 
REMARK  8 active torsions:
REMARK  status: ('A' for Active; 'I' for Inactive)
REMARK    1  A    between atoms: C_2  and  C_3
REMARK    2  A    between atoms: C_6  and  N_7
REMARK    3  A    between atoms: N_7  and  C_8
REMARK    4  A    between atoms: C_8  and  C_9
REMARK    5  A    between atoms: C_9  and  C_10
REMARK    6  A    between atoms: C_14  and  O_15
REMARK    7  A    between atoms: O_15  and  C_16
REMARK    8  A    between atoms: C_22  and  C_23
REMARK                            x       y       z     vdW  Elec       q    Type
REMARK                         _______ _______ _______ _____ _____    ______ ____
ROOT
ATOM      1  N   UNL     1      47.071   6.215  12.707  0.00  0.00    +0.000 N 
ATOM      2  H   UNL     1      47.681   5.805  12.003  0.00  0.00    +0.000 HD
ENDROOT
BRANCH   1   6
ATOM      3  C   UNL     1      48.685   5.610  16.578  0.00  0.00    +0.000 A 
ATOM      4  C   UNL     1      48.941   6.798  15.886  0.00  0.00    +0.000 A 
ATOM      5  C   UNL     1      48.401   7.017  14.615  0.00  0.00    +0.000 A 
ATOM      6  C   UNL     1      47.560   6.080  14.009  0.00  0.00    +0.000 A 
ATOM      7  C   UNL     1      47.314   4.884  14.708  0.00  0.00    +0.000 A 
ATOM      8  C   UNL     1      47.874   4.636  15.980  0.00  0.00    +0.000 A 
BRANCH   8   9
ATOM      9  C   UNL     1      47.583   3.357  16.685  0.00  0.00    +0.000 C 
ATOM     10  N   UNL     1      48.495   2.345  16.576  0.00  0.00    +0.000 N 
ATOM     11  O   UNL     1      46.572   3.204  17.356  0.00  0.00    +0.000 OA
ATOM     12  H   UNL     1      49.414   2.448  16.173  0.00  0.00    +0.000 HD
ATOM     13  H   UNL     1      48.314   1.521  17.139  0.00  0.00    +0.000 HD
ENDBRANCH   8   9
BRANCH   3  15
ATOM     14  N   UNL     1      49.924   5.278  18.834  0.00  0.00    +0.000 NA
ATOM     15  C   UNL     1      49.323   5.440  17.856  0.00  0.00    +0.000 C 
ENDBRANCH   3  15
ENDBRANCH   1   6
BRANCH   1  16
ATOM     16  C   UNL     1      45.637   6.063  12.442  0.00  0.00    +0.000 C 
BRANCH  16  17
ATOM     17  C   UNL     1      45.314   6.293  10.962  0.00  0.00    +0.000 C 
BRANCH  17  18
ATOM     18  C   UNL     1      45.122   4.989  10.220  0.00  0.00    +0.000 A 
ATOM     19  C   UNL     1      44.404   3.936  10.799  0.00  0.00    +0.000 A 
ATOM     20  C   UNL     1      44.196   2.751  10.089  0.00  0.00    +0.000 A 
ATOM     21  C   UNL     1      44.699   2.599   8.793  0.00  0.00    +0.000 A 
ATOM     22  C   UNL     1      45.419   3.637   8.210  0.00  0.00    +0.000 A 
ATOM     23  C   UNL     1      45.621   4.827   8.920  0.00  0.00    +0.000 A 
BRANCH  22  24
ATOM     24  O   UNL     1      45.933   3.632   6.937  0.00  0.00    +0.000 OA
BRANCH  24  25
ATOM     25  C   UNL     1      46.563   2.438   6.420  0.00  0.00    +0.000 C 
ATOM     26  C   UNL     1      48.024   2.148   6.827  0.00  0.00    +0.000 C 
ATOM     27  N   UNL     1      48.372   1.898   5.414  0.00  0.00    +0.000 NA
ATOM     28  C   UNL     1      47.142   2.591   4.993  0.00  0.00    +0.000 C 
ATOM     29  H   UNL     1      48.394   0.910   5.158  0.00  0.00    +0.000 HD
ENDBRANCH  24  25
ENDBRANCH  22  24
ENDBRANCH  17  18
ENDBRANCH  16  17
ENDBRANCH   1  16
TORSDOF 8
ENDMDL
MODEL 3
REMARK VINA RESULT:    -7.112      1.910      2.756
REMARK INTER + INTRA:         -11.092
REMARK INTER:                 -10.024
REMARK INTRA:                  -1.068
REMARK UNBOUND:                -0.654
REMARK  Name = 
REMARK  8 active torsions:
REMARK  status: ('A' for Active; 'I' for Inactive)
REMARK    1  A    between atoms: C_2  and  C_3
REMARK    2  A    between atoms: C_6  and  N_7
REMARK    3  A    between atoms: N_7  and  C_8
REMARK    4  A    between atoms: C_8  and  C_9
REMARK    5  A    between atoms: C_9  and  C_10
REMARK    6  A    between atoms: C_14  and  O_15
REMARK    7  A    between atoms: O_15  and  C_16
REMARK    8  A    between atoms: C_22  and  C_23
REMARK                            x       y       z     vdW  Elec       q    Type
REMARK                         _______ _______ _______ _____ _____    ______ ____
ROOT
ATOM      1  N   UNL     1      45.086   4.195  13.438  0.00  0.00    +0.000 N 
ATOM      2  H   UNL     1      45.396   3.781  14.315  0.00  0.00    +0.000 HD
ENDROOT
BRANCH   1   6
ATOM      3  C   UNL     1      46.812   7.969  12.579  0.00  0.00    +0.000 A 
ATOM      4  C   UNL     1      45.437   7.770  12.419  0.00  0.00    +0.000 A 
ATOM      5  C   UNL     1      44.852   6.535  12.715  0.00  0.00    +0.000 A 
ATOM      6  C   UNL     1      45.608   5.472  13.214  0.00  0.00    +0.000 A 
ATOM      7  C   UNL     1      46.993   5.676  13.365  0.00  0.00    +0.000 A 
ATOM      8  C   UNL     1      47.602   6.909  13.044  0.00  0.00    +0.000 A 
BRANCH   8   9
ATOM      9  C   UNL     1      49.070   7.082  13.222  0.00  0.00    +0.000 C 
ATOM     10  N   UNL     1      49.868   6.951  12.121  0.00  0.00    +0.000 N 
ATOM     11  O   UNL     1      49.562   7.346  14.310  0.00  0.00    +0.000 OA
ATOM     12  H   UNL     1      49.525   6.887  11.174  0.00  0.00    +0.000 HD
ATOM     13  H   UNL     1      50.851   7.163  12.255  0.00  0.00    +0.000 HD
ENDBRANCH   8   9
BRANCH   3  15
ATOM     14  N   UNL     1      47.799  10.240  11.806  0.00  0.00    +0.000 NA
ATOM     15  C   UNL     1      47.342   9.251  12.200  0.00  0.00    +0.000 C 
ENDBRANCH   3  15
ENDBRANCH   1   6
BRANCH   1  16
ATOM     16  C   UNL     1      43.697   3.895  13.075  0.00  0.00    +0.000 C 
BRANCH  16  17
ATOM     17  C   UNL     1      43.618   2.721  12.092  0.00  0.00    +0.000 C 
BRANCH  17  18
ATOM     18  C   UNL     1      44.086   3.115  10.709  0.00  0.00    +0.000 A 
ATOM     19  C   UNL     1      43.745   4.358  10.165  0.00  0.00    +0.000 A 
ATOM     20  C   UNL     1      44.218   4.730   8.903  0.00  0.00    +0.000 A 
ATOM     21  C   UNL     1      45.039   3.869   8.169  0.00  0.00    +0.000 A 
ATOM     22  C   UNL     1      45.379   2.628   8.697  0.00  0.00    +0.000 A 
ATOM     23  C   UNL     1      44.910   2.260   9.965  0.00  0.00    +0.000 A 
BRANCH  22  24
ATOM     24  O   UNL     1      46.204   1.707   8.099  0.00  0.00    +0.000 OA
BRANCH  24  25
ATOM     25  C   UNL     1      46.695   1.944   6.759  0.00  0.00    +0.000 C 
ATOM     26  C   UNL     1      47.327   0.761   5.994  0.00  0.00    +0.000 C 
ATOM     27  N   UNL     1      48.482   1.607   5.634  0.00  0.00    +0.000 NA
ATOM     28  C   UNL     1      48.116   2.554   6.701  0.00  0.00    +0.000 C 
ATOM     29  H   UNL     1      48.432   2.006   4.697  0.00  0.00    +0.000 HD
ENDBRANCH  24  25
ENDBRANCH  22  24
ENDBRANCH  17  18
ENDBRANCH  16  17
ENDBRANCH   1  16
TORSDOF 8
ENDMDL
MODEL 4
REMARK VINA RESULT:    -7.075      2.412      3.355
REMARK INTER + INTRA:         -11.037
REMARK INTER:                 -10.238
REMARK INTRA:                  -0.799
REMARK UNBOUND:                -0.654
REMARK  Name = 
REMARK  8 active torsions:
REMARK  status: ('A' for Active; 'I' for Inactive)
REMARK    1  A    between atoms: C_2  and  C_3
REMARK    2  A    between atoms: C_6  and  N_7
REMARK    3  A    between atoms: N_7  and  C_8
REMARK    4  A    between atoms: C_8  and  C_9
REMARK    5  A    between atoms: C_9  and  C_10
REMARK    6  A    between atoms: C_14  and  O_15
REMARK    7  A    between atoms: O_15  and  C_16
REMARK    8  A    between atoms: C_22  and  C_23
REMARK                            x       y       z     vdW  Elec       q    Type
REMARK                         _______ _______ _______ _____ _____    ______ ____
ROOT
ATOM      1  N   UNL     1      44.999   4.292  13.606  0.00  0.00    +0.000 N 
ATOM      2  H   UNL     1      45.093   4.151  14.609  0.00  0.00    +0.000 HD
ENDROOT
BRANCH   1   6
ATOM      3  C   UNL     1      47.133   7.728  12.341  0.00  0.00    +0.000 A 
ATOM      4  C   UNL     1      47.822   6.589  12.770  0.00  0.00    +0.000 A 
ATOM      5  C   UNL     1      47.130   5.442  13.174  0.00  0.00    +0.000 A 
ATOM      6  C   UNL     1      45.736   5.379  13.129  0.00  0.00    +0.000 A 
ATOM      7  C   UNL     1      45.049   6.532  12.704  0.00  0.00    +0.000 A 
ATOM      8  C   UNL     1      45.732   7.706  12.319  0.00  0.00    +0.000 A 
BRANCH   8   9
ATOM      9  C   UNL     1      44.965   8.902  11.874  0.00  0.00    +0.000 C 
ATOM     10  N   UNL     1      43.941   8.712  10.989  0.00  0.00    +0.000 N 
ATOM     11  O   UNL     1      45.222  10.025  12.285  0.00  0.00    +0.000 OA
ATOM     12  H   UNL     1      43.575   7.809  10.728  0.00  0.00    +0.000 HD
ATOM     13  H   UNL     1      43.381   9.530  10.774  0.00  0.00    +0.000 HD
ENDBRANCH   8   9
BRANCH   3  15
ATOM     14  N   UNL     1      48.634   9.752  11.723  0.00  0.00    +0.000 NA
ATOM     15  C   UNL     1      47.918   8.882  11.995  0.00  0.00    +0.000 C 
ENDBRANCH   3  15
ENDBRANCH   1   6
BRANCH   1  16
ATOM     16  C   UNL     1      43.663   4.018  13.068  0.00  0.00    +0.000 C 
BRANCH  16  17
ATOM     17  C   UNL     1      43.672   2.796  12.142  0.00  0.00    +0.000 C 
BRANCH  17  18
ATOM     18  C   UNL     1      44.097   3.161  10.738  0.00  0.00    +0.000 A 
ATOM     19  C   UNL     1      43.735   4.392  10.177  0.00  0.00    +0.000 A 
ATOM     20  C   UNL     1      44.169   4.737   8.895  0.00  0.00    +0.000 A 
ATOM     21  C   UNL     1      44.969   3.862   8.153  0.00  0.00    +0.000 A 
ATOM     22  C   UNL     1      45.329   2.634   8.698  0.00  0.00    +0.000 A 
ATOM     23  C   UNL     1      44.900   2.292   9.986  0.00  0.00    +0.000 A 
BRANCH  22  24
ATOM     24  O   UNL     1      46.138   1.702   8.094  0.00  0.00    +0.000 OA
BRANCH  24  25
ATOM     25  C   UNL     1      46.670   1.959   6.774  0.00  0.00    +0.000 C 
ATOM     26  C   UNL     1      47.308   0.783   6.003  0.00  0.00    +0.000 C 
ATOM     27  N   UNL     1      48.484   1.619   5.693  0.00  0.00    +0.000 NA
ATOM     28  C   UNL     1      48.100   2.550   6.768  0.00  0.00    +0.000 C 
ATOM     29  H   UNL     1      48.466   2.037   4.763  0.00  0.00    +0.000 HD
ENDBRANCH  24  25
ENDBRANCH  22  24
ENDBRANCH  17  18
ENDBRANCH  16  17
ENDBRANCH   1  16
TORSDOF 8
ENDMDL
MODEL 5
REMARK VINA RESULT:    -7.062      2.121      8.619
REMARK INTER + INTRA:         -11.019
REMARK INTER:                 -10.384
REMARK INTRA:                  -0.636
REMARK UNBOUND:                -0.654
REMARK  Name = 
REMARK  8 active torsions:
REMARK  status: ('A' for Active; 'I' for Inactive)
REMARK    1  A    between atoms: C_2  and  C_3
REMARK    2  A    between atoms: C_6  and  N_7
REMARK    3  A    between atoms: N_7  and  C_8
REMARK    4  A    between atoms: C_8  and  C_9
REMARK    5  A    between atoms: C_9  and  C_10
REMARK    6  A    between atoms: C_14  and  O_15
REMARK    7  A    between atoms: O_15  and  C_16
REMARK    8  A    between atoms: C_22  and  C_23
REMARK                            x       y       z     vdW  Elec       q    Type
REMARK                         _______ _______ _______ _____ _____    ______ ____
ROOT
ATOM      1  N   UNL     1      45.045   5.391   9.172  0.00  0.00    +0.000 N 
ATOM      2  H   UNL     1      44.049   5.600   9.177  0.00  0.00    +0.000 HD
ENDROOT
BRANCH   1   6
ATOM      3  C   UNL     1      46.159   1.477   7.991  0.00  0.00    +0.000 A 
ATOM      4  C   UNL     1      45.312   1.668   9.088  0.00  0.00    +0.000 A 
ATOM      5  C   UNL     1      44.924   2.953   9.477  0.00  0.00    +0.000 A 
ATOM      6  C   UNL     1      45.333   4.085   8.768  0.00  0.00    +0.000 A 
ATOM      7  C   UNL     1      46.192   3.886   7.671  0.00  0.00    +0.000 A 
ATOM      8  C   UNL     1      46.615   2.596   7.282  0.00  0.00    +0.000 A 
BRANCH   8   9
ATOM      9  C   UNL     1      47.521   2.432   6.112  0.00  0.00    +0.000 C 
ATOM     10  N   UNL     1      48.868   2.451   6.339  0.00  0.00    +0.000 N 
ATOM     11  O   UNL     1      47.091   2.272   4.979  0.00  0.00    +0.000 OA
ATOM     12  H   UNL     1      49.292   2.424   7.255  0.00  0.00    +0.000 HD
ATOM     13  H   UNL     1      49.458   2.247   5.539  0.00  0.00    +0.000 HD
ENDBRANCH   8   9
BRANCH   3  15
ATOM     14  N   UNL     1      46.874  -0.978   7.549  0.00  0.00    +0.000 NA
ATOM     15  C   UNL     1      46.555   0.127   7.690  0.00  0.00    +0.000 C 
ENDBRANCH   3  15
ENDBRANCH   1   6
BRANCH   1  16
ATOM     16  C   UNL     1      45.809   6.009  10.261  0.00  0.00    +0.000 C 
BRANCH  16  17
ATOM     17  C   UNL     1      45.236   5.630  11.631  0.00  0.00    +0.000 C 
BRANCH  17  18
ATOM     18  C   UNL     1      46.272   5.756  12.726  0.00  0.00    +0.000 A 
ATOM     19  C   UNL     1      47.235   6.770  12.686  0.00  0.00    +0.000 A 
ATOM     20  C   UNL     1      48.161   6.905  13.724  0.00  0.00    +0.000 A 
ATOM     21  C   UNL     1      48.139   6.031  14.815  0.00  0.00    +0.000 A 
ATOM     22  C   UNL     1      47.190   5.014  14.862  0.00  0.00    +0.000 A 
ATOM     23  C   UNL     1      46.258   4.886  13.824  0.00  0.00    +0.000 A 
BRANCH  22  24
ATOM     24  O   UNL     1      47.036   4.116  15.889  0.00  0.00    +0.000 OA
BRANCH  24  25
ATOM     25  C   UNL     1      48.018   4.061  16.950  0.00  0.00    +0.000 C 
ATOM     26  C   UNL     1      48.118   2.766  17.785  0.00  0.00    +0.000 C 
ATOM     27  N   UNL     1      48.091   3.561  19.028  0.00  0.00    +0.000 NA
ATOM     28  C   UNL     1      47.557   4.710  18.277  0.00  0.00    +0.000 C 
ATOM     29  H   UNL     1      49.011   3.729  19.436  0.00  0.00    +0.000 HD
ENDBRANCH  24  25
ENDBRANCH  22  24
ENDBRANCH  17  18
ENDBRANCH  16  17
ENDBRANCH   1  16
TORSDOF 8
ENDMDL
MODEL 6
REMARK VINA RESULT:    -6.636      1.940      2.696
REMARK INTER + INTRA:         -10.393
REMARK INTER:                 -10.387
REMARK INTRA:                  -0.006
REMARK UNBOUND:                -0.654
REMARK  Name = 
REMARK  8 active torsions:
REMARK  status: ('A' for Active; 'I' for Inactive)
REMARK    1  A    between atoms: C_2  and  C_3
REMARK    2  A    between atoms: C_6  and  N_7
REMARK    3  A    between atoms: N_7  and  C_8
REMARK    4  A    between atoms: C_8  and  C_9
REMARK    5  A    between atoms: C_9  and  C_10
REMARK    6  A    between atoms: C_14  and  O_15
REMARK    7  A    between atoms: O_15  and  C_16
REMARK    8  A    between atoms: C_22  and  C_23
REMARK                            x       y       z     vdW  Elec       q    Type
REMARK                         _______ _______ _______ _____ _____    ______ ____
ROOT
ATOM      1  N   UNL     1      45.459   3.486  12.920  0.00  0.00    +0.000 N 
ATOM      2  H   UNL     1      45.513   2.596  13.411  0.00  0.00    +0.000 HD
ENDROOT
BRANCH   1   6
ATOM      3  C   UNL     1      48.111   6.503  14.271  0.00  0.00    +0.000 A 
ATOM      4  C   UNL     1      47.796   5.420  15.098  0.00  0.00    +0.000 A 
ATOM      5  C   UNL     1      46.935   4.409  14.658  0.00  0.00    +0.000 A 
ATOM      6  C   UNL     1      46.392   4.423  13.371  0.00  0.00    +0.000 A 
ATOM      7  C   UNL     1      46.708   5.520  12.548  0.00  0.00    +0.000 A 
ATOM      8  C   UNL     1      47.553   6.562  12.987  0.00  0.00    +0.000 A 
BRANCH   8   9
ATOM      9  C   UNL     1      47.863   7.702  12.080  0.00  0.00    +0.000 C 
ATOM     10  N   UNL     1      47.042   8.793  12.122  0.00  0.00    +0.000 N 
ATOM     11  O   UNL     1      48.824   7.684  11.324  0.00  0.00    +0.000 OA
ATOM     12  H   UNL     1      46.330   8.944  12.821  0.00  0.00    +0.000 HD
ATOM     13  H   UNL     1      47.329   9.588  11.561  0.00  0.00    +0.000 HD
ENDBRANCH   8   9
BRANCH   3  15
ATOM     14  N   UNL     1      49.646   8.296  15.348  0.00  0.00    +0.000 NA
ATOM     15  C   UNL     1      48.960   7.526  14.819  0.00  0.00    +0.000 C 
ENDBRANCH   3  15
ENDBRANCH   1   6
BRANCH   1  16
ATOM     16  C   UNL     1      44.102   3.913  12.566  0.00  0.00    +0.000 C 
BRANCH  16  17
ATOM     17  C   UNL     1      43.544   3.090  11.399  0.00  0.00    +0.000 C 
BRANCH  17  18
ATOM     18  C   UNL     1      44.382   3.250  10.150  0.00  0.00    +0.000 A 
ATOM     19  C   UNL     1      44.695   4.521   9.656  0.00  0.00    +0.000 A 
ATOM     20  C   UNL     1      45.505   4.658   8.526  0.00  0.00    +0.000 A 
ATOM     21  C   UNL     1      46.015   3.531   7.873  0.00  0.00    +0.000 A 
ATOM     22  C   UNL     1      45.704   2.262   8.352  0.00  0.00    +0.000 A 
ATOM     23  C   UNL     1      44.898   2.126   9.489  0.00  0.00    +0.000 A 
BRANCH  22  24
ATOM     24  O   UNL     1      46.167   1.080   7.830  0.00  0.00    +0.000 OA
BRANCH  24  25
ATOM     25  C   UNL     1      47.460   1.035   7.184  0.00  0.00    +0.000 C 
ATOM     26  C   UNL     1      48.123   2.371   6.784  0.00  0.00    +0.000 C 
ATOM     27  N   UNL     1      48.397   1.836   5.436  0.00  0.00    +0.000 NA
ATOM     28  C   UNL     1      47.401   0.774   5.659  0.00  0.00    +0.000 C 
ATOM     29  H   UNL     1      49.347   1.488   5.310  0.00  0.00    +0.000 HD
ENDBRANCH  24  25
ENDBRANCH  22  24
ENDBRANCH  17  18
ENDBRANCH  16  17
ENDBRANCH   1  16
TORSDOF 8
ENDMDL
MODEL 7
REMARK VINA RESULT:    -6.572      3.179      4.252
REMARK INTER + INTRA:         -10.300
REMARK INTER:                  -9.471
REMARK INTRA:                  -0.829
REMARK UNBOUND:                -0.654
REMARK  Name = 
REMARK  8 active torsions:
REMARK  status: ('A' for Active; 'I' for Inactive)
REMARK    1  A    between atoms: C_2  and  C_3
REMARK    2  A    between atoms: C_6  and  N_7
REMARK    3  A    between atoms: N_7  and  C_8
REMARK    4  A    between atoms: C_8  and  C_9
REMARK    5  A    between atoms: C_9  and  C_10
REMARK    6  A    between atoms: C_14  and  O_15
REMARK    7  A    between atoms: O_15  and  C_16
REMARK    8  A    between atoms: C_22  and  C_23
REMARK                            x       y       z     vdW  Elec       q    Type
REMARK                         _______ _______ _______ _____ _____    ______ ____
ROOT
ATOM      1  N   UNL     1      44.913   7.301  12.982  0.00  0.00    +0.000 N 
ATOM      2  H   UNL     1      44.164   7.987  13.047  0.00  0.00    +0.000 HD
ENDROOT
BRANCH   1   6
ATOM      3  C   UNL     1      48.594   9.039  11.802  0.00  0.00    +0.000 A 
ATOM      4  C   UNL     1      48.441   7.648  11.810  0.00  0.00    +0.000 A 
ATOM      5  C   UNL     1      47.227   7.063  12.181  0.00  0.00    +0.000 A 
ATOM      6  C   UNL     1      46.117   7.840  12.519  0.00  0.00    +0.000 A 
ATOM      7  C   UNL     1      46.280   9.238  12.517  0.00  0.00    +0.000 A 
ATOM      8  C   UNL     1      47.507   9.843  12.171  0.00  0.00    +0.000 A 
BRANCH   8   9
ATOM      9  C   UNL     1      47.635  11.327  12.180  0.00  0.00    +0.000 C 
ATOM     10  N   UNL     1      48.007  11.930  13.347  0.00  0.00    +0.000 N 
ATOM     11  O   UNL     1      47.428  11.999  11.179  0.00  0.00    +0.000 OA
ATOM     12  H   UNL     1      48.340  11.437  14.162  0.00  0.00    +0.000 HD
ATOM     13  H   UNL     1      48.172  12.930  13.299  0.00  0.00    +0.000 HD
ENDBRANCH   8   9
BRANCH   3  15
ATOM     14  N   UNL     1      50.901  10.071  11.215  0.00  0.00    +0.000 NA
ATOM     15  C   UNL     1      49.891   9.558  11.461  0.00  0.00    +0.000 C 
ENDBRANCH   3  15
ENDBRANCH   1   6
BRANCH   1  16
ATOM     16  C   UNL     1      44.490   5.967  12.545  0.00  0.00    +0.000 C 
BRANCH  16  17
ATOM     17  C   UNL     1      44.036   5.976  11.081  0.00  0.00    +0.000 C 
BRANCH  17  18
ATOM     18  C   UNL     1      44.381   4.681  10.380  0.00  0.00    +0.000 A 
ATOM     19  C   UNL     1      43.887   3.459  10.851  0.00  0.00    +0.000 A 
ATOM     20  C   UNL     1      44.177   2.272  10.171  0.00  0.00    +0.000 A 
ATOM     21  C   UNL     1      44.960   2.288   9.013  0.00  0.00    +0.000 A 
ATOM     22  C   UNL     1      45.461   3.496   8.540  0.00  0.00    +0.000 A 
ATOM     23  C   UNL     1      45.165   4.685   9.218  0.00  0.00    +0.000 A 
BRANCH  22  24
ATOM     24  O   UNL     1      46.209   3.655   7.399  0.00  0.00    +0.000 OA
BRANCH  24  25
ATOM     25  C   UNL     1      46.663   2.492   6.668  0.00  0.00    +0.000 C 
ATOM     26  C   UNL     1      48.140   2.069   6.814  0.00  0.00    +0.000 C 
ATOM     27  N   UNL     1      48.259   1.964   5.347  0.00  0.00    +0.000 NA
ATOM     28  C   UNL     1      47.039   2.775   5.194  0.00  0.00    +0.000 C 
ATOM     29  H   UNL     1      48.167   1.013   4.987  0.00  0.00    +0.000 HD
ENDBRANCH  24  25
ENDBRANCH  22  24
ENDBRANCH  17  18
ENDBRANCH  16  17
ENDBRANCH   1  16
TORSDOF 8
ENDMDL
MODEL 8
REMARK VINA RESULT:    -6.485      2.423      3.802
REMARK INTER + INTRA:         -10.172
REMARK INTER:                  -9.392
REMARK INTRA:                  -0.780
REMARK UNBOUND:                -0.654
REMARK  Name = 
REMARK  8 active torsions:
REMARK  status: ('A' for Active; 'I' for Inactive)
REMARK    1  A    between atoms: C_2  and  C_3
REMARK    2  A    between atoms: C_6  and  N_7
REMARK    3  A    between atoms: N_7  and  C_8
REMARK    4  A    between atoms: C_8  and  C_9
REMARK    5  A    between atoms: C_9  and  C_10
REMARK    6  A    between atoms: C_14  and  O_15
REMARK    7  A    between atoms: O_15  and  C_16
REMARK    8  A    between atoms: C_22  and  C_23
REMARK                            x       y       z     vdW  Elec       q    Type
REMARK                         _______ _______ _______ _____ _____    ______ ____
ROOT
ATOM      1  N   UNL     1      46.302   5.339  12.794  0.00  0.00    +0.000 N 
ATOM      2  H   UNL     1      46.190   4.405  13.184  0.00  0.00    +0.000 HD
ENDROOT
BRANCH   1   6
ATOM      3  C   UNL     1      49.755   7.487  13.986  0.00  0.00    +0.000 A 
ATOM      4  C   UNL     1      48.968   6.834  14.939  0.00  0.00    +0.000 A 
ATOM      5  C   UNL     1      47.836   6.107  14.557  0.00  0.00    +0.000 A 
ATOM      6  C   UNL     1      47.472   5.977  13.215  0.00  0.00    +0.000 A 
ATOM      7  C   UNL     1      48.264   6.644  12.262  0.00  0.00    +0.000 A 
ATOM      8  C   UNL     1      49.394   7.404  12.634  0.00  0.00    +0.000 A 
BRANCH   8   9
ATOM      9  C   UNL     1      50.205   8.091  11.591  0.00  0.00    +0.000 C 
ATOM     10  N   UNL     1      51.170   7.366  10.951  0.00  0.00    +0.000 N 
ATOM     11  O   UNL     1      50.020   9.263  11.297  0.00  0.00    +0.000 OA
ATOM     12  H   UNL     1      51.277   6.365  11.029  0.00  0.00    +0.000 HD
ATOM     13  H   UNL     1      51.644   7.834  10.185  0.00  0.00    +0.000 HD
ENDBRANCH   8   9
BRANCH   3  15
ATOM     14  N   UNL     1      51.703   8.956  14.869  0.00  0.00    +0.000 NA
ATOM     15  C   UNL     1      50.871   8.258  14.466  0.00  0.00    +0.000 C 
ENDBRANCH   3  15
ENDBRANCH   1   6
BRANCH   1  16
ATOM     16  C   UNL     1      45.058   6.102  12.658  0.00  0.00    +0.000 C 
BRANCH  16  17
ATOM     17  C   UNL     1      44.675   6.290  11.186  0.00  0.00    +0.000 C 
BRANCH  17  18
ATOM     18  C   UNL     1      44.759   4.991  10.415  0.00  0.00    +0.000 A 
ATOM     19  C   UNL     1      44.087   3.849  10.863  0.00  0.00    +0.000 A 
ATOM     20  C   UNL     1      44.135   2.665  10.121  0.00  0.00    +0.000 A 
ATOM     21  C   UNL     1      44.854   2.605   8.923  0.00  0.00    +0.000 A 
ATOM     22  C   UNL     1      45.532   3.733   8.472  0.00  0.00    +0.000 A 
ATOM     23  C   UNL     1      45.476   4.920   9.212  0.00  0.00    +0.000 A 
BRANCH  22  24
ATOM     24  O   UNL     1      46.241   3.819   7.299  0.00  0.00    +0.000 OA
BRANCH  24  25
ATOM     25  C   UNL     1      46.597   2.614   6.583  0.00  0.00    +0.000 C 
ATOM     26  C   UNL     1      47.969   1.969   6.878  0.00  0.00    +0.000 C 
ATOM     27  N   UNL     1      48.238   1.872   5.430  0.00  0.00    +0.000 NA
ATOM     28  C   UNL     1      47.178   2.861   5.170  0.00  0.00    +0.000 C 
ATOM     29  H   UNL     1      48.048   0.953   5.030  0.00  0.00    +0.000 HD
ENDBRANCH  24  25
ENDBRANCH  22  24
ENDBRANCH  17  18
ENDBRANCH  16  17
ENDBRANCH   1  16
TORSDOF 8
ENDMDL
MODEL 9
REMARK VINA RESULT:    -6.466      3.272      8.439
REMARK INTER + INTRA:         -10.144
REMARK INTER:                  -9.084
REMARK INTRA:                  -1.060
REMARK UNBOUND:                -0.654
REMARK  Name = 
REMARK  8 active torsions:
REMARK  status: ('A' for Active; 'I' for Inactive)
REMARK    1  A    between atoms: C_2  and  C_3
REMARK    2  A    between atoms: C_6  and  N_7
REMARK    3  A    between atoms: N_7  and  C_8
REMARK    4  A    between atoms: C_8  and  C_9
REMARK    5  A    between atoms: C_9  and  C_10
REMARK    6  A    between atoms: C_14  and  O_15
REMARK    7  A    between atoms: O_15  and  C_16
REMARK    8  A    between atoms: C_22  and  C_23
REMARK                            x       y       z     vdW  Elec       q    Type
REMARK                         _______ _______ _______ _____ _____    ______ ____
ROOT
ATOM      1  N   UNL     1      47.431   7.647  11.551  0.00  0.00    +0.000 N 
ATOM      2  H   UNL     1      46.994   8.564  11.486  0.00  0.00    +0.000 HD
ENDROOT
BRANCH   1   6
ATOM      3  C   UNL     1      44.830   4.353  12.131  0.00  0.00    +0.000 A 
ATOM      4  C   UNL     1      45.260   5.112  13.224  0.00  0.00    +0.000 A 
ATOM      5  C   UNL     1      46.105   6.212  13.044  0.00  0.00    +0.000 A 
ATOM      6  C   UNL     1      46.518   6.613  11.772  0.00  0.00    +0.000 A 
ATOM      7  C   UNL     1      46.088   5.839  10.678  0.00  0.00    +0.000 A 
ATOM      8  C   UNL     1      45.256   4.711  10.845  0.00  0.00    +0.000 A 
BRANCH   8   9
ATOM      9  C   UNL     1      44.822   3.923   9.659  0.00  0.00    +0.000 C 
ATOM     10  N   UNL     1      43.863   4.461   8.849  0.00  0.00    +0.000 N 
ATOM     11  O   UNL     1      45.307   2.831   9.395  0.00  0.00    +0.000 OA
ATOM     12  H   UNL     1      43.531   5.412   8.915  0.00  0.00    +0.000 HD
ATOM     13  H   UNL     1      43.653   3.944   8.002  0.00  0.00    +0.000 HD
ENDBRANCH   8   9
BRANCH   3  15
ATOM     14  N   UNL     1      43.335   2.269  12.527  0.00  0.00    +0.000 NA
ATOM     15  C   UNL     1      44.007   3.206  12.407  0.00  0.00    +0.000 C 
ENDBRANCH   3  15
ENDBRANCH   1   6
BRANCH   1  16
ATOM     16  C   UNL     1      48.734   7.633  12.224  0.00  0.00    +0.000 C 
BRANCH  16  17
ATOM     17  C   UNL     1      48.876   8.813  13.191  0.00  0.00    +0.000 C 
BRANCH  17  18
ATOM     18  C   UNL     1      48.959   8.353  14.629  0.00  0.00    +0.000 A 
ATOM     19  C   UNL     1      48.939   9.278  15.679  0.00  0.00    +0.000 A 
ATOM     20  C   UNL     1      48.974   8.839  17.006  0.00  0.00    +0.000 A 
ATOM     21  C   UNL     1      49.028   7.474  17.304  0.00  0.00    +0.000 A 
ATOM     22  C   UNL     1      49.056   6.546  16.268  0.00  0.00    +0.000 A 
ATOM     23  C   UNL     1      49.014   6.987  14.939  0.00  0.00    +0.000 A 
BRANCH  22  24
ATOM     24  O   UNL     1      49.072   5.182  16.422  0.00  0.00    +0.000 OA
BRANCH  24  25
ATOM     25  C   UNL     1      47.828   4.445  16.438  0.00  0.00    +0.000 C 
ATOM     26  C   UNL     1      47.005   4.430  17.744  0.00  0.00    +0.000 C 
ATOM     27  N   UNL     1      46.869   2.964  17.646  0.00  0.00    +0.000 NA
ATOM     28  C   UNL     1      47.991   2.927  16.693  0.00  0.00    +0.000 C 
ATOM     29  H   UNL     1      45.982   2.652  17.249  0.00  0.00    +0.000 HD
ENDBRANCH  24  25
ENDBRANCH  22  24
ENDBRANCH  17  18
ENDBRANCH  16  17
ENDBRANCH   1  16
TORSDOF 8
ENDMDL
