MODEL 1
REMARK VINA RESULT:    -7.529      0.000      0.000
REMARK INTER + INTRA:          -9.936
REMARK INTER:                  -9.290
REMARK INTRA:                  -0.647
REMARK UNBOUND:                -0.647
REMARK  Name = 
REMARK  4 active torsions:
REMARK  status: ('A' for Active; 'I' for Inactive)
REMARK    1  A    between atoms: C_4  and  C_5
REMARK    2  A    between atoms: C_5  and  N_6
REMARK    3  A    between atoms: N_6  and  C_7
REMARK    4  A    between atoms: C_11  and  N_12
REMARK                            x       y       z     vdW  Elec       q    Type
REMARK                         _______ _______ _______ _____ _____    ______ ____
ROOT
ATOM      1  C   UNL     1      44.153   4.041  10.696  0.00  0.00    +0.000 A 
ATOM      2  C   UNL     1      42.975   4.440  11.334  0.00  0.00    +0.000 A 
ATOM      3  C   UNL     1      43.015   5.050  12.586  0.00  0.00    +0.000 A 
ATOM      4  C   UNL     1      44.235   5.222  13.241  0.00  0.00    +0.000 A 
ATOM      5  C   UNL     1      45.436   4.782  12.672  0.00  0.00    +0.000 A 
ATOM      6  C   UNL     1      45.361   4.199  11.398  0.00  0.00    +0.000 A 
ENDROOT
BRANCH   5   7
ATOM      7  N   UNL     1      46.632   4.914  13.339  0.00  0.00    +0.000 N 
ATOM      8  C   UNL     1      47.060   3.971  14.379  0.00  0.00    +0.000 C 
ATOM      9  C   UNL     1      47.483   4.767  15.621  0.00  0.00    +0.000 C 
ATOM     10  O   UNL     1      48.522   5.713  15.304  0.00  0.00    +0.000 OA
ATOM     11  C   UNL     1      48.072   6.640  14.298  0.00  0.00    +0.000 C 
ATOM     12  C   UNL     1      47.644   5.924  13.001  0.00  0.00    +0.000 C 
ENDBRANCH   5   7
BRANCH   1  13
ATOM     13  N   UNL     1      44.069   3.367   9.465  0.00  0.00    +0.000 N 
ATOM     14  H   UNL     1      43.109   3.112   9.247  0.00  0.00    +0.000 HD
BRANCH  13  15
ATOM     15  C   UNL     1      44.738   3.971   8.319  0.00  0.00    +0.000 C 
BRANCH  15  19
ATOM     16 CL   UNL     1      46.849  -0.775   7.727  0.00  0.00    +0.000 Cl
ATOM     17  C   UNL     1      46.849   0.930   7.541  0.00  0.00    +0.000 A 
ATOM     18  C   UNL     1      45.814   1.697   8.051  0.00  0.00    +0.000 A 
ATOM     19  C   UNL     1      45.859   3.078   7.853  0.00  0.00    +0.000 A 
ATOM     20  C   UNL     1      46.952   3.617   7.164  0.00  0.00    +0.000 A 
ATOM     21  C   UNL     1      47.935   2.760   6.696  0.00  0.00    +0.000 A 
ATOM     22  N   UNL     1      47.908   1.423   6.870  0.00  0.00    +0.000 NA
ENDBRANCH  15  19
ENDBRANCH  13  15
ENDBRANCH   1  13
TORSDOF 4
ENDMDL
MODEL 2
REMARK VINA RESULT:    -7.072      3.460      6.847
REMARK INTER + INTRA:          -9.373
REMARK INTER:                  -8.584
REMARK INTRA:                  -0.789
REMARK UNBOUND:                -0.647
REMARK  Name = 
REMARK  4 active torsions:
REMARK  status: ('A' for Active; 'I' for Inactive)
REMARK    1  A    between atoms: C_4  and  C_5
REMARK    2  A    between atoms: C_5  and  N_6
REMARK    3  A    between atoms: N_6  and  C_7
REMARK    4  A    between atoms: C_11  and  N_12
REMARK                            x       y       z     vdW  Elec       q    Type
REMARK                         _______ _______ _______ _____ _____    ______ ____
ROOT
ATOM      1  C   UNL     1      44.857   4.517   9.841  0.00  0.00    +0.000 A 
ATOM      2  C   UNL     1      44.013   3.541  10.380  0.00  0.00    +0.000 A 
ATOM      3  C   UNL     1      44.113   2.212   9.976  0.00  0.00    +0.000 A 
ATOM      4  C   UNL     1      45.027   1.849   8.987  0.00  0.00    +0.000 A 
ATOM      5  C   UNL     1      45.850   2.799   8.370  0.00  0.00    +0.000 A 
ATOM      6  C   UNL     1      45.743   4.123   8.823  0.00  0.00    +0.000 A 
ENDROOT
BRANCH   5   7
ATOM      7  N   UNL     1      46.721   2.446   7.365  0.00  0.00    +0.000 N 
ATOM      8  C   UNL     1      47.124   3.384   6.310  0.00  0.00    +0.000 C 
ATOM      9  C   UNL     1      46.927   2.706   4.947  0.00  0.00    +0.000 C 
ATOM     10  O   UNL     1      47.666   1.473   4.869  0.00  0.00    +0.000 OA
ATOM     11  C   UNL     1      47.238   0.561   5.899  0.00  0.00    +0.000 C 
ATOM     12  C   UNL     1      47.419   1.155   7.310  0.00  0.00    +0.000 C 
ENDBRANCH   5   7
BRANCH   1  13
ATOM     13  N   UNL     1      44.681   5.859  10.221  0.00  0.00    +0.000 N 
ATOM     14  H   UNL     1      44.006   6.328   9.622  0.00  0.00    +0.000 HD
BRANCH  13  15
ATOM     15  C   UNL     1      44.430   6.132  11.630  0.00  0.00    +0.000 C 
BRANCH  15  19
ATOM     16 CL   UNL     1      47.252   4.014  15.489  0.00  0.00    +0.000 Cl
ATOM     17  C   UNL     1      47.046   5.058  14.144  0.00  0.00    +0.000 A 
ATOM     18  C   UNL     1      45.818   5.164  13.512  0.00  0.00    +0.000 A 
ATOM     19  C   UNL     1      45.715   6.015  12.410  0.00  0.00    +0.000 A 
ATOM     20  C   UNL     1      46.852   6.726  12.010  0.00  0.00    +0.000 A 
ATOM     21  C   UNL     1      48.033   6.548  12.712  0.00  0.00    +0.000 A 
ATOM     22  N   UNL     1      48.156   5.726  13.774  0.00  0.00    +0.000 NA
ENDBRANCH  15  19
ENDBRANCH  13  15
ENDBRANCH   1  13
TORSDOF 4
ENDMDL
MODEL 3
REMARK VINA RESULT:    -7.049      1.547      1.988
REMARK INTER + INTRA:          -9.344
REMARK INTER:                  -8.726
REMARK INTRA:                  -0.617
REMARK UNBOUND:                -0.647
REMARK  Name = 
REMARK  4 active torsions:
REMARK  status: ('A' for Active; 'I' for Inactive)
REMARK    1  A    between atoms: C_4  and  C_5
REMARK    2  A    between atoms: C_5  and  N_6
REMARK    3  A    between atoms: N_6  and  C_7
REMARK    4  A    between atoms: C_11  and  N_12
REMARK                            x       y       z     vdW  Elec       q    Type
REMARK                         _______ _______ _______ _____ _____    ______ ____
ROOT
ATOM      1  C   UNL     1      44.373   4.045  10.416  0.00  0.00    +0.000 A 
ATOM      2  C   UNL     1      43.548   3.420  11.356  0.00  0.00    +0.000 A 
ATOM      3  C   UNL     1      43.519   3.855  12.680  0.00  0.00    +0.000 A 
ATOM      4  C   UNL     1      44.358   4.891  13.093  0.00  0.00    +0.000 A 
ATOM      5  C   UNL     1      45.248   5.506  12.206  0.00  0.00    +0.000 A 
ATOM      6  C   UNL     1      45.229   5.063  10.874  0.00  0.00    +0.000 A 
ENDROOT
BRANCH   5   7
ATOM      7  N   UNL     1      46.104   6.498  12.625  0.00  0.00    +0.000 N 
ATOM      8  C   UNL     1      45.650   7.870  12.882  0.00  0.00    +0.000 C 
ATOM      9  C   UNL     1      46.571   8.842  12.133  0.00  0.00    +0.000 C 
ATOM     10  O   UNL     1      47.946   8.659  12.520  0.00  0.00    +0.000 OA
ATOM     11  C   UNL     1      48.375   7.313  12.238  0.00  0.00    +0.000 C 
ATOM     12  C   UNL     1      47.513   6.265  12.970  0.00  0.00    +0.000 C 
ENDBRANCH   5   7
BRANCH   1  13
ATOM     13  N   UNL     1      44.426   3.536   9.108  0.00  0.00    +0.000 N 
ATOM     14  H   UNL     1      43.497   3.469   8.698  0.00  0.00    +0.000 HD
BRANCH  13  15
ATOM     15  C   UNL     1      45.376   4.144   8.185  0.00  0.00    +0.000 C 
BRANCH  15  19
ATOM     16 CL   UNL     1      46.910  -0.836   7.757  0.00  0.00    +0.000 Cl
ATOM     17  C   UNL     1      46.896   0.806   7.259  0.00  0.00    +0.000 A 
ATOM     18  C   UNL     1      46.177   1.754   7.969  0.00  0.00    +0.000 A 
ATOM     19  C   UNL     1      46.187   3.070   7.506  0.00  0.00    +0.000 A 
ATOM     20  C   UNL     1      46.933   3.367   6.360  0.00  0.00    +0.000 A 
ATOM     21  C   UNL     1      47.619   2.344   5.724  0.00  0.00    +0.000 A 
ATOM     22  N   UNL     1      47.616   1.064   6.150  0.00  0.00    +0.000 NA
ENDBRANCH  15  19
ENDBRANCH  13  15
ENDBRANCH   1  13
TORSDOF 4
ENDMDL
MODEL 4
REMARK VINA RESULT:    -6.943      2.260      3.004
REMARK INTER + INTRA:          -9.214
REMARK INTER:                  -8.482
REMARK INTRA:                  -0.732
REMARK UNBOUND:                -0.647
REMARK  Name = 
REMARK  4 active torsions:
REMARK  status: ('A' for Active; 'I' for Inactive)
REMARK    1  A    between atoms: C_4  and  C_5
REMARK    2  A    between atoms: C_5  and  N_6
REMARK    3  A    between atoms: N_6  and  C_7
REMARK    4  A    between atoms: C_11  and  N_12
REMARK                            x       y       z     vdW  Elec       q    Type
REMARK                         _______ _______ _______ _____ _____    ______ ____
ROOT
ATOM      1  C   UNL     1      45.172   3.858  12.039  0.00  0.00    +0.000 A 
ATOM      2  C   UNL     1      46.032   3.323  13.003  0.00  0.00    +0.000 A 
ATOM      3  C   UNL     1      46.916   4.142  13.703  0.00  0.00    +0.000 A 
ATOM      4  C   UNL     1      46.988   5.504  13.409  0.00  0.00    +0.000 A 
ATOM      5  C   UNL     1      46.194   6.077  12.409  0.00  0.00    +0.000 A 
ATOM      6  C   UNL     1      45.294   5.228  11.745  0.00  0.00    +0.000 A 
ENDROOT
BRANCH   5   7
ATOM      7  N   UNL     1      46.297   7.412  12.091  0.00  0.00    +0.000 N 
ATOM      8  C   UNL     1      47.583   8.120  12.083  0.00  0.00    +0.000 C 
ATOM      9  C   UNL     1      47.443   9.405  12.910  0.00  0.00    +0.000 C 
ATOM     10  O   UNL     1      46.379  10.234  12.406  0.00  0.00    +0.000 OA
ATOM     11  C   UNL     1      45.125   9.526  12.445  0.00  0.00    +0.000 C 
ATOM     12  C   UNL     1      45.169   8.225  11.620  0.00  0.00    +0.000 C 
ENDBRANCH   5   7
BRANCH   1  13
ATOM     13  N   UNL     1      44.344   2.992  11.306  0.00  0.00    +0.000 N 
ATOM     14  H   UNL     1      43.533   2.705  11.851  0.00  0.00    +0.000 HD
BRANCH  13  15
ATOM     15  C   UNL     1      43.968   3.398   9.958  0.00  0.00    +0.000 C 
BRANCH  15  19
ATOM     16 CL   UNL     1      46.927  -0.196   7.579  0.00  0.00    +0.000 Cl
ATOM     17  C   UNL     1      46.417   1.417   7.862  0.00  0.00    +0.000 A 
ATOM     18  C   UNL     1      45.450   1.695   8.815  0.00  0.00    +0.000 A 
ATOM     19  C   UNL     1      45.061   3.024   8.989  0.00  0.00    +0.000 A 
ATOM     20  C   UNL     1      45.677   4.007   8.205  0.00  0.00    +0.000 A 
ATOM     21  C   UNL     1      46.634   3.621   7.280  0.00  0.00    +0.000 A 
ATOM     22  N   UNL     1      47.019   2.342   7.091  0.00  0.00    +0.000 NA
ENDBRANCH  15  19
ENDBRANCH  13  15
ENDBRANCH   1  13
TORSDOF 4
ENDMDL
MODEL 5
REMARK VINA RESULT:    -6.594      3.388      6.415
REMARK INTER + INTRA:          -8.783
REMARK INTER:                  -7.908
REMARK INTRA:                  -0.875
REMARK UNBOUND:                -0.647
REMARK  Name = 
REMARK  4 active torsions:
REMARK  status: ('A' for Active; 'I' for Inactive)
REMARK    1  A    between atoms: C_4  and  C_5
REMARK    2  A    between atoms: C_5  and  N_6
REMARK    3  A    between atoms: N_6  and  C_7
REMARK    4  A    between atoms: C_11  and  N_12
REMARK                            x       y       z     vdW  Elec       q    Type
REMARK                         _______ _______ _______ _____ _____    ______ ____
ROOT
ATOM      1  C   UNL     1      44.471   5.139  10.557  0.00  0.00    +0.000 A 
ATOM      2  C   UNL     1      43.682   4.310  11.361  0.00  0.00    +0.000 A 
ATOM      3  C   UNL     1      43.634   2.936  11.135  0.00  0.00    +0.000 A 
ATOM      4  C   UNL     1      44.336   2.379  10.066  0.00  0.00    +0.000 A 
ATOM      5  C   UNL     1      45.088   3.174   9.194  0.00  0.00    +0.000 A 
ATOM      6  C   UNL     1      45.138   4.550   9.469  0.00  0.00    +0.000 A 
ENDROOT
BRANCH   5   7
ATOM      7  N   UNL     1      45.745   2.627   8.115  0.00  0.00    +0.000 N 
ATOM      8  C   UNL     1      45.871   1.177   7.925  0.00  0.00    +0.000 C 
ATOM      9  C   UNL     1      47.345   0.842   7.658  0.00  0.00    +0.000 C 
ATOM     10  O   UNL     1      47.846   1.571   6.522  0.00  0.00    +0.000 OA
ATOM     11  C   UNL     1      47.733   2.989   6.741  0.00  0.00    +0.000 C 
ATOM     12  C   UNL     1      46.275   3.421   6.999  0.00  0.00    +0.000 C 
ENDBRANCH   5   7
BRANCH   1  13
ATOM     13  N   UNL     1      44.441   6.528  10.772  0.00  0.00    +0.000 N 
ATOM     14  H   UNL     1      43.595   6.944  10.389  0.00  0.00    +0.000 HD
BRANCH  13  15
ATOM     15  C   UNL     1      44.713   7.007  12.121  0.00  0.00    +0.000 C 
BRANCH  15  19
ATOM     16 CL   UNL     1      49.862   7.706  11.539  0.00  0.00    +0.000 Cl
ATOM     17  C   UNL     1      48.493   6.990  12.285  0.00  0.00    +0.000 A 
ATOM     18  C   UNL     1      47.213   7.283  11.843  0.00  0.00    +0.000 A 
ATOM     19  C   UNL     1      46.137   6.686  12.500  0.00  0.00    +0.000 A 
ATOM     20  C   UNL     1      46.405   5.812  13.560  0.00  0.00    +0.000 A 
ATOM     21  C   UNL     1      47.724   5.585  13.922  0.00  0.00    +0.000 A 
ATOM     22  N   UNL     1      48.778   6.158  13.306  0.00  0.00    +0.000 NA
ENDBRANCH  15  19
ENDBRANCH  13  15
ENDBRANCH   1  13
TORSDOF 4
ENDMDL
MODEL 6
REMARK VINA RESULT:    -6.485      1.963      3.026
REMARK INTER + INTRA:          -8.648
REMARK INTER:                  -7.962
REMARK INTRA:                  -0.687
REMARK UNBOUND:                -0.647
REMARK  Name = 
REMARK  4 active torsions:
REMARK  status: ('A' for Active; 'I' for Inactive)
REMARK    1  A    between atoms: C_4  and  C_5
REMARK    2  A    between atoms: C_5  and  N_6
REMARK    3  A    between atoms: N_6  and  C_7
REMARK    4  A    between atoms: C_11  and  N_12
REMARK                            x       y       z     vdW  Elec       q    Type
REMARK                         _______ _______ _______ _____ _____    ______ ____
ROOT
ATOM      1  C   UNL     1      45.403   5.348  12.207  0.00  0.00    +0.000 A 
ATOM      2  C   UNL     1      46.013   6.386  11.495  0.00  0.00    +0.000 A 
ATOM      3  C   UNL     1      47.212   6.942  11.936  0.00  0.00    +0.000 A 
ATOM      4  C   UNL     1      47.791   6.502  13.126  0.00  0.00    +0.000 A 
ATOM      5  C   UNL     1      47.187   5.511  13.908  0.00  0.00    +0.000 A 
ATOM      6  C   UNL     1      45.996   4.951  13.419  0.00  0.00    +0.000 A 
ENDROOT
BRANCH   5   7
ATOM      7  N   UNL     1      47.738   5.108  15.103  0.00  0.00    +0.000 N 
ATOM      8  C   UNL     1      47.517   3.766  15.656  0.00  0.00    +0.000 C 
ATOM      9  C   UNL     1      47.064   3.904  17.116  0.00  0.00    +0.000 C 
ATOM     10  O   UNL     1      48.025   4.645  17.891  0.00  0.00    +0.000 OA
ATOM     11  C   UNL     1      48.208   5.964  17.342  0.00  0.00    +0.000 C 
ATOM     12  C   UNL     1      48.685   5.921  15.877  0.00  0.00    +0.000 C 
ENDBRANCH   5   7
BRANCH   1  13
ATOM     13  N   UNL     1      44.161   4.858  11.770  0.00  0.00    +0.000 N 
ATOM     14  H   UNL     1      43.407   5.158  12.384  0.00  0.00    +0.000 HD
BRANCH  13  15
ATOM     15  C   UNL     1      43.817   5.048  10.367  0.00  0.00    +0.000 C 
BRANCH  15  19
ATOM     16 CL   UNL     1      46.870   3.613   6.372  0.00  0.00    +0.000 Cl
ATOM     17  C   UNL     1      45.881   3.281   7.733  0.00  0.00    +0.000 A 
ATOM     18  C   UNL     1      45.254   4.309   8.419  0.00  0.00    +0.000 A 
ATOM     19  C   UNL     1      44.476   3.980   9.530  0.00  0.00    +0.000 A 
ATOM     20  C   UNL     1      44.357   2.632   9.885  0.00  0.00    +0.000 A 
ATOM     21  C   UNL     1      45.025   1.681   9.130  0.00  0.00    +0.000 A 
ATOM     22  N   UNL     1      45.788   1.977   8.058  0.00  0.00    +0.000 NA
ENDBRANCH  15  19
ENDBRANCH  13  15
ENDBRANCH   1  13
TORSDOF 4
ENDMDL
MODEL 7
REMARK VINA RESULT:    -6.413      2.331      3.339
REMARK INTER + INTRA:          -8.560
REMARK INTER:                  -7.853
REMARK INTRA:                  -0.707
REMARK UNBOUND:                -0.647
REMARK  Name = 
REMARK  4 active torsions:
REMARK  status: ('A' for Active; 'I' for Inactive)
REMARK    1  A    between atoms: C_4  and  C_5
REMARK    2  A    between atoms: C_5  and  N_6
REMARK    3  A    between atoms: N_6  and  C_7
REMARK    4  A    between atoms: C_11  and  N_12
REMARK                            x       y       z     vdW  Elec       q    Type
REMARK                         _______ _______ _______ _____ _____    ______ ____
ROOT
ATOM      1  C   UNL     1      45.523   5.872  11.753  0.00  0.00    +0.000 A 
ATOM      2  C   UNL     1      45.233   4.892  12.706  0.00  0.00    +0.000 A 
ATOM      3  C   UNL     1      46.084   4.676  13.788  0.00  0.00    +0.000 A 
ATOM      4  C   UNL     1      47.268   5.406  13.902  0.00  0.00    +0.000 A 
ATOM      5  C   UNL     1      47.635   6.354  12.940  0.00  0.00    +0.000 A 
ATOM      6  C   UNL     1      46.740   6.566  11.880  0.00  0.00    +0.000 A 
ENDROOT
BRANCH   5   7
ATOM      7  N   UNL     1      48.823   7.042  13.032  0.00  0.00    +0.000 N 
ATOM      8  C   UNL     1      49.441   7.372  14.322  0.00  0.00    +0.000 C 
ATOM      9  C   UNL     1      49.785   8.868  14.335  0.00  0.00    +0.000 C 
ATOM     10  O   UNL     1      50.644   9.213  13.233  0.00  0.00    +0.000 OA
ATOM     11  C   UNL     1      50.007   8.902  11.979  0.00  0.00    +0.000 C 
ATOM     12  C   UNL     1      49.644   7.407  11.870  0.00  0.00    +0.000 C 
ENDBRANCH   5   7
BRANCH   1  13
ATOM     13  N   UNL     1      44.678   6.015  10.640  0.00  0.00    +0.000 N 
ATOM     14  H   UNL     1      45.199   6.291   9.811  0.00  0.00    +0.000 HD
BRANCH  13  15
ATOM     15  C   UNL     1      43.752   4.926  10.353  0.00  0.00    +0.000 C 
BRANCH  15  19
ATOM     16 CL   UNL     1      46.818   3.654   6.313  0.00  0.00    +0.000 Cl
ATOM     17  C   UNL     1      45.842   3.268   7.670  0.00  0.00    +0.000 A 
ATOM     18  C   UNL     1      45.195   4.265   8.382  0.00  0.00    +0.000 A 
ATOM     19  C   UNL     1      44.430   3.893   9.489  0.00  0.00    +0.000 A 
ATOM     20  C   UNL     1      44.344   2.534   9.813  0.00  0.00    +0.000 A 
ATOM     21  C   UNL     1      45.030   1.617   9.033  0.00  0.00    +0.000 A 
ATOM     22  N   UNL     1      45.781   1.955   7.965  0.00  0.00    +0.000 NA
ENDBRANCH  15  19
ENDBRANCH  13  15
ENDBRANCH   1  13
TORSDOF 4
ENDMDL
MODEL 8
REMARK VINA RESULT:    -6.331      3.903      7.658
REMARK INTER + INTRA:          -8.458
REMARK INTER:                  -7.909
REMARK INTRA:                  -0.549
REMARK UNBOUND:                -0.647
REMARK  Name = 
REMARK  4 active torsions:
REMARK  status: ('A' for Active; 'I' for Inactive)
REMARK    1  A    between atoms: C_4  and  C_5
REMARK    2  A    between atoms: C_5  and  N_6
REMARK    3  A    between atoms: N_6  and  C_7
REMARK    4  A    between atoms: C_11  and  N_12
REMARK                            x       y       z     vdW  Elec       q    Type
REMARK                         _______ _______ _______ _____ _____    ______ ____
ROOT
ATOM      1  C   UNL     1      46.953   4.551  14.474  0.00  0.00    +0.000 A 
ATOM      2  C   UNL     1      47.656   5.760  14.459  0.00  0.00    +0.000 A 
ATOM      3  C   UNL     1      47.500   6.661  13.408  0.00  0.00    +0.000 A 
ATOM      4  C   UNL     1      46.677   6.341  12.329  0.00  0.00    +0.000 A 
ATOM      5  C   UNL     1      46.002   5.116  12.265  0.00  0.00    +0.000 A 
ATOM      6  C   UNL     1      46.158   4.245  13.355  0.00  0.00    +0.000 A 
ENDROOT
BRANCH   5   7
ATOM      7  N   UNL     1      45.224   4.785  11.180  0.00  0.00    +0.000 N 
ATOM      8  C   UNL     1      44.089   3.859  11.281  0.00  0.00    +0.000 C 
ATOM      9  C   UNL     1      44.223   2.794  10.185  0.00  0.00    +0.000 C 
ATOM     10  O   UNL     1      44.300   3.397   8.880  0.00  0.00    +0.000 OA
ATOM     11  C   UNL     1      45.433   4.282   8.798  0.00  0.00    +0.000 C 
ATOM     12  C   UNL     1      45.370   5.402   9.855  0.00  0.00    +0.000 C 
ENDBRANCH   5   7
BRANCH   1  13
ATOM     13  N   UNL     1      47.187   3.637  15.515  0.00  0.00    +0.000 N 
ATOM     14  H   UNL     1      47.874   2.937  15.246  0.00  0.00    +0.000 HD
BRANCH  13  15
ATOM     15  C   UNL     1      47.463   4.180  16.839  0.00  0.00    +0.000 C 
BRANCH  15  19
ATOM     16 CL   UNL     1      51.590   1.037  17.490  0.00  0.00    +0.000 Cl
ATOM     17  C   UNL     1      50.830   2.575  17.470  0.00  0.00    +0.000 A 
ATOM     18  C   UNL     1      49.475   2.690  17.206  0.00  0.00    +0.000 A 
ATOM     19  C   UNL     1      48.916   3.969  17.185  0.00  0.00    +0.000 A 
ATOM     20  C   UNL     1      49.747   5.064  17.444  0.00  0.00    +0.000 A 
ATOM     21  C   UNL     1      51.090   4.838  17.699  0.00  0.00    +0.000 A 
ATOM     22  N   UNL     1      51.653   3.613  17.717  0.00  0.00    +0.000 NA
ENDBRANCH  15  19
ENDBRANCH  13  15
ENDBRANCH   1  13
TORSDOF 4
ENDMDL
MODEL 9
REMARK VINA RESULT:    -6.257      4.199      7.762
REMARK INTER + INTRA:          -8.366
REMARK INTER:                  -7.786
REMARK INTRA:                  -0.581
REMARK UNBOUND:                -0.647
REMARK  Name = 
REMARK  4 active torsions:
REMARK  status: ('A' for Active; 'I' for Inactive)
REMARK    1  A    between atoms: C_4  and  C_5
REMARK    2  A    between atoms: C_5  and  N_6
REMARK    3  A    between atoms: N_6  and  C_7
REMARK    4  A    between atoms: C_11  and  N_12
REMARK                            x       y       z     vdW  Elec       q    Type
REMARK                         _______ _______ _______ _____ _____    ______ ____
ROOT
ATOM      1  C   UNL     1      46.738   4.580  14.263  0.00  0.00    +0.000 A 
ATOM      2  C   UNL     1      47.450   5.783  14.249  0.00  0.00    +0.000 A 
ATOM      3  C   UNL     1      47.374   6.644  13.156  0.00  0.00    +0.000 A 
ATOM      4  C   UNL     1      46.622   6.285  12.036  0.00  0.00    +0.000 A 
ATOM      5  C   UNL     1      45.943   5.064  11.974  0.00  0.00    +0.000 A 
ATOM      6  C   UNL     1      46.017   4.235  13.106  0.00  0.00    +0.000 A 
ENDROOT
BRANCH   5   7
ATOM      7  N   UNL     1      45.237   4.694  10.853  0.00  0.00    +0.000 N 
ATOM      8  C   UNL     1      44.086   3.785  10.914  0.00  0.00    +0.000 C 
ATOM      9  C   UNL     1      44.281   2.672   9.875  0.00  0.00    +0.000 C 
ATOM     10  O   UNL     1      44.455   3.219   8.554  0.00  0.00    +0.000 OA
ATOM     11  C   UNL     1      45.602   4.089   8.514  0.00  0.00    +0.000 C 
ATOM     12  C   UNL     1      45.481   5.253   9.517  0.00  0.00    +0.000 C 
ENDBRANCH   5   7
BRANCH   1  13
ATOM     13  N   UNL     1      46.893   3.707  15.352  0.00  0.00    +0.000 N 
ATOM     14  H   UNL     1      47.443   2.889  15.097  0.00  0.00    +0.000 HD
BRANCH  13  15
ATOM     15  C   UNL     1      47.337   4.279  16.617  0.00  0.00    +0.000 C 
BRANCH  15  19
ATOM     16 CL   UNL     1      52.198   5.176  18.320  0.00  0.00    +0.000 Cl
ATOM     17  C   UNL     1      50.953   4.158  17.725  0.00  0.00    +0.000 A 
ATOM     18  C   UNL     1      49.712   4.678  17.394  0.00  0.00    +0.000 A 
ATOM     19  C   UNL     1      48.731   3.799  16.933  0.00  0.00    +0.000 A 
ATOM     20  C   UNL     1      49.055   2.442  16.815  0.00  0.00    +0.000 A 
ATOM     21  C   UNL     1      50.328   2.025  17.172  0.00  0.00    +0.000 A 
ATOM     22  N   UNL     1      51.287   2.857  17.627  0.00  0.00    +0.000 NA
ENDBRANCH  15  19
ENDBRANCH  13  15
ENDBRANCH   1  13
TORSDOF 4
ENDMDL
