MODEL 1
REMARK VINA RESULT:    -7.869      0.000      0.000
REMARK INTER + INTRA:         -10.817
REMARK INTER:                 -10.169
REMARK INTRA:                  -0.648
REMARK UNBOUND:                -0.648
REMARK  Name = 
REMARK  5 active torsions:
REMARK  status: ('A' for Active; 'I' for Inactive)
REMARK    1  A    between atoms: C_2  and  C_3
REMARK    2  A    between atoms: C_7  and  N_8
REMARK    3  A    between atoms: N_8  and  C_9
REMARK    4  A    between atoms: C_9  and  C_10
REMARK    5  A    between atoms: C_14  and  C_15
REMARK                            x       y       z     vdW  Elec       q    Type
REMARK                         _______ _______ _______ _____ _____    ______ ____
ROOT
ATOM      1  C   UNL     1      43.743   4.892  11.526  0.00  0.00    +0.000 C 
ATOM      2  C   UNL     1      42.424   5.364  12.141  0.00  0.00    +0.000 C 
ATOM      3  C   UNL     1      43.102   6.202  11.114  0.00  0.00    +0.000 C 
ENDROOT
BRANCH   1   4
ATOM      4  C   UNL     1      44.965   4.960  12.435  0.00  0.00    +0.000 A 
ATOM      5  C   UNL     1      45.620   3.800  12.871  0.00  0.00    +0.000 A 
ATOM      6  C   UNL     1      46.811   3.876  13.587  0.00  0.00    +0.000 A 
ATOM      7  C   UNL     1      47.382   5.117  13.856  0.00  0.00    +0.000 A 
ATOM      8  C   UNL     1      46.767   6.303  13.440  0.00  0.00    +0.000 A 
ATOM      9  C   UNL     1      45.529   6.201  12.794  0.00  0.00    +0.000 A 
BRANCH   8  10
ATOM     10  C   UNL     1      47.423   7.675  13.558  0.00  0.00    +0.000 C 
ATOM     11  C   UNL     1      47.643   8.334  12.183  0.00  0.00    +0.000 C 
ATOM     12  C   UNL     1      48.877   7.796  11.459  0.00  0.00    +0.000 C 
ATOM     13  C   UNL     1      50.106   7.716  12.368  0.00  0.00    +0.000 C 
ATOM     14  N   UNL     1      49.852   7.074  13.656  0.00  0.00    +0.000 NA
ATOM     15  C   UNL     1      48.730   7.690  14.367  0.00  0.00    +0.000 C 
ATOM     16  H   UNL     1      50.688   7.118  14.238  0.00  0.00    +0.000 HD
ENDBRANCH   8  10
ENDBRANCH   1   4
BRANCH   1  17
ATOM     17  N   UNL     1      43.681   3.666  10.692  0.00  0.00    +0.000 N 
ATOM     18  H   UNL     1      43.584   2.827  11.264  0.00  0.00    +0.000 HD
BRANCH  17  23
ATOM     19  C   UNL     1      45.968   2.020   8.223  0.00  0.00    +0.000 A 
ATOM     20  C   UNL     1      46.408   3.158   7.570  0.00  0.00    +0.000 A 
ATOM     21  N   UNL     1      45.981   4.403   7.867  0.00  0.00    +0.000 NA
ATOM     22  C   UNL     1      45.077   4.505   8.875  0.00  0.00    +0.000 A 
ATOM     23  C   UNL     1      44.546   3.431   9.600  0.00  0.00    +0.000 A 
ATOM     24  C   UNL     1      45.021   2.163   9.244  0.00  0.00    +0.000 A 
BRANCH  19  26
ATOM     25  N   UNL     1      46.915  -0.304   7.591  0.00  0.00    +0.000 NA
ATOM     26  C   UNL     1      46.492   0.739   7.878  0.00  0.00    +0.000 C 
ENDBRANCH  19  26
ENDBRANCH  17  23
ENDBRANCH   1  17
TORSDOF 5
ENDMDL
MODEL 2
REMARK VINA RESULT:    -6.903      1.251      2.019
REMARK INTER + INTRA:          -9.569
REMARK INTER:                  -8.862
REMARK INTRA:                  -0.707
REMARK UNBOUND:                -0.648
REMARK  Name = 
REMARK  5 active torsions:
REMARK  status: ('A' for Active; 'I' for Inactive)
REMARK    1  A    between atoms: C_2  and  C_3
REMARK    2  A    between atoms: C_7  and  N_8
REMARK    3  A    between atoms: N_8  and  C_9
REMARK    4  A    between atoms: C_9  and  C_10
REMARK    5  A    between atoms: C_14  and  C_15
REMARK                            x       y       z     vdW  Elec       q    Type
REMARK                         _______ _______ _______ _____ _____    ______ ____
ROOT
ATOM      1  C   UNL     1      43.939   5.294  11.883  0.00  0.00    +0.000 C 
ATOM      2  C   UNL     1      42.886   5.096  12.974  0.00  0.00    +0.000 C 
ATOM      3  C   UNL     1      42.458   5.399  11.580  0.00  0.00    +0.000 C 
ENDROOT
BRANCH   1   4
ATOM      4  C   UNL     1      44.738   6.591  11.954  0.00  0.00    +0.000 A 
ATOM      5  C   UNL     1      44.263   7.776  11.374  0.00  0.00    +0.000 A 
ATOM      6  C   UNL     1      44.932   8.982  11.560  0.00  0.00    +0.000 A 
ATOM      7  C   UNL     1      46.075   9.028  12.354  0.00  0.00    +0.000 A 
ATOM      8  C   UNL     1      46.586   7.873  12.956  0.00  0.00    +0.000 A 
ATOM      9  C   UNL     1      45.941   6.660  12.685  0.00  0.00    +0.000 A 
BRANCH   8  10
ATOM     10  C   UNL     1      47.730   7.887  13.965  0.00  0.00    +0.000 C 
ATOM     11  C   UNL     1      48.516   9.211  13.933  0.00  0.00    +0.000 C 
ATOM     12  C   UNL     1      49.519   9.276  12.782  0.00  0.00    +0.000 C 
ATOM     13  C   UNL     1      50.352   7.999  12.651  0.00  0.00    +0.000 C 
ATOM     14  N   UNL     1      49.562   6.769  12.676  0.00  0.00    +0.000 NA
ATOM     15  C   UNL     1      48.694   6.695  13.852  0.00  0.00    +0.000 C 
ATOM     16  H   UNL     1      50.179   5.958  12.658  0.00  0.00    +0.000 HD
ENDBRANCH   8  10
ENDBRANCH   1   4
BRANCH   1  17
ATOM     17  N   UNL     1      44.754   4.105  11.528  0.00  0.00    +0.000 N 
ATOM     18  H   UNL     1      45.551   3.996  12.154  0.00  0.00    +0.000 HD
BRANCH  17  23
ATOM     19  C   UNL     1      45.914   2.270   8.476  0.00  0.00    +0.000 A 
ATOM     20  C   UNL     1      45.999   3.349   7.614  0.00  0.00    +0.000 A 
ATOM     21  N   UNL     1      45.673   4.611   7.963  0.00  0.00    +0.000 NA
ATOM     22  C   UNL     1      45.253   4.794   9.241  0.00  0.00    +0.000 A 
ATOM     23  C   UNL     1      45.110   3.783  10.200  0.00  0.00    +0.000 A 
ATOM     24  C   UNL     1      45.457   2.493   9.780  0.00  0.00    +0.000 A 
BRANCH  19  26
ATOM     25  N   UNL     1      46.635  -0.093   7.704  0.00  0.00    +0.000 NA
ATOM     26  C   UNL     1      46.311   0.969   8.046  0.00  0.00    +0.000 C 
ENDBRANCH  19  26
ENDBRANCH  17  23
ENDBRANCH   1  17
TORSDOF 5
ENDMDL
MODEL 3
REMARK VINA RESULT:    -6.402      2.695      5.107
REMARK INTER + INTRA:          -8.921
REMARK INTER:                  -8.507
REMARK INTRA:                  -0.414
REMARK UNBOUND:                -0.648
REMARK  Name = 
REMARK  5 active torsions:
REMARK  status: ('A' for Active; 'I' for Inactive)
REMARK    1  A    between atoms: C_2  and  C_3
REMARK    2  A    between atoms: C_7  and  N_8
REMARK    3  A    between atoms: N_8  and  C_9
REMARK    4  A    between atoms: C_9  and  C_10
REMARK    5  A    between atoms: C_14  and  C_15
REMARK                            x       y       z     vdW  Elec       q    Type
REMARK                         _______ _______ _______ _____ _____    ______ ____
ROOT
ATOM      1  C   UNL     1      47.401   7.520  13.131  0.00  0.00    +0.000 C 
ATOM      2  C   UNL     1      47.435   8.989  12.708  0.00  0.00    +0.000 C 
ATOM      3  C   UNL     1      47.961   7.943  11.787  0.00  0.00    +0.000 C 
ENDROOT
BRANCH   1   4
ATOM      4  C   UNL     1      48.397   7.113  14.212  0.00  0.00    +0.000 A 
ATOM      5  C   UNL     1      49.569   7.847  14.441  0.00  0.00    +0.000 A 
ATOM      6  C   UNL     1      50.401   7.549  15.516  0.00  0.00    +0.000 A 
ATOM      7  C   UNL     1      50.060   6.527  16.397  0.00  0.00    +0.000 A 
ATOM      8  C   UNL     1      48.899   5.768  16.212  0.00  0.00    +0.000 A 
ATOM      9  C   UNL     1      48.123   6.035  15.077  0.00  0.00    +0.000 A 
BRANCH   8  10
ATOM     10  C   UNL     1      48.387   4.753  17.229  0.00  0.00    +0.000 C 
ATOM     11  C   UNL     1      49.505   4.253  18.164  0.00  0.00    +0.000 C 
ATOM     12  C   UNL     1      50.380   3.180  17.520  0.00  0.00    +0.000 C 
ATOM     13  C   UNL     1      49.563   2.095  16.815  0.00  0.00    +0.000 C 
ATOM     14  N   UNL     1      48.522   2.616  15.930  0.00  0.00    +0.000 NA
ATOM     15  C   UNL     1      47.637   3.559  16.616  0.00  0.00    +0.000 C 
ATOM     16  H   UNL     1      47.970   1.848  15.551  0.00  0.00    +0.000 HD
ENDBRANCH   8  10
ENDBRANCH   1   4
BRANCH   1  17
ATOM     17  N   UNL     1      46.057   6.909  13.289  0.00  0.00    +0.000 N 
ATOM     18  H   UNL     1      45.770   6.883  14.267  0.00  0.00    +0.000 HD
BRANCH  17  23
ATOM     19  C   UNL     1      45.142   4.439  10.626  0.00  0.00    +0.000 A 
ATOM     20  C   UNL     1      44.650   3.437  11.444  0.00  0.00    +0.000 A 
ATOM     21  N   UNL     1      44.633   3.513  12.791  0.00  0.00    +0.000 NA
ATOM     22  C   UNL     1      45.124   4.654  13.336  0.00  0.00    +0.000 A 
ATOM     23  C   UNL     1      45.661   5.730  12.618  0.00  0.00    +0.000 A 
ATOM     24  C   UNL     1      45.658   5.594  11.225  0.00  0.00    +0.000 A 
BRANCH  19  26
ATOM     25  N   UNL     1      45.051   4.186   8.052  0.00  0.00    +0.000 NA
ATOM     26  C   UNL     1      45.093   4.304   9.207  0.00  0.00    +0.000 C 
ENDBRANCH  19  26
ENDBRANCH  17  23
ENDBRANCH   1  17
TORSDOF 5
ENDMDL
MODEL 4
REMARK VINA RESULT:    -6.212      2.635      6.736
REMARK INTER + INTRA:          -8.675
REMARK INTER:                  -7.837
REMARK INTRA:                  -0.838
REMARK UNBOUND:                -0.648
REMARK  Name = 
REMARK  5 active torsions:
REMARK  status: ('A' for Active; 'I' for Inactive)
REMARK    1  A    between atoms: C_2  and  C_3
REMARK    2  A    between atoms: C_7  and  N_8
REMARK    3  A    between atoms: N_8  and  C_9
REMARK    4  A    between atoms: C_9  and  C_10
REMARK    5  A    between atoms: C_14  and  C_15
REMARK                            x       y       z     vdW  Elec       q    Type
REMARK                         _______ _______ _______ _____ _____    ______ ____
ROOT
ATOM      1  C   UNL     1      47.923   7.516  12.551  0.00  0.00    +0.000 C 
ATOM      2  C   UNL     1      49.438   7.507  12.766  0.00  0.00    +0.000 C 
ATOM      3  C   UNL     1      48.887   7.731  11.400  0.00  0.00    +0.000 C 
ENDROOT
BRANCH   1   4
ATOM      4  C   UNL     1      47.228   6.161  12.644  0.00  0.00    +0.000 A 
ATOM      5  C   UNL     1      47.451   5.298  13.725  0.00  0.00    +0.000 A 
ATOM      6  C   UNL     1      46.712   4.127  13.870  0.00  0.00    +0.000 A 
ATOM      7  C   UNL     1      45.717   3.814  12.946  0.00  0.00    +0.000 A 
ATOM      8  C   UNL     1      45.457   4.646  11.852  0.00  0.00    +0.000 A 
ATOM      9  C   UNL     1      46.270   5.774  11.686  0.00  0.00    +0.000 A 
BRANCH   8  10
ATOM     10  C   UNL     1      44.277   4.446  10.906  0.00  0.00    +0.000 C 
ATOM     11  C   UNL     1      44.063   2.962  10.551  0.00  0.00    +0.000 C 
ATOM     12  C   UNL     1      45.024   2.466   9.473  0.00  0.00    +0.000 C 
ATOM     13  C   UNL     1      45.131   3.428   8.288  0.00  0.00    +0.000 C 
ATOM     14  N   UNL     1      45.345   4.822   8.672  0.00  0.00    +0.000 NA
ATOM     15  C   UNL     1      44.337   5.293   9.624  0.00  0.00    +0.000 C 
ATOM     16  H   UNL     1      45.334   5.418   7.845  0.00  0.00    +0.000 HD
ENDBRANCH   8  10
ENDBRANCH   1   4
BRANCH   1  17
ATOM     17  N   UNL     1      47.172   8.624  13.192  0.00  0.00    +0.000 N 
ATOM     18  H   UNL     1      46.674   8.307  14.024  0.00  0.00    +0.000 HD
BRANCH  17  23
ATOM     19  C   UNL     1      44.381  10.247  11.293  0.00  0.00    +0.000 A 
ATOM     20  C   UNL     1      45.067  11.364  10.847  0.00  0.00    +0.000 A 
ATOM     21  N   UNL     1      46.355  11.623  11.155  0.00  0.00    +0.000 NA
ATOM     22  C   UNL     1      46.982  10.709  11.939  0.00  0.00    +0.000 A 
ATOM     23  C   UNL     1      46.394   9.551  12.464  0.00  0.00    +0.000 A 
ATOM     24  C   UNL     1      45.055   9.338  12.116  0.00  0.00    +0.000 A 
BRANCH  19  26
ATOM     25  N   UNL     1      41.931   9.842  10.566  0.00  0.00    +0.000 NA
ATOM     26  C   UNL     1      43.030  10.021  10.895  0.00  0.00    +0.000 C 
ENDBRANCH  19  26
ENDBRANCH  17  23
ENDBRANCH   1  17
TORSDOF 5
ENDMDL
MODEL 5
REMARK VINA RESULT:    -6.181      2.975      7.188
REMARK INTER + INTRA:          -8.636
REMARK INTER:                  -8.147
REMARK INTRA:                  -0.488
REMARK UNBOUND:                -0.648
REMARK  Name = 
REMARK  5 active torsions:
REMARK  status: ('A' for Active; 'I' for Inactive)
REMARK    1  A    between atoms: C_2  and  C_3
REMARK    2  A    between atoms: C_7  and  N_8
REMARK    3  A    between atoms: N_8  and  C_9
REMARK    4  A    between atoms: C_9  and  C_10
REMARK    5  A    between atoms: C_14  and  C_15
REMARK                            x       y       z     vdW  Elec       q    Type
REMARK                         _______ _______ _______ _____ _____    ______ ____
ROOT
ATOM      1  C   UNL     1      48.822   8.191  12.849  0.00  0.00    +0.000 C 
ATOM      2  C   UNL     1      49.788   7.312  12.053  0.00  0.00    +0.000 C 
ATOM      3  C   UNL     1      49.753   8.781  11.808  0.00  0.00    +0.000 C 
ENDROOT
BRANCH   1   4
ATOM      4  C   UNL     1      47.347   8.063  12.481  0.00  0.00    +0.000 A 
ATOM      5  C   UNL     1      46.535   9.192  12.309  0.00  0.00    +0.000 A 
ATOM      6  C   UNL     1      45.229   9.070  11.843  0.00  0.00    +0.000 A 
ATOM      7  C   UNL     1      44.721   7.815  11.516  0.00  0.00    +0.000 A 
ATOM      8  C   UNL     1      45.495   6.659  11.669  0.00  0.00    +0.000 A 
ATOM      9  C   UNL     1      46.775   6.802  12.217  0.00  0.00    +0.000 A 
BRANCH   8  10
ATOM     10  C   UNL     1      45.057   5.284  11.174  0.00  0.00    +0.000 C 
ATOM     11  C   UNL     1      43.545   5.225  10.886  0.00  0.00    +0.000 C 
ATOM     12  C   UNL     1      42.708   5.046  12.151  0.00  0.00    +0.000 C 
ATOM     13  C   UNL     1      43.256   3.955  13.074  0.00  0.00    +0.000 C 
ATOM     14  N   UNL     1      44.692   4.059  13.327  0.00  0.00    +0.000 NA
ATOM     15  C   UNL     1      45.468   4.118  12.087  0.00  0.00    +0.000 C 
ATOM     16  H   UNL     1      45.006   3.266  13.886  0.00  0.00    +0.000 HD
ENDBRANCH   8  10
ENDBRANCH   1   4
BRANCH   1  17
ATOM     17  N   UNL     1      49.072   8.295  14.308  0.00  0.00    +0.000 N 
ATOM     18  H   UNL     1      49.739   9.036  14.522  0.00  0.00    +0.000 HD
BRANCH  17  23
ATOM     19  C   UNL     1      48.542   5.235  16.402  0.00  0.00    +0.000 A 
ATOM     20  C   UNL     1      49.812   5.142  16.944  0.00  0.00    +0.000 A 
ATOM     21  N   UNL     1      50.817   5.990  16.643  0.00  0.00    +0.000 NA
ATOM     22  C   UNL     1      50.526   6.981  15.763  0.00  0.00    +0.000 A 
ATOM     23  C   UNL     1      49.287   7.171  15.136  0.00  0.00    +0.000 A 
ATOM     24  C   UNL     1      48.284   6.259  15.483  0.00  0.00    +0.000 A 
BRANCH  19  26
ATOM     25  N   UNL     1      46.686   3.584  17.125  0.00  0.00    +0.000 NA
ATOM     26  C   UNL     1      47.518   4.324  16.797  0.00  0.00    +0.000 C 
ENDBRANCH  19  26
ENDBRANCH  17  23
ENDBRANCH   1  17
TORSDOF 5
ENDMDL
MODEL 6
REMARK VINA RESULT:    -6.040      2.953      8.003
REMARK INTER + INTRA:          -8.454
REMARK INTER:                  -7.425
REMARK INTRA:                  -1.028
REMARK UNBOUND:                -0.648
REMARK  Name = 
REMARK  5 active torsions:
REMARK  status: ('A' for Active; 'I' for Inactive)
REMARK    1  A    between atoms: C_2  and  C_3
REMARK    2  A    between atoms: C_7  and  N_8
REMARK    3  A    between atoms: N_8  and  C_9
REMARK    4  A    between atoms: C_9  and  C_10
REMARK    5  A    between atoms: C_14  and  C_15
REMARK                            x       y       z     vdW  Elec       q    Type
REMARK                         _______ _______ _______ _____ _____    ______ ____
ROOT
ATOM      1  C   UNL     1      49.113   7.863  12.605  0.00  0.00    +0.000 C 
ATOM      2  C   UNL     1      50.010   7.818  11.367  0.00  0.00    +0.000 C 
ATOM      3  C   UNL     1      49.868   9.089  12.131  0.00  0.00    +0.000 C 
ENDROOT
BRANCH   1   4
ATOM      4  C   UNL     1      47.611   7.816  12.341  0.00  0.00    +0.000 A 
ATOM      5  C   UNL     1      46.848   8.987  12.241  0.00  0.00    +0.000 A 
ATOM      6  C   UNL     1      45.508   8.939  11.867  0.00  0.00    +0.000 A 
ATOM      7  C   UNL     1      44.915   7.717  11.561  0.00  0.00    +0.000 A 
ATOM      8  C   UNL     1      45.637   6.521  11.644  0.00  0.00    +0.000 A 
ATOM      9  C   UNL     1      46.958   6.590  12.102  0.00  0.00    +0.000 A 
BRANCH   8  10
ATOM     10  C   UNL     1      45.095   5.178  11.164  0.00  0.00    +0.000 C 
ATOM     11  C   UNL     1      43.585   5.234  10.864  0.00  0.00    +0.000 C 
ATOM     12  C   UNL     1      42.727   5.140  12.124  0.00  0.00    +0.000 C 
ATOM     13  C   UNL     1      43.181   4.022  13.067  0.00  0.00    +0.000 C 
ATOM     14  N   UNL     1      44.619   4.016  13.331  0.00  0.00    +0.000 NA
ATOM     15  C   UNL     1      45.406   3.995  12.097  0.00  0.00    +0.000 C 
ATOM     16  H   UNL     1      44.865   3.208  13.903  0.00  0.00    +0.000 HD
ENDBRANCH   8  10
ENDBRANCH   1   4
BRANCH   1  17
ATOM     17  N   UNL     1      49.546   7.047  13.766  0.00  0.00    +0.000 N 
ATOM     18  H   UNL     1      49.523   6.050  13.552  0.00  0.00    +0.000 HD
BRANCH  17  23
ATOM     19  C   UNL     1      48.455   8.738  16.925  0.00  0.00    +0.000 A 
ATOM     20  C   UNL     1      48.471   7.633  17.759  0.00  0.00    +0.000 A 
ATOM     21  N   UNL     1      48.783   6.388  17.343  0.00  0.00    +0.000 NA
ATOM     22  C   UNL     1      49.101   6.253  16.030  0.00  0.00    +0.000 A 
ATOM     23  C   UNL     1      49.106   7.288  15.086  0.00  0.00    +0.000 A 
ATOM     24  C   UNL     1      48.770   8.556  15.574  0.00  0.00    +0.000 A 
BRANCH  19  26
ATOM     25  N   UNL     1      47.909  11.087  17.861  0.00  0.00    +0.000 NA
ATOM     26  C   UNL     1      48.152  10.031  17.444  0.00  0.00    +0.000 C 
ENDBRANCH  19  26
ENDBRANCH  17  23
ENDBRANCH   1  17
TORSDOF 5
ENDMDL
MODEL 7
REMARK VINA RESULT:    -5.930      3.686      8.040
REMARK INTER + INTRA:          -8.311
REMARK INTER:                  -8.028
REMARK INTRA:                  -0.283
REMARK UNBOUND:                -0.648
REMARK  Name = 
REMARK  5 active torsions:
REMARK  status: ('A' for Active; 'I' for Inactive)
REMARK    1  A    between atoms: C_2  and  C_3
REMARK    2  A    between atoms: C_7  and  N_8
REMARK    3  A    between atoms: N_8  and  C_9
REMARK    4  A    between atoms: C_9  and  C_10
REMARK    5  A    between atoms: C_14  and  C_15
REMARK                            x       y       z     vdW  Elec       q    Type
REMARK                         _______ _______ _______ _____ _____    ______ ____
ROOT
ATOM      1  C   UNL     1      47.969   4.646  16.245  0.00  0.00    +0.000 C 
ATOM      2  C   UNL     1      46.962   3.849  17.076  0.00  0.00    +0.000 C 
ATOM      3  C   UNL     1      48.046   3.135  16.346  0.00  0.00    +0.000 C 
ENDROOT
BRANCH   1   4
ATOM      4  C   UNL     1      47.438   5.239  14.943  0.00  0.00    +0.000 A 
ATOM      5  C   UNL     1      48.062   6.332  14.329  0.00  0.00    +0.000 A 
ATOM      6  C   UNL     1      47.653   6.779  13.076  0.00  0.00    +0.000 A 
ATOM      7  C   UNL     1      46.627   6.120  12.404  0.00  0.00    +0.000 A 
ATOM      8  C   UNL     1      45.975   5.022  12.975  0.00  0.00    +0.000 A 
ATOM      9  C   UNL     1      46.351   4.645  14.270  0.00  0.00    +0.000 A 
BRANCH   8  10
ATOM     10  C   UNL     1      44.965   4.161  12.224  0.00  0.00    +0.000 C 
ATOM     11  C   UNL     1      44.564   4.781  10.872  0.00  0.00    +0.000 C 
ATOM     12  C   UNL     1      43.525   5.892  11.015  0.00  0.00    +0.000 C 
ATOM     13  C   UNL     1      42.370   5.505  11.942  0.00  0.00    +0.000 C 
ATOM     14  N   UNL     1      42.799   4.932  13.216  0.00  0.00    +0.000 NA
ATOM     15  C   UNL     1      43.709   3.799  13.033  0.00  0.00    +0.000 C 
ATOM     16  H   UNL     1      41.986   4.630  13.754  0.00  0.00    +0.000 HD
ENDBRANCH   8  10
ENDBRANCH   1   4
BRANCH   1  17
ATOM     17  N   UNL     1      48.874   5.553  16.994  0.00  0.00    +0.000 N 
ATOM     18  H   UNL     1      48.644   6.532  16.828  0.00  0.00    +0.000 HD
BRANCH  17  23
ATOM     19  C   UNL     1      52.279   4.233  17.828  0.00  0.00    +0.000 A 
ATOM     20  C   UNL     1      53.030   5.259  17.282  0.00  0.00    +0.000 A 
ATOM     21  N   UNL     1      52.493   6.319  16.643  0.00  0.00    +0.000 NA
ATOM     22  C   UNL     1      51.139   6.350  16.559  0.00  0.00    +0.000 A 
ATOM     23  C   UNL     1      50.273   5.368  17.056  0.00  0.00    +0.000 A 
ATOM     24  C   UNL     1      50.885   4.289  17.705  0.00  0.00    +0.000 A 
BRANCH  19  26
ATOM     25  N   UNL     1      53.438   2.294  19.090  0.00  0.00    +0.000 NA
ATOM     26  C   UNL     1      52.914   3.161  18.522  0.00  0.00    +0.000 C 
ENDBRANCH  19  26
ENDBRANCH  17  23
ENDBRANCH   1  17
TORSDOF 5
ENDMDL
MODEL 8
REMARK VINA RESULT:    -5.890      2.181      4.156
REMARK INTER + INTRA:          -8.259
REMARK INTER:                  -7.685
REMARK INTRA:                  -0.574
REMARK UNBOUND:                -0.648
REMARK  Name = 
REMARK  5 active torsions:
REMARK  status: ('A' for Active; 'I' for Inactive)
REMARK    1  A    between atoms: C_2  and  C_3
REMARK    2  A    between atoms: C_7  and  N_8
REMARK    3  A    between atoms: N_8  and  C_9
REMARK    4  A    between atoms: C_9  and  C_10
REMARK    5  A    between atoms: C_14  and  C_15
REMARK                            x       y       z     vdW  Elec       q    Type
REMARK                         _______ _______ _______ _____ _____    ______ ____
ROOT
ATOM      1  C   UNL     1      46.116   7.363  12.749  0.00  0.00    +0.000 C 
ATOM      2  C   UNL     1      45.349   8.673  12.937  0.00  0.00    +0.000 C 
ATOM      3  C   UNL     1      45.599   8.153  11.563  0.00  0.00    +0.000 C 
ENDROOT
BRANCH   1   4
ATOM      4  C   UNL     1      47.613   7.420  13.035  0.00  0.00    +0.000 A 
ATOM      5  C   UNL     1      48.545   7.653  12.014  0.00  0.00    +0.000 A 
ATOM      6  C   UNL     1      49.894   7.838  12.305  0.00  0.00    +0.000 A 
ATOM      7  C   UNL     1      50.329   7.819  13.628  0.00  0.00    +0.000 A 
ATOM      8  C   UNL     1      49.436   7.592  14.680  0.00  0.00    +0.000 A 
ATOM      9  C   UNL     1      48.100   7.328  14.354  0.00  0.00    +0.000 A 
BRANCH   8  10
ATOM     10  C   UNL     1      49.820   7.724  16.151  0.00  0.00    +0.000 C 
ATOM     11  C   UNL     1      51.340   7.884  16.342  0.00  0.00    +0.000 C 
ATOM     12  C   UNL     1      52.090   6.556  16.256  0.00  0.00    +0.000 C 
ATOM     13  C   UNL     1      51.426   5.447  17.076  0.00  0.00    +0.000 C 
ATOM     14  N   UNL     1      49.986   5.327  16.854  0.00  0.00    +0.000 NA
ATOM     15  C   UNL     1      49.289   6.598  17.053  0.00  0.00    +0.000 C 
ATOM     16  H   UNL     1      49.594   4.624  17.479  0.00  0.00    +0.000 HD
ENDBRANCH   8  10
ENDBRANCH   1   4
BRANCH   1  17
ATOM     17  N   UNL     1      45.454   6.132  13.249  0.00  0.00    +0.000 N 
ATOM     18  H   UNL     1      45.944   5.744  14.055  0.00  0.00    +0.000 HD
BRANCH  17  23
ATOM     19  C   UNL     1      44.755   4.024  10.232  0.00  0.00    +0.000 A 
ATOM     20  C   UNL     1      43.841   3.155  10.804  0.00  0.00    +0.000 A 
ATOM     21  N   UNL     1      43.476   3.202  12.102  0.00  0.00    +0.000 NA
ATOM     22  C   UNL     1      44.050   4.175  12.854  0.00  0.00    +0.000 A 
ATOM     23  C   UNL     1      44.995   5.102  12.397  0.00  0.00    +0.000 A 
ATOM     24  C   UNL     1      45.340   5.002  11.044  0.00  0.00    +0.000 A 
BRANCH  19  26
ATOM     25  N   UNL     1      45.311   3.861   7.710  0.00  0.00    +0.000 NA
ATOM     26  C   UNL     1      45.064   3.937   8.843  0.00  0.00    +0.000 C 
ENDBRANCH  19  26
ENDBRANCH  17  23
ENDBRANCH   1  17
TORSDOF 5
ENDMDL
MODEL 9
REMARK VINA RESULT:    -5.875      3.839      6.918
REMARK INTER + INTRA:          -8.240
REMARK INTER:                  -7.006
REMARK INTRA:                  -1.234
REMARK UNBOUND:                -0.648
REMARK  Name = 
REMARK  5 active torsions:
REMARK  status: ('A' for Active; 'I' for Inactive)
REMARK    1  A    between atoms: C_2  and  C_3
REMARK    2  A    between atoms: C_7  and  N_8
REMARK    3  A    between atoms: N_8  and  C_9
REMARK    4  A    between atoms: C_9  and  C_10
REMARK    5  A    between atoms: C_14  and  C_15
REMARK                            x       y       z     vdW  Elec       q    Type
REMARK                         _______ _______ _______ _____ _____    ______ ____
ROOT
ATOM      1  C   UNL     1      49.475   8.915  14.898  0.00  0.00    +0.000 C 
ATOM      2  C   UNL     1      50.735   9.733  14.611  0.00  0.00    +0.000 C 
ATOM      3  C   UNL     1      50.793   8.245  14.563  0.00  0.00    +0.000 C 
ENDROOT
BRANCH   1   4
ATOM      4  C   UNL     1      49.018   8.883  16.353  0.00  0.00    +0.000 A 
ATOM      5  C   UNL     1      48.275   9.932  16.911  0.00  0.00    +0.000 A 
ATOM      6  C   UNL     1      47.749   9.833  18.195  0.00  0.00    +0.000 A 
ATOM      7  C   UNL     1      47.935   8.668  18.935  0.00  0.00    +0.000 A 
ATOM      8  C   UNL     1      48.667   7.593  18.420  0.00  0.00    +0.000 A 
ATOM      9  C   UNL     1      49.255   7.751  17.159  0.00  0.00    +0.000 A 
BRANCH   8  10
ATOM     10  C   UNL     1      48.763   6.235  19.110  0.00  0.00    +0.000 C 
ATOM     11  C   UNL     1      49.545   5.210  18.267  0.00  0.00    +0.000 C 
ATOM     12  C   UNL     1      48.702   4.594  17.152  0.00  0.00    +0.000 C 
ATOM     13  C   UNL     1      47.319   4.148  17.634  0.00  0.00    +0.000 C 
ATOM     14  N   UNL     1      46.611   5.158  18.420  0.00  0.00    +0.000 NA
ATOM     15  C   UNL     1      47.413   5.643  19.544  0.00  0.00    +0.000 C 
ATOM     16  H   UNL     1      45.733   4.774  18.770  0.00  0.00    +0.000 HD
ENDBRANCH   8  10
ENDBRANCH   1   4
BRANCH   1  17
ATOM     17  N   UNL     1      48.365   9.046  13.921  0.00  0.00    +0.000 N 
ATOM     18  H   UNL     1      47.895   9.947  14.008  0.00  0.00    +0.000 HD
BRANCH  17  23
ATOM     19  C   UNL     1      46.751   5.684  13.571  0.00  0.00    +0.000 A 
ATOM     20  C   UNL     1      45.600   6.083  12.914  0.00  0.00    +0.000 A 
ATOM     21  N   UNL     1      45.317   7.368  12.616  0.00  0.00    +0.000 NA
ATOM     22  C   UNL     1      46.241   8.291  12.988  0.00  0.00    +0.000 A 
ATOM     23  C   UNL     1      47.433   8.015  13.669  0.00  0.00    +0.000 A 
ATOM     24  C   UNL     1      47.671   6.666  13.956  0.00  0.00    +0.000 A 
BRANCH  19  26
ATOM     25  N   UNL     1      47.197   3.175  14.018  0.00  0.00    +0.000 NA
ATOM     26  C   UNL     1      47.000   4.302  13.819  0.00  0.00    +0.000 C 
ENDBRANCH  19  26
ENDBRANCH  17  23
ENDBRANCH   1  17
TORSDOF 5
ENDMDL
