MODEL 1
REMARK VINA RESULT:    -6.200      0.000      0.000
REMARK INTER + INTRA:          -8.147
REMARK INTER:                  -7.830
REMARK INTRA:                  -0.316
REMARK UNBOUND:                -0.316
REMARK  Name = 
REMARK  5 active torsions:
REMARK  status: ('A' for Active; 'I' for Inactive)
REMARK    1  A    between atoms: N_1  and  C_2
REMARK    2  A    between atoms: C_2  and  C_3
REMARK    3  A    between atoms: C_7  and  C_8
REMARK    4  A    between atoms: C_9  and  N_10
REMARK    5  A    between atoms: C_14  and  C_15
REMARK                            x       y       z     vdW  Elec       q    Type
REMARK                         _______ _______ _______ _____ _____    ______ ____
ROOT
ATOM      1  N   UNL     1      47.484   3.153  15.894  0.00  0.00    +0.000 N 
ATOM      2  C   UNL     1      48.731   3.198  16.545  0.00  0.00    +0.000 A 
ATOM      3  C   UNL     1      49.276   4.369  17.059  0.00  0.00    +0.000 A 
ATOM      4  C   UNL     1      50.535   4.351  17.657  0.00  0.00    +0.000 A 
ATOM      5  C   UNL     1      51.239   3.155  17.750  0.00  0.00    +0.000 A 
ATOM      6  C   UNL     1      50.618   2.025  17.242  0.00  0.00    +0.000 A 
ATOM      7  N   UNL     1      49.390   2.021  16.647  0.00  0.00    +0.000 NA
ATOM      8  H   UNL     1      47.410   2.216  15.497  0.00  0.00    +0.000 HD
ENDROOT
BRANCH   5   9
ATOM      9  C   UNL     1      52.586   3.180  18.368  0.00  0.00    +0.000 C 
ATOM     10  N   UNL     1      53.137   2.018  18.818  0.00  0.00    +0.000 N 
ATOM     11  O   UNL     1      53.214   4.228  18.471  0.00  0.00    +0.000 OA
ATOM     12  H   UNL     1      52.723   1.101  18.762  0.00  0.00    +0.000 HD
ATOM     13  H   UNL     1      54.068   2.090  19.212  0.00  0.00    +0.000 HD
ENDBRANCH   5   9
BRANCH   1  15
ATOM     14  C   UNL     1      46.977   4.233  13.748  0.00  0.00    +0.000 C 
ATOM     15  C   UNL     1      46.982   4.154  15.086  0.00  0.00    +0.000 C 
BRANCH  14  20
ATOM     16  C   UNL     1      44.320   6.014  11.737  0.00  0.00    +0.000 A 
ATOM     17  C   UNL     1      44.883   7.290  11.615  0.00  0.00    +0.000 A 
ATOM     18  C   UNL     1      46.137   7.565  12.159  0.00  0.00    +0.000 A 
ATOM     19  C   UNL     1      46.842   6.567  12.833  0.00  0.00    +0.000 A 
ATOM     20  C   UNL     1      46.310   5.278  12.958  0.00  0.00    +0.000 A 
ATOM     21  C   UNL     1      45.044   5.016  12.413  0.00  0.00    +0.000 A 
BRANCH  16  22
ATOM     22  C   UNL     1      42.969   5.712  11.141  0.00  0.00    +0.000 C 
BRANCH  22  23
ATOM     23  N   UNL     1      41.909   6.479  11.784  0.00  0.00    +0.000 NA
ATOM     24  H   UNL     1      42.178   7.460  11.811  0.00  0.00    +0.000 HD
ATOM     25  H   UNL     1      41.827   6.175  12.753  0.00  0.00    +0.000 HD
ENDBRANCH  22  23
ENDBRANCH  16  22
ENDBRANCH  14  20
ENDBRANCH   1  15
TORSDOF 5
ENDMDL
MODEL 2
REMARK VINA RESULT:    -6.158      3.034      8.757
REMARK INTER + INTRA:          -8.094
REMARK INTER:                  -7.811
REMARK INTRA:                  -0.282
REMARK UNBOUND:                -0.316
REMARK  Name = 
REMARK  5 active torsions:
REMARK  status: ('A' for Active; 'I' for Inactive)
REMARK    1  A    between atoms: N_1  and  C_2
REMARK    2  A    between atoms: C_2  and  C_3
REMARK    3  A    between atoms: C_7  and  C_8
REMARK    4  A    between atoms: C_9  and  N_10
REMARK    5  A    between atoms: C_14  and  C_15
REMARK                            x       y       z     vdW  Elec       q    Type
REMARK                         _______ _______ _______ _____ _____    ______ ____
ROOT
ATOM      1  N   UNL     1      46.637   3.614  14.509  0.00  0.00    +0.000 N 
ATOM      2  C   UNL     1      46.057   4.626  13.721  0.00  0.00    +0.000 A 
ATOM      3  C   UNL     1      46.795   5.654  13.144  0.00  0.00    +0.000 A 
ATOM      4  C   UNL     1      46.152   6.648  12.409  0.00  0.00    +0.000 A 
ATOM      5  C   UNL     1      44.772   6.602  12.242  0.00  0.00    +0.000 A 
ATOM      6  C   UNL     1      44.110   5.531  12.821  0.00  0.00    +0.000 A 
ATOM      7  N   UNL     1      44.717   4.551  13.550  0.00  0.00    +0.000 NA
ATOM      8  H   UNL     1      45.858   3.096  14.914  0.00  0.00    +0.000 HD
ENDROOT
BRANCH   5   9
ATOM      9  C   UNL     1      44.121   7.691  11.475  0.00  0.00    +0.000 C 
ATOM     10  N   UNL     1      42.841   7.529  11.039  0.00  0.00    +0.000 N 
ATOM     11  O   UNL     1      44.715   8.737  11.237  0.00  0.00    +0.000 OA
ATOM     12  H   UNL     1      42.254   6.726  11.198  0.00  0.00    +0.000 HD
ATOM     13  H   UNL     1      42.439   8.313  10.539  0.00  0.00    +0.000 HD
ENDBRANCH   5   9
BRANCH   1  15
ATOM     14  C   UNL     1      48.125   3.013  16.367  0.00  0.00    +0.000 C 
ATOM     15  C   UNL     1      47.705   3.797  15.364  0.00  0.00    +0.000 C 
BRANCH  14  20
ATOM     16  C   UNL     1      51.565   2.409  17.806  0.00  0.00    +0.000 A 
ATOM     17  C   UNL     1      51.800   3.622  18.465  0.00  0.00    +0.000 A 
ATOM     18  C   UNL     1      50.831   4.624  18.467  0.00  0.00    +0.000 A 
ATOM     19  C   UNL     1      49.617   4.427  17.810  0.00  0.00    +0.000 A 
ATOM     20  C   UNL     1      49.349   3.218  17.155  0.00  0.00    +0.000 A 
ATOM     21  C   UNL     1      50.334   2.219  17.154  0.00  0.00    +0.000 A 
BRANCH  16  22
ATOM     22  C   UNL     1      52.607   1.319  17.812  0.00  0.00    +0.000 C 
BRANCH  22  23
ATOM     23  N   UNL     1      52.063   0.050  18.280  0.00  0.00    +0.000 NA
ATOM     24  H   UNL     1      51.514   0.214  19.121  0.00  0.00    +0.000 HD
ATOM     25  H   UNL     1      52.835  -0.555  18.553  0.00  0.00    +0.000 HD
ENDBRANCH  22  23
ENDBRANCH  16  22
ENDBRANCH  14  20
ENDBRANCH   1  15
TORSDOF 5
ENDMDL
MODEL 3
REMARK VINA RESULT:    -6.153      3.992      8.162
REMARK INTER + INTRA:          -8.087
REMARK INTER:                  -7.768
REMARK INTRA:                  -0.319
REMARK UNBOUND:                -0.316
REMARK  Name = 
REMARK  5 active torsions:
REMARK  status: ('A' for Active; 'I' for Inactive)
REMARK    1  A    between atoms: N_1  and  C_2
REMARK    2  A    between atoms: C_2  and  C_3
REMARK    3  A    between atoms: C_7  and  C_8
REMARK    4  A    between atoms: C_9  and  N_10
REMARK    5  A    between atoms: C_14  and  C_15
REMARK                            x       y       z     vdW  Elec       q    Type
REMARK                         _______ _______ _______ _____ _____    ______ ____
ROOT
ATOM      1  N   UNL     1      47.263   3.486  14.693  0.00  0.00    +0.000 N 
ATOM      2  C   UNL     1      46.414   3.908  13.652  0.00  0.00    +0.000 A 
ATOM      3  C   UNL     1      46.180   5.248  13.362  0.00  0.00    +0.000 A 
ATOM      4  C   UNL     1      45.297   5.598  12.343  0.00  0.00    +0.000 A 
ATOM      5  C   UNL     1      44.659   4.603  11.608  0.00  0.00    +0.000 A 
ATOM      6  C   UNL     1      44.966   3.293  11.936  0.00  0.00    +0.000 A 
ATOM      7  N   UNL     1      45.823   2.927  12.933  0.00  0.00    +0.000 NA
ATOM      8  H   UNL     1      47.129   2.478  14.769  0.00  0.00    +0.000 HD
ENDROOT
BRANCH   5   9
ATOM      9  C   UNL     1      43.705   5.015  10.550  0.00  0.00    +0.000 C 
ATOM     10  N   UNL     1      43.891   4.575   9.274  0.00  0.00    +0.000 N 
ATOM     11  O   UNL     1      42.749   5.738  10.809  0.00  0.00    +0.000 OA
ATOM     12  H   UNL     1      44.625   3.962   8.956  0.00  0.00    +0.000 HD
ATOM     13  H   UNL     1      43.199   4.870   8.597  0.00  0.00    +0.000 HD
ENDBRANCH   5   9
BRANCH   1  15
ATOM     14  C   UNL     1      47.928   3.672  17.049  0.00  0.00    +0.000 C 
ATOM     15  C   UNL     1      47.407   4.134  15.903  0.00  0.00    +0.000 C 
BRANCH  14  20
ATOM     16  C   UNL     1      47.877   6.596  19.440  0.00  0.00    +0.000 A 
ATOM     17  C   UNL     1      48.372   6.001  20.607  0.00  0.00    +0.000 A 
ATOM     18  C   UNL     1      48.750   4.659  20.610  0.00  0.00    +0.000 A 
ATOM     19  C   UNL     1      48.636   3.896  19.447  0.00  0.00    +0.000 A 
ATOM     20  C   UNL     1      48.158   4.469  18.263  0.00  0.00    +0.000 A 
ATOM     21  C   UNL     1      47.774   5.818  18.274  0.00  0.00    +0.000 A 
BRANCH  16  22
ATOM     22  C   UNL     1      47.478   8.050  19.432  0.00  0.00    +0.000 C 
BRANCH  22  23
ATOM     23  N   UNL     1      47.547   8.624  18.093  0.00  0.00    +0.000 NA
ATOM     24  H   UNL     1      46.633   8.997  17.844  0.00  0.00    +0.000 HD
ATOM     25  H   UNL     1      47.745   7.879  17.428  0.00  0.00    +0.000 HD
ENDBRANCH  22  23
ENDBRANCH  16  22
ENDBRANCH  14  20
ENDBRANCH   1  15
TORSDOF 5
ENDMDL
MODEL 4
REMARK VINA RESULT:    -6.150      3.758      8.632
REMARK INTER + INTRA:          -8.085
REMARK INTER:                  -7.802
REMARK INTRA:                  -0.282
REMARK UNBOUND:                -0.316
REMARK  Name = 
REMARK  5 active torsions:
REMARK  status: ('A' for Active; 'I' for Inactive)
REMARK    1  A    between atoms: N_1  and  C_2
REMARK    2  A    between atoms: C_2  and  C_3
REMARK    3  A    between atoms: C_7  and  C_8
REMARK    4  A    between atoms: C_9  and  N_10
REMARK    5  A    between atoms: C_14  and  C_15
REMARK                            x       y       z     vdW  Elec       q    Type
REMARK                         _______ _______ _______ _____ _____    ______ ____
ROOT
ATOM      1  N   UNL     1      47.230   3.511  14.703  0.00  0.00    +0.000 N 
ATOM      2  C   UNL     1      46.394   3.912  13.644  0.00  0.00    +0.000 A 
ATOM      3  C   UNL     1      46.158   5.246  13.328  0.00  0.00    +0.000 A 
ATOM      4  C   UNL     1      45.287   5.574  12.292  0.00  0.00    +0.000 A 
ATOM      5  C   UNL     1      44.665   4.565  11.564  0.00  0.00    +0.000 A 
ATOM      6  C   UNL     1      44.972   3.261  11.918  0.00  0.00    +0.000 A 
ATOM      7  N   UNL     1      45.817   2.916  12.933  0.00  0.00    +0.000 NA
ATOM      8  H   UNL     1      47.099   2.503  14.794  0.00  0.00    +0.000 HD
ENDROOT
BRANCH   5   9
ATOM      9  C   UNL     1      43.724   4.955  10.487  0.00  0.00    +0.000 C 
ATOM     10  N   UNL     1      43.954   4.529   9.213  0.00  0.00    +0.000 N 
ATOM     11  O   UNL     1      42.740   5.646  10.727  0.00  0.00    +0.000 OA
ATOM     12  H   UNL     1      44.713   3.941   8.908  0.00  0.00    +0.000 HD
ATOM     13  H   UNL     1      43.268   4.808   8.521  0.00  0.00    +0.000 HD
ENDBRANCH   5   9
BRANCH   1  15
ATOM     14  C   UNL     1      47.734   3.702  17.098  0.00  0.00    +0.000 C 
ATOM     15  C   UNL     1      47.354   4.179  15.904  0.00  0.00    +0.000 C 
BRANCH  14  20
ATOM     16  C   UNL     1      49.466   5.166  20.120  0.00  0.00    +0.000 A 
ATOM     17  C   UNL     1      48.553   6.157  20.502  0.00  0.00    +0.000 A 
ATOM     18  C   UNL     1      47.363   6.331  19.797  0.00  0.00    +0.000 A 
ATOM     19  C   UNL     1      47.071   5.517  18.702  0.00  0.00    +0.000 A 
ATOM     20  C   UNL     1      47.959   4.509  18.306  0.00  0.00    +0.000 A 
ATOM     21  C   UNL     1      49.157   4.349  19.019  0.00  0.00    +0.000 A 
BRANCH  16  22
ATOM     22  C   UNL     1      50.750   4.970  20.886  0.00  0.00    +0.000 C 
BRANCH  22  23
ATOM     23  N   UNL     1      51.747   4.255  20.100  0.00  0.00    +0.000 NA
ATOM     24  H   UNL     1      51.983   3.385  20.573  0.00  0.00    +0.000 HD
ATOM     25  H   UNL     1      52.602   4.809  20.073  0.00  0.00    +0.000 HD
ENDBRANCH  22  23
ENDBRANCH  16  22
ENDBRANCH  14  20
ENDBRANCH   1  15
TORSDOF 5
ENDMDL
MODEL 5
REMARK VINA RESULT:    -6.066      3.491      8.411
REMARK INTER + INTRA:          -7.978
REMARK INTER:                  -7.620
REMARK INTRA:                  -0.358
REMARK UNBOUND:                -0.316
REMARK  Name = 
REMARK  5 active torsions:
REMARK  status: ('A' for Active; 'I' for Inactive)
REMARK    1  A    between atoms: N_1  and  C_2
REMARK    2  A    between atoms: C_2  and  C_3
REMARK    3  A    between atoms: C_7  and  C_8
REMARK    4  A    between atoms: C_9  and  N_10
REMARK    5  A    between atoms: C_14  and  C_15
REMARK                            x       y       z     vdW  Elec       q    Type
REMARK                         _______ _______ _______ _____ _____    ______ ____
ROOT
ATOM      1  N   UNL     1      47.323   6.673  14.032  0.00  0.00    +0.000 N 
ATOM      2  C   UNL     1      46.507   5.980  13.118  0.00  0.00    +0.000 A 
ATOM      3  C   UNL     1      45.950   4.736  13.393  0.00  0.00    +0.000 A 
ATOM      4  C   UNL     1      45.184   4.085  12.428  0.00  0.00    +0.000 A 
ATOM      5  C   UNL     1      44.967   4.690  11.194  0.00  0.00    +0.000 A 
ATOM      6  C   UNL     1      45.529   5.942  11.005  0.00  0.00    +0.000 A 
ATOM      7  N   UNL     1      46.288   6.595  11.934  0.00  0.00    +0.000 NA
ATOM      8  H   UNL     1      47.704   7.467  13.518  0.00  0.00    +0.000 HD
ENDROOT
BRANCH   5   9
ATOM      9  C   UNL     1      44.169   3.955  10.183  0.00  0.00    +0.000 C 
ATOM     10  N   UNL     1      44.033   4.476   8.931  0.00  0.00    +0.000 N 
ATOM     11  O   UNL     1      43.637   2.884  10.454  0.00  0.00    +0.000 OA
ATOM     12  H   UNL     1      44.444   5.331   8.593  0.00  0.00    +0.000 HD
ATOM     13  H   UNL     1      43.495   3.922   8.275  0.00  0.00    +0.000 HD
ENDBRANCH   5   9
BRANCH   1  15
ATOM     14  C   UNL     1      48.586   6.467  16.128  0.00  0.00    +0.000 C 
ATOM     15  C   UNL     1      48.215   6.076  14.900  0.00  0.00    +0.000 C 
BRANCH  14  20
ATOM     16  C   UNL     1      50.483   3.567  17.631  0.00  0.00    +0.000 A 
ATOM     17  C   UNL     1      51.246   4.219  18.608  0.00  0.00    +0.000 A 
ATOM     18  C   UNL     1      51.122   5.595  18.799  0.00  0.00    +0.000 A 
ATOM     19  C   UNL     1      50.237   6.335  18.015  0.00  0.00    +0.000 A 
ATOM     20  C   UNL     1      49.452   5.707  17.040  0.00  0.00    +0.000 A 
ATOM     21  C   UNL     1      49.590   4.323  16.852  0.00  0.00    +0.000 A 
BRANCH  16  22
ATOM     22  C   UNL     1      50.608   2.078  17.429  0.00  0.00    +0.000 C 
BRANCH  22  23
ATOM     23  N   UNL     1      49.942   1.639  16.209  0.00  0.00    +0.000 NA
ATOM     24  H   UNL     1      49.125   1.085  16.457  0.00  0.00    +0.000 HD
ATOM     25  H   UNL     1      50.569   1.016  15.701  0.00  0.00    +0.000 HD
ENDBRANCH  22  23
ENDBRANCH  16  22
ENDBRANCH  14  20
ENDBRANCH   1  15
TORSDOF 5
ENDMDL
MODEL 6
REMARK VINA RESULT:    -5.736      3.608      8.488
REMARK INTER + INTRA:          -7.561
REMARK INTER:                  -7.193
REMARK INTRA:                  -0.369
REMARK UNBOUND:                -0.316
REMARK  Name = 
REMARK  5 active torsions:
REMARK  status: ('A' for Active; 'I' for Inactive)
REMARK    1  A    between atoms: N_1  and  C_2
REMARK    2  A    between atoms: C_2  and  C_3
REMARK    3  A    between atoms: C_7  and  C_8
REMARK    4  A    between atoms: C_9  and  N_10
REMARK    5  A    between atoms: C_14  and  C_15
REMARK                            x       y       z     vdW  Elec       q    Type
REMARK                         _______ _______ _______ _____ _____    ______ ____
ROOT
ATOM      1  N   UNL     1      46.965   3.622  14.906  0.00  0.00    +0.000 N 
ATOM      2  C   UNL     1      46.329   4.537  14.045  0.00  0.00    +0.000 A 
ATOM      3  C   UNL     1      46.942   5.700  13.591  0.00  0.00    +0.000 A 
ATOM      4  C   UNL     1      46.241   6.584  12.773  0.00  0.00    +0.000 A 
ATOM      5  C   UNL     1      44.932   6.294  12.401  0.00  0.00    +0.000 A 
ATOM      6  C   UNL     1      44.401   5.103  12.869  0.00  0.00    +0.000 A 
ATOM      7  N   UNL     1      45.066   4.225  13.676  0.00  0.00    +0.000 NA
ATOM      8  H   UNL     1      46.244   2.958  15.188  0.00  0.00    +0.000 HD
ENDROOT
BRANCH   5   9
ATOM      9  C   UNL     1      44.210   7.272  11.552  0.00  0.00    +0.000 C 
ATOM     10  N   UNL     1      42.945   6.988  11.133  0.00  0.00    +0.000 N 
ATOM     11  O   UNL     1      44.731   8.334  11.230  0.00  0.00    +0.000 OA
ATOM     12  H   UNL     1      42.415   6.161  11.357  0.00  0.00    +0.000 HD
ATOM     13  H   UNL     1      42.492   7.700  10.573  0.00  0.00    +0.000 HD
ENDBRANCH   5   9
BRANCH   1  15
ATOM     14  C   UNL     1      47.582   4.488  17.119  0.00  0.00    +0.000 C 
ATOM     15  C   UNL     1      47.845   3.968  15.911  0.00  0.00    +0.000 C 
BRANCH  14  20
ATOM     16  C   UNL     1      49.029   4.993  20.571  0.00  0.00    +0.000 A 
ATOM     17  C   UNL     1      50.402   4.945  20.299  0.00  0.00    +0.000 A 
ATOM     18  C   UNL     1      50.858   4.778  18.992  0.00  0.00    +0.000 A 
ATOM     19  C   UNL     1      49.948   4.656  17.943  0.00  0.00    +0.000 A 
ATOM     20  C   UNL     1      48.570   4.715  18.183  0.00  0.00    +0.000 A 
ATOM     21  C   UNL     1      48.123   4.876  19.504  0.00  0.00    +0.000 A 
BRANCH  16  22
ATOM     22  C   UNL     1      48.534   5.183  21.983  0.00  0.00    +0.000 C 
BRANCH  22  23
ATOM     23  N   UNL     1      47.106   4.916  22.097  0.00  0.00    +0.000 NA
ATOM     24  H   UNL     1      46.591   5.775  21.917  0.00  0.00    +0.000 HD
ATOM     25  H   UNL     1      46.898   4.651  23.058  0.00  0.00    +0.000 HD
ENDBRANCH  22  23
ENDBRANCH  16  22
ENDBRANCH  14  20
ENDBRANCH   1  15
TORSDOF 5
ENDMDL
MODEL 7
REMARK VINA RESULT:    -5.559      3.848      8.276
REMARK INTER + INTRA:          -7.337
REMARK INTER:                  -6.987
REMARK INTRA:                  -0.350
REMARK UNBOUND:                -0.316
REMARK  Name = 
REMARK  5 active torsions:
REMARK  status: ('A' for Active; 'I' for Inactive)
REMARK    1  A    between atoms: N_1  and  C_2
REMARK    2  A    between atoms: C_2  and  C_3
REMARK    3  A    between atoms: C_7  and  C_8
REMARK    4  A    between atoms: C_9  and  N_10
REMARK    5  A    between atoms: C_14  and  C_15
REMARK                            x       y       z     vdW  Elec       q    Type
REMARK                         _______ _______ _______ _____ _____    ______ ____
ROOT
ATOM      1  N   UNL     1      47.143   7.041  13.609  0.00  0.00    +0.000 N 
ATOM      2  C   UNL     1      46.363   6.037  13.004  0.00  0.00    +0.000 A 
ATOM      3  C   UNL     1      46.331   4.724  13.462  0.00  0.00    +0.000 A 
ATOM      4  C   UNL     1      45.569   3.769  12.792  0.00  0.00    +0.000 A 
ATOM      5  C   UNL     1      44.830   4.136  11.672  0.00  0.00    +0.000 A 
ATOM      6  C   UNL     1      44.889   5.468  11.294  0.00  0.00    +0.000 A 
ATOM      7  N   UNL     1      45.633   6.418  11.932  0.00  0.00    +0.000 NA
ATOM      8  H   UNL     1      47.089   7.847  12.987  0.00  0.00    +0.000 HD
ENDROOT
BRANCH   5   9
ATOM      9  C   UNL     1      44.053   3.086  10.969  0.00  0.00    +0.000 C 
ATOM     10  N   UNL     1      43.442   2.109  11.696  0.00  0.00    +0.000 N 
ATOM     11  O   UNL     1      43.947   3.090   9.748  0.00  0.00    +0.000 OA
ATOM     12  H   UNL     1      43.443   2.023  12.699  0.00  0.00    +0.000 HD
ATOM     13  H   UNL     1      42.908   1.430  11.166  0.00  0.00    +0.000 HD
ENDBRANCH   5   9
BRANCH   1  15
ATOM     14  C   UNL     1      48.781   7.049  15.438  0.00  0.00    +0.000 C 
ATOM     15  C   UNL     1      48.385   6.839  14.174  0.00  0.00    +0.000 C 
BRANCH  14  20
ATOM     16  C   UNL     1      51.445   5.129  17.305  0.00  0.00    +0.000 A 
ATOM     17  C   UNL     1      52.599   5.823  16.921  0.00  0.00    +0.000 A 
ATOM     18  C   UNL     1      52.509   6.931  16.080  0.00  0.00    +0.000 A 
ATOM     19  C   UNL     1      51.266   7.358  15.612  0.00  0.00    +0.000 A 
ATOM     20  C   UNL     1      50.095   6.692  15.991  0.00  0.00    +0.000 A 
ATOM     21  C   UNL     1      50.198   5.574  16.833  0.00  0.00    +0.000 A 
BRANCH  16  22
ATOM     22  C   UNL     1      51.538   3.937  18.223  0.00  0.00    +0.000 C 
BRANCH  22  23
ATOM     23  N   UNL     1      50.278   3.207  18.294  0.00  0.00    +0.000 NA
ATOM     24  H   UNL     1      50.471   2.227  18.489  0.00  0.00    +0.000 HD
ATOM     25  H   UNL     1      49.831   3.236  17.379  0.00  0.00    +0.000 HD
ENDBRANCH  22  23
ENDBRANCH  16  22
ENDBRANCH  14  20
ENDBRANCH   1  15
TORSDOF 5
ENDMDL
MODEL 8
REMARK VINA RESULT:    -5.381      3.881      8.726
REMARK INTER + INTRA:          -7.113
REMARK INTER:                  -6.810
REMARK INTRA:                  -0.302
REMARK UNBOUND:                -0.316
REMARK  Name = 
REMARK  5 active torsions:
REMARK  status: ('A' for Active; 'I' for Inactive)
REMARK    1  A    between atoms: N_1  and  C_2
REMARK    2  A    between atoms: C_2  and  C_3
REMARK    3  A    between atoms: C_7  and  C_8
REMARK    4  A    between atoms: C_9  and  N_10
REMARK    5  A    between atoms: C_14  and  C_15
REMARK                            x       y       z     vdW  Elec       q    Type
REMARK                         _______ _______ _______ _____ _____    ______ ____
ROOT
ATOM      1  N   UNL     1      47.258   6.925  14.060  0.00  0.00    +0.000 N 
ATOM      2  C   UNL     1      46.431   6.171  13.206  0.00  0.00    +0.000 A 
ATOM      3  C   UNL     1      46.195   4.812  13.386  0.00  0.00    +0.000 A 
ATOM      4  C   UNL     1      45.398   4.116  12.480  0.00  0.00    +0.000 A 
ATOM      5  C   UNL     1      44.828   4.786  11.402  0.00  0.00    +0.000 A 
ATOM      6  C   UNL     1      45.085   6.144  11.306  0.00  0.00    +0.000 A 
ATOM      7  N   UNL     1      45.867   6.845  12.178  0.00  0.00    +0.000 NA
ATOM      8  H   UNL     1      47.366   7.834  13.611  0.00  0.00    +0.000 HD
ENDROOT
BRANCH   5   9
ATOM      9  C   UNL     1      44.009   4.005  10.444  0.00  0.00    +0.000 C 
ATOM     10  N   UNL     1      43.885   4.441   9.159  0.00  0.00    +0.000 N 
ATOM     11  O   UNL     1      43.449   2.970  10.789  0.00  0.00    +0.000 OA
ATOM     12  H   UNL     1      44.319   5.260   8.764  0.00  0.00    +0.000 HD
ATOM     13  H   UNL     1      43.331   3.858   8.543  0.00  0.00    +0.000 HD
ENDBRANCH   5   9
BRANCH   1  15
ATOM     14  C   UNL     1      48.868   6.705  15.900  0.00  0.00    +0.000 C 
ATOM     15  C   UNL     1      48.402   6.451  14.668  0.00  0.00    +0.000 C 
BRANCH  14  20
ATOM     16  C   UNL     1      52.461   6.023  16.847  0.00  0.00    +0.000 A 
ATOM     17  C   UNL     1      52.302   5.023  17.814  0.00  0.00    +0.000 A 
ATOM     18  C   UNL     1      51.031   4.550  18.138  0.00  0.00    +0.000 A 
ATOM     19  C   UNL     1      49.905   5.070  17.500  0.00  0.00    +0.000 A 
ATOM     20  C   UNL     1      50.036   6.061  16.519  0.00  0.00    +0.000 A 
ATOM     21  C   UNL     1      51.319   6.535  16.206  0.00  0.00    +0.000 A 
BRANCH  16  22
ATOM     22  C   UNL     1      53.835   6.530  16.488  0.00  0.00    +0.000 C 
BRANCH  22  23
ATOM     23  N   UNL     1      54.027   6.603  15.045  0.00  0.00    +0.000 NA
ATOM     24  H   UNL     1      53.712   5.732  14.623  0.00  0.00    +0.000 HD
ATOM     25  H   UNL     1      55.024   6.672  14.851  0.00  0.00    +0.000 HD
ENDBRANCH  22  23
ENDBRANCH  16  22
ENDBRANCH  14  20
ENDBRANCH   1  15
TORSDOF 5
ENDMDL
MODEL 9
REMARK VINA RESULT:    -5.127      2.832      3.203
REMARK INTER + INTRA:          -6.791
REMARK INTER:                  -6.447
REMARK INTRA:                  -0.344
REMARK UNBOUND:                -0.316
REMARK  Name = 
REMARK  5 active torsions:
REMARK  status: ('A' for Active; 'I' for Inactive)
REMARK    1  A    between atoms: N_1  and  C_2
REMARK    2  A    between atoms: C_2  and  C_3
REMARK    3  A    between atoms: C_7  and  C_8
REMARK    4  A    between atoms: C_9  and  N_10
REMARK    5  A    between atoms: C_14  and  C_15
REMARK                            x       y       z     vdW  Elec       q    Type
REMARK                         _______ _______ _______ _____ _____    ______ ____
ROOT
ATOM      1  N   UNL     1      49.300   6.916  15.526  0.00  0.00    +0.000 N 
ATOM      2  C   UNL     1      49.343   6.329  16.805  0.00  0.00    +0.000 A 
ATOM      3  C   UNL     1      48.747   5.107  17.098  0.00  0.00    +0.000 A 
ATOM      4  C   UNL     1      48.793   4.601  18.395  0.00  0.00    +0.000 A 
ATOM      5  C   UNL     1      49.448   5.314  19.393  0.00  0.00    +0.000 A 
ATOM      6  C   UNL     1      50.043   6.508  19.018  0.00  0.00    +0.000 A 
ATOM      7  N   UNL     1      50.005   7.026  17.756  0.00  0.00    +0.000 NA
ATOM      8  H   UNL     1      49.679   7.856  15.639  0.00  0.00    +0.000 HD
ENDROOT
BRANCH   5   9
ATOM      9  C   UNL     1      49.452   4.756  20.767  0.00  0.00    +0.000 C 
ATOM     10  N   UNL     1      50.632   4.646  21.441  0.00  0.00    +0.000 N 
ATOM     11  O   UNL     1      48.410   4.401  21.308  0.00  0.00    +0.000 OA
ATOM     12  H   UNL     1      51.539   4.928  21.104  0.00  0.00    +0.000 HD
ATOM     13  H   UNL     1      50.573   4.278  22.382  0.00  0.00    +0.000 HD
ENDBRANCH   5   9
BRANCH   1  15
ATOM     14  C   UNL     1      48.032   5.985  13.641  0.00  0.00    +0.000 C 
ATOM     15  C   UNL     1      48.229   6.835  14.659  0.00  0.00    +0.000 C 
BRANCH  14  20
ATOM     16  C   UNL     1      44.834   4.578  12.206  0.00  0.00    +0.000 A 
ATOM     17  C   UNL     1      44.343   5.685  11.501  0.00  0.00    +0.000 A 
ATOM     18  C   UNL     1      45.065   6.877  11.467  0.00  0.00    +0.000 A 
ATOM     19  C   UNL     1      46.284   6.978  12.138  0.00  0.00    +0.000 A 
ATOM     20  C   UNL     1      46.805   5.884  12.839  0.00  0.00    +0.000 A 
ATOM     21  C   UNL     1      46.066   4.691  12.872  0.00  0.00    +0.000 A 
BRANCH  16  22
ATOM     22  C   UNL     1      44.060   3.284  12.235  0.00  0.00    +0.000 C 
BRANCH  22  23
ATOM     23  N   UNL     1      42.868   3.346  11.399  0.00  0.00    +0.000 NA
ATOM     24  H   UNL     1      43.125   3.134  10.437  0.00  0.00    +0.000 HD
ATOM     25  H   UNL     1      42.518   4.303  11.399  0.00  0.00    +0.000 HD
ENDBRANCH  22  23
ENDBRANCH  16  22
ENDBRANCH  14  20
ENDBRANCH   1  15
TORSDOF 5
ENDMDL
