MODEL 1
REMARK VINA RESULT:    -8.362      0.000      0.000
REMARK INTER + INTRA:         -12.486
REMARK INTER:                 -11.295
REMARK INTRA:                  -1.190
REMARK UNBOUND:                -1.190
REMARK  Name = 
REMARK  7 active torsions:
REMARK  status: ('A' for Active; 'I' for Inactive)
REMARK    1  A    between atoms: C_1  and  N_2
REMARK    2  A    between atoms: C_8  and  C_9
REMARK    3  A    between atoms: N_11  and  C_12
REMARK    4  A    between atoms: C_12  and  C_13
REMARK    5  A    between atoms: C_16  and  C_17
REMARK    6  A    between atoms: C_17  and  N_18
REMARK    7  A    between atoms: C_19  and  C_21
REMARK                            x       y       z     vdW  Elec       q    Type
REMARK                         _______ _______ _______ _____ _____    ______ ____
ROOT
ATOM      1  C   UNL     1      45.970   4.396  13.513  0.00  0.00    +0.000 A 
ATOM      2  C   UNL     1      45.592   5.619  12.946  0.00  0.00    +0.000 A 
ATOM      3  C   UNL     1      44.957   5.658  11.700  0.00  0.00    +0.000 A 
ATOM      4  C   UNL     1      44.667   4.470  11.010  0.00  0.00    +0.000 A 
ATOM      5  C   UNL     1      45.049   3.250  11.580  0.00  0.00    +0.000 A 
ATOM      6  C   UNL     1      45.684   3.212  12.824  0.00  0.00    +0.000 A 
ENDROOT
BRANCH   1   7
ATOM      7  C   UNL     1      46.636   4.336  14.861  0.00  0.00    +0.000 C 
BRANCH   7  10
ATOM      8  C   UNL     1      48.448   5.612  15.961  0.00  0.00    +0.000 C 
ATOM      9  O   UNL     1      48.862   4.646  16.592  0.00  0.00    +0.000 OA
ATOM     10  N   UNL     1      47.340   5.557  15.157  0.00  0.00    +0.000 N 
ATOM     11  H   UNL     1      47.110   6.355  14.579  0.00  0.00    +0.000 HD
BRANCH   8  19
ATOM     12  C   UNL     1      50.448   8.408  11.422  0.00  0.00    +0.000 C 
ATOM     13  N   UNL     1      50.345   8.562  12.858  0.00  0.00    +0.000 N 
ATOM     14  C   UNL     1      50.814   9.696  13.486  0.00  0.00    +0.000 A 
ATOM     15  N   UNL     1      50.754   9.929  14.756  0.00  0.00    +0.000 NA
ATOM     16  C   UNL     1      50.175   8.942  15.484  0.00  0.00    +0.000 A 
ATOM     17  S   UNL     1      50.042   9.059  17.178  0.00  0.00    +0.000 S 
ATOM     18  C   UNL     1      49.291   7.530  17.283  0.00  0.00    +0.000 A 
ATOM     19  C   UNL     1      49.097   6.926  16.051  0.00  0.00    +0.000 A 
ATOM     20  C   UNL     1      49.642   7.762  15.005  0.00  0.00    +0.000 A 
ATOM     21  C   UNL     1      49.721   7.542  13.570  0.00  0.00    +0.000 A 
ATOM     22  O   UNL     1      49.243   6.552  13.023  0.00  0.00    +0.000 OA
ENDBRANCH   8  19
ENDBRANCH   7  10
ENDBRANCH   1   7
BRANCH   4  23
ATOM     23  C   UNL     1      43.970   4.501   9.678  0.00  0.00    +0.000 C 
BRANCH  23  24
ATOM     24  N   UNL     1      44.576   3.591   8.736  0.00  0.00    +0.000 N 
ATOM     25  C   UNL     1      45.733   3.946   8.077  0.00  0.00    +0.000 C 
ATOM     26  O   UNL     1      46.293   5.025   8.236  0.00  0.00    +0.000 OA
ATOM     27  H   UNL     1      44.273   2.627   8.741  0.00  0.00    +0.000 HD
BRANCH  25  28
ATOM     28  C   UNL     1      46.317   2.927   7.162  0.00  0.00    +0.000 A 
ATOM     29  C   UNL     1      46.589   3.215   5.818  0.00  0.00    +0.000 A 
ATOM     30  C   UNL     1      47.147   2.234   4.994  0.00  0.00    +0.000 A 
ATOM     31  C   UNL     1      47.441   0.970   5.508  0.00  0.00    +0.000 A 
ATOM     32  C   UNL     1      47.188   0.685   6.850  0.00  0.00    +0.000 A 
ATOM     33  C   UNL     1      46.633   1.664   7.678  0.00  0.00    +0.000 A 
ENDBRANCH  25  28
ENDBRANCH  23  24
ENDBRANCH   4  23
TORSDOF 6
ENDMDL
MODEL 2
REMARK VINA RESULT:    -8.316      2.610      4.050
REMARK INTER + INTRA:         -12.423
REMARK INTER:                 -11.411
REMARK INTRA:                  -1.012
REMARK UNBOUND:                -1.190
REMARK  Name = 
REMARK  7 active torsions:
REMARK  status: ('A' for Active; 'I' for Inactive)
REMARK    1  A    between atoms: C_1  and  N_2
REMARK    2  A    between atoms: C_8  and  C_9
REMARK    3  A    between atoms: N_11  and  C_12
REMARK    4  A    between atoms: C_12  and  C_13
REMARK    5  A    between atoms: C_16  and  C_17
REMARK    6  A    between atoms: C_17  and  N_18
REMARK    7  A    between atoms: C_19  and  C_21
REMARK                            x       y       z     vdW  Elec       q    Type
REMARK                         _______ _______ _______ _____ _____    ______ ____
ROOT
ATOM      1  C   UNL     1      47.166   5.917  13.385  0.00  0.00    +0.000 A 
ATOM      2  C   UNL     1      46.888   4.571  13.651  0.00  0.00    +0.000 A 
ATOM      3  C   UNL     1      45.979   3.863  12.858  0.00  0.00    +0.000 A 
ATOM      4  C   UNL     1      45.350   4.484  11.767  0.00  0.00    +0.000 A 
ATOM      5  C   UNL     1      45.628   5.831  11.506  0.00  0.00    +0.000 A 
ATOM      6  C   UNL     1      46.536   6.537  12.299  0.00  0.00    +0.000 A 
ENDROOT
BRANCH   1   7
ATOM      7  C   UNL     1      48.156   6.687  14.216  0.00  0.00    +0.000 C 
BRANCH   7  10
ATOM      8  C   UNL     1      49.157   6.143  16.412  0.00  0.00    +0.000 C 
ATOM      9  O   UNL     1      50.307   6.142  15.984  0.00  0.00    +0.000 OA
ATOM     10  N   UNL     1      48.064   6.332  15.609  0.00  0.00    +0.000 N 
ATOM     11  H   UNL     1      47.151   6.429  16.033  0.00  0.00    +0.000 HD
BRANCH   8  19
ATOM     12  C   UNL     1      46.989  10.122  19.859  0.00  0.00    +0.000 C 
ATOM     13  N   UNL     1      47.425   8.741  19.900  0.00  0.00    +0.000 N 
ATOM     14  C   UNL     1      47.338   8.004  21.062  0.00  0.00    +0.000 A 
ATOM     15  N   UNL     1      47.687   6.766  21.193  0.00  0.00    +0.000 NA
ATOM     16  C   UNL     1      48.176   6.197  20.063  0.00  0.00    +0.000 A 
ATOM     17  S   UNL     1      48.721   4.583  20.055  0.00  0.00    +0.000 S 
ATOM     18  C   UNL     1      49.153   4.674  18.407  0.00  0.00    +0.000 A 
ATOM     19  C   UNL     1      48.864   5.901  17.830  0.00  0.00    +0.000 A 
ATOM     20  C   UNL     1      48.308   6.791  18.824  0.00  0.00    +0.000 A 
ATOM     21  C   UNL     1      47.895   8.181  18.717  0.00  0.00    +0.000 A 
ATOM     22  O   UNL     1      47.925   8.802  17.658  0.00  0.00    +0.000 OA
ENDBRANCH   8  19
ENDBRANCH   7  10
ENDBRANCH   1   7
BRANCH   4  23
ATOM     23  C   UNL     1      44.384   3.727  10.898  0.00  0.00    +0.000 C 
BRANCH  23  24
ATOM     24  N   UNL     1      45.065   2.964   9.879  0.00  0.00    +0.000 N 
ATOM     25  C   UNL     1      45.361   3.542   8.664  0.00  0.00    +0.000 C 
ATOM     26  O   UNL     1      45.064   4.697   8.378  0.00  0.00    +0.000 OA
ATOM     27  H   UNL     1      45.512   2.099  10.150  0.00  0.00    +0.000 HD
BRANCH  25  28
ATOM     28  C   UNL     1      46.110   2.700   7.691  0.00  0.00    +0.000 A 
ATOM     29  C   UNL     1      46.435   1.366   7.969  0.00  0.00    +0.000 A 
ATOM     30  C   UNL     1      47.129   0.606   7.025  0.00  0.00    +0.000 A 
ATOM     31  C   UNL     1      47.495   1.170   5.802  0.00  0.00    +0.000 A 
ATOM     32  C   UNL     1      47.159   2.493   5.514  0.00  0.00    +0.000 A 
ATOM     33  C   UNL     1      46.461   3.255   6.454  0.00  0.00    +0.000 A 
ENDBRANCH  25  28
ENDBRANCH  23  24
ENDBRANCH   4  23
TORSDOF 6
ENDMDL
MODEL 3
REMARK VINA RESULT:    -8.218      2.065      3.758
REMARK INTER + INTRA:         -12.291
REMARK INTER:                 -11.177
REMARK INTRA:                  -1.115
REMARK UNBOUND:                -1.190
REMARK  Name = 
REMARK  7 active torsions:
REMARK  status: ('A' for Active; 'I' for Inactive)
REMARK    1  A    between atoms: C_1  and  N_2
REMARK    2  A    between atoms: C_8  and  C_9
REMARK    3  A    between atoms: N_11  and  C_12
REMARK    4  A    between atoms: C_12  and  C_13
REMARK    5  A    between atoms: C_16  and  C_17
REMARK    6  A    between atoms: C_17  and  N_18
REMARK    7  A    between atoms: C_19  and  C_21
REMARK                            x       y       z     vdW  Elec       q    Type
REMARK                         _______ _______ _______ _____ _____    ______ ____
ROOT
ATOM      1  C   UNL     1      46.565   7.846  12.904  0.00  0.00    +0.000 A 
ATOM      2  C   UNL     1      46.985   6.523  12.728  0.00  0.00    +0.000 A 
ATOM      3  C   UNL     1      46.232   5.635  11.954  0.00  0.00    +0.000 A 
ATOM      4  C   UNL     1      45.054   6.063  11.321  0.00  0.00    +0.000 A 
ATOM      5  C   UNL     1      44.634   7.387  11.502  0.00  0.00    +0.000 A 
ATOM      6  C   UNL     1      45.389   8.273  12.276  0.00  0.00    +0.000 A 
ENDROOT
BRANCH   1   7
ATOM      7  C   UNL     1      47.375   8.819  13.717  0.00  0.00    +0.000 C 
BRANCH   7  10
ATOM      8  C   UNL     1      48.980   8.189  15.491  0.00  0.00    +0.000 C 
ATOM      9  O   UNL     1      49.966   8.444  14.809  0.00  0.00    +0.000 OA
ATOM     10  N   UNL     1      47.699   8.282  15.013  0.00  0.00    +0.000 N 
ATOM     11  H   UNL     1      46.924   8.162  15.652  0.00  0.00    +0.000 HD
BRANCH   8  19
ATOM     12  C   UNL     1      47.819   2.848  17.089  0.00  0.00    +0.000 C 
ATOM     13  N   UNL     1      48.256   4.104  17.663  0.00  0.00    +0.000 N 
ATOM     14  C   UNL     1      48.543   4.208  19.008  0.00  0.00    +0.000 A 
ATOM     15  N   UNL     1      48.952   5.278  19.607  0.00  0.00    +0.000 NA
ATOM     16  C   UNL     1      49.088   6.359  18.799  0.00  0.00    +0.000 A 
ATOM     17  S   UNL     1      49.581   7.866  19.420  0.00  0.00    +0.000 S 
ATOM     18  C   UNL     1      49.475   8.602  17.883  0.00  0.00    +0.000 A 
ATOM     19  C   UNL     1      49.103   7.722  16.878  0.00  0.00    +0.000 A 
ATOM     20  C   UNL     1      48.860   6.412  17.438  0.00  0.00    +0.000 A 
ATOM     21  C   UNL     1      48.411   5.185  16.801  0.00  0.00    +0.000 A 
ATOM     22  O   UNL     1      48.218   5.098  15.591  0.00  0.00    +0.000 OA
ENDBRANCH   8  19
ENDBRANCH   7  10
ENDBRANCH   1   7
BRANCH   4  23
ATOM     23  C   UNL     1      44.245   5.121  10.473  0.00  0.00    +0.000 C 
BRANCH  23  24
ATOM     24  N   UNL     1      45.031   4.556   9.402  0.00  0.00    +0.000 N 
ATOM     25  C   UNL     1      45.083   3.189   9.229  0.00  0.00    +0.000 C 
ATOM     26  O   UNL     1      44.495   2.396   9.956  0.00  0.00    +0.000 OA
ATOM     27  H   UNL     1      45.345   5.171   8.665  0.00  0.00    +0.000 HD
BRANCH  25  28
ATOM     28  C   UNL     1      45.876   2.696   8.069  0.00  0.00    +0.000 A 
ATOM     29  C   UNL     1      46.165   3.517   6.971  0.00  0.00    +0.000 A 
ATOM     30  C   UNL     1      46.921   3.019   5.908  0.00  0.00    +0.000 A 
ATOM     31  C   UNL     1      47.395   1.707   5.938  0.00  0.00    +0.000 A 
ATOM     32  C   UNL     1      47.125   0.891   7.037  0.00  0.00    +0.000 A 
ATOM     33  C   UNL     1      46.372   1.386   8.105  0.00  0.00    +0.000 A 
ENDBRANCH  25  28
ENDBRANCH  23  24
ENDBRANCH   4  23
TORSDOF 6
ENDMDL
MODEL 4
REMARK VINA RESULT:    -8.003      1.997      3.158
REMARK INTER + INTRA:         -12.001
REMARK INTER:                 -11.091
REMARK INTRA:                  -0.910
REMARK UNBOUND:                -1.190
REMARK  Name = 
REMARK  7 active torsions:
REMARK  status: ('A' for Active; 'I' for Inactive)
REMARK    1  A    between atoms: C_1  and  N_2
REMARK    2  A    between atoms: C_8  and  C_9
REMARK    3  A    between atoms: N_11  and  C_12
REMARK    4  A    between atoms: C_12  and  C_13
REMARK    5  A    between atoms: C_16  and  C_17
REMARK    6  A    between atoms: C_17  and  N_18
REMARK    7  A    between atoms: C_19  and  C_21
REMARK                            x       y       z     vdW  Elec       q    Type
REMARK                         _______ _______ _______ _____ _____    ______ ____
ROOT
ATOM      1  C   UNL     1      46.594   4.743  13.661  0.00  0.00    +0.000 A 
ATOM      2  C   UNL     1      46.227   3.463  13.229  0.00  0.00    +0.000 A 
ATOM      3  C   UNL     1      45.398   3.300  12.114  0.00  0.00    +0.000 A 
ATOM      4  C   UNL     1      44.940   4.416  11.397  0.00  0.00    +0.000 A 
ATOM      5  C   UNL     1      45.306   5.695  11.834  0.00  0.00    +0.000 A 
ATOM      6  C   UNL     1      46.134   5.856  12.948  0.00  0.00    +0.000 A 
ENDROOT
BRANCH   1   7
ATOM      7  C   UNL     1      47.501   4.935  14.846  0.00  0.00    +0.000 C 
BRANCH   7  10
ATOM      8  C   UNL     1      48.867   6.810  15.704  0.00  0.00    +0.000 C 
ATOM      9  O   UNL     1      49.743   6.079  16.154  0.00  0.00    +0.000 OA
ATOM     10  N   UNL     1      47.725   6.331  15.119  0.00  0.00    +0.000 N 
ATOM     11  H   UNL     1      47.090   6.979  14.672  0.00  0.00    +0.000 HD
BRANCH   8  19
ATOM     12  C   UNL     1      46.950   9.779  20.168  0.00  0.00    +0.000 C 
ATOM     13  N   UNL     1      47.594   9.997  18.889  0.00  0.00    +0.000 N 
ATOM     14  C   UNL     1      47.939  11.267  18.476  0.00  0.00    +0.000 A 
ATOM     15  N   UNL     1      48.528  11.558  17.362  0.00  0.00    +0.000 NA
ATOM     16  C   UNL     1      48.802  10.490  16.573  0.00  0.00    +0.000 A 
ATOM     17  S   UNL     1      49.542  10.686  15.052  0.00  0.00    +0.000 S 
ATOM     18  C   UNL     1      49.499   9.006  14.748  0.00  0.00    +0.000 A 
ATOM     19  C   UNL     1      48.963   8.273  15.795  0.00  0.00    +0.000 A 
ATOM     20  C   UNL     1      48.540   9.163  16.852  0.00  0.00    +0.000 A 
ATOM     21  C   UNL     1      47.886   8.877  18.118  0.00  0.00    +0.000 A 
ATOM     22  O   UNL     1      47.641   7.733  18.495  0.00  0.00    +0.000 OA
ENDBRANCH   8  19
ENDBRANCH   7  10
ENDBRANCH   1   7
BRANCH   4  23
ATOM     23  C   UNL     1      44.062   4.250  10.188  0.00  0.00    +0.000 C 
BRANCH  23  24
ATOM     24  N   UNL     1      44.675   3.402   9.193  0.00  0.00    +0.000 N 
ATOM     25  C   UNL     1      45.623   3.916   8.335  0.00  0.00    +0.000 C 
ATOM     26  O   UNL     1      45.984   5.088   8.355  0.00  0.00    +0.000 OA
ATOM     27  H   UNL     1      44.567   2.402   9.288  0.00  0.00    +0.000 HD
BRANCH  25  28
ATOM     28  C   UNL     1      46.240   2.959   7.376  0.00  0.00    +0.000 A 
ATOM     29  C   UNL     1      46.530   3.325   6.054  0.00  0.00    +0.000 A 
ATOM     30  C   UNL     1      47.118   2.400   5.188  0.00  0.00    +0.000 A 
ATOM     31  C   UNL     1      47.423   1.114   5.637  0.00  0.00    +0.000 A 
ATOM     32  C   UNL     1      47.152   0.751   6.956  0.00  0.00    +0.000 A 
ATOM     33  C   UNL     1      46.567   1.674   7.827  0.00  0.00    +0.000 A 
ENDBRANCH  25  28
ENDBRANCH  23  24
ENDBRANCH   4  23
TORSDOF 6
ENDMDL
MODEL 5
REMARK VINA RESULT:    -7.759      2.317      3.767
REMARK INTER + INTRA:         -11.671
REMARK INTER:                 -10.593
REMARK INTRA:                  -1.079
REMARK UNBOUND:                -1.190
REMARK  Name = 
REMARK  7 active torsions:
REMARK  status: ('A' for Active; 'I' for Inactive)
REMARK    1  A    between atoms: C_1  and  N_2
REMARK    2  A    between atoms: C_8  and  C_9
REMARK    3  A    between atoms: N_11  and  C_12
REMARK    4  A    between atoms: C_12  and  C_13
REMARK    5  A    between atoms: C_16  and  C_17
REMARK    6  A    between atoms: C_17  and  N_18
REMARK    7  A    between atoms: C_19  and  C_21
REMARK                            x       y       z     vdW  Elec       q    Type
REMARK                         _______ _______ _______ _____ _____    ______ ____
ROOT
ATOM      1  C   UNL     1      46.751   7.725  13.119  0.00  0.00    +0.000 A 
ATOM      2  C   UNL     1      45.755   8.246  12.285  0.00  0.00    +0.000 A 
ATOM      3  C   UNL     1      45.004   7.401  11.461  0.00  0.00    +0.000 A 
ATOM      4  C   UNL     1      45.220   6.014  11.476  0.00  0.00    +0.000 A 
ATOM      5  C   UNL     1      46.220   5.497  12.309  0.00  0.00    +0.000 A 
ATOM      6  C   UNL     1      46.969   6.343  13.131  0.00  0.00    +0.000 A 
ENDROOT
BRANCH   1   7
ATOM      7  C   UNL     1      47.554   8.618  14.025  0.00  0.00    +0.000 C 
BRANCH   7  10
ATOM      8  C   UNL     1      49.101   8.169  15.902  0.00  0.00    +0.000 C 
ATOM      9  O   UNL     1      48.698   9.113  16.573  0.00  0.00    +0.000 OA
ATOM     10  N   UNL     1      48.645   7.905  14.637  0.00  0.00    +0.000 N 
ATOM     11  H   UNL     1      48.935   7.054  14.175  0.00  0.00    +0.000 HD
BRANCH   8  19
ATOM     12  C   UNL     1      48.077   2.761  17.360  0.00  0.00    +0.000 C 
ATOM     13  N   UNL     1      49.177   3.702  17.304  0.00  0.00    +0.000 N 
ATOM     14  C   UNL     1      50.452   3.324  17.666  0.00  0.00    +0.000 A 
ATOM     15  N   UNL     1      51.497   4.086  17.636  0.00  0.00    +0.000 NA
ATOM     16  C   UNL     1      51.259   5.351  17.208  0.00  0.00    +0.000 A 
ATOM     17  S   UNL     1      52.509   6.506  17.138  0.00  0.00    +0.000 S 
ATOM     18  C   UNL     1      51.442   7.714  16.574  0.00  0.00    +0.000 A 
ATOM     19  C   UNL     1      50.143   7.261  16.398  0.00  0.00    +0.000 A 
ATOM     20  C   UNL     1      50.050   5.874  16.794  0.00  0.00    +0.000 A 
ATOM     21  C   UNL     1      48.902   4.982  16.834  0.00  0.00    +0.000 A 
ATOM     22  O   UNL     1      47.786   5.320  16.451  0.00  0.00    +0.000 OA
ENDBRANCH   8  19
ENDBRANCH   7  10
ENDBRANCH   1   7
BRANCH   4  23
ATOM     23  C   UNL     1      44.407   5.095  10.607  0.00  0.00    +0.000 C 
BRANCH  23  24
ATOM     24  N   UNL     1      45.215   4.467   9.589  0.00  0.00    +0.000 N 
ATOM     25  C   UNL     1      44.966   3.164   9.214  0.00  0.00    +0.000 C 
ATOM     26  O   UNL     1      44.080   2.478   9.713  0.00  0.00    +0.000 OA
ATOM     27  H   UNL     1      45.799   5.056   9.012  0.00  0.00    +0.000 HD
BRANCH  25  28
ATOM     28  C   UNL     1      45.814   2.612   8.122  0.00  0.00    +0.000 A 
ATOM     29  C   UNL     1      46.290   1.295   8.154  0.00  0.00    +0.000 A 
ATOM     30  C   UNL     1      47.076   0.812   7.104  0.00  0.00    +0.000 A 
ATOM     31  C   UNL     1      47.381   1.636   6.020  0.00  0.00    +0.000 A 
ATOM     32  C   UNL     1      46.895   2.943   5.976  0.00  0.00    +0.000 A 
ATOM     33  C   UNL     1      46.107   3.429   7.022  0.00  0.00    +0.000 A 
ENDBRANCH  25  28
ENDBRANCH  23  24
ENDBRANCH   4  23
TORSDOF 6
ENDMDL
MODEL 6
REMARK VINA RESULT:    -7.412      2.881      3.774
REMARK INTER + INTRA:         -11.202
REMARK INTER:                 -10.320
REMARK INTRA:                  -0.881
REMARK UNBOUND:                -1.190
REMARK  Name = 
REMARK  7 active torsions:
REMARK  status: ('A' for Active; 'I' for Inactive)
REMARK    1  A    between atoms: C_1  and  N_2
REMARK    2  A    between atoms: C_8  and  C_9
REMARK    3  A    between atoms: N_11  and  C_12
REMARK    4  A    between atoms: C_12  and  C_13
REMARK    5  A    between atoms: C_16  and  C_17
REMARK    6  A    between atoms: C_17  and  N_18
REMARK    7  A    between atoms: C_19  and  C_21
REMARK                            x       y       z     vdW  Elec       q    Type
REMARK                         _______ _______ _______ _____ _____    ______ ____
ROOT
ATOM      1  C   UNL     1      46.730   6.722  13.133  0.00  0.00    +0.000 A 
ATOM      2  C   UNL     1      46.212   5.436  13.328  0.00  0.00    +0.000 A 
ATOM      3  C   UNL     1      45.388   4.848  12.363  0.00  0.00    +0.000 A 
ATOM      4  C   UNL     1      45.086   5.529  11.172  0.00  0.00    +0.000 A 
ATOM      5  C   UNL     1      45.603   6.816  10.983  0.00  0.00    +0.000 A 
ATOM      6  C   UNL     1      46.426   7.402  11.948  0.00  0.00    +0.000 A 
ENDROOT
BRANCH   1   7
ATOM      7  C   UNL     1      47.634   7.360  14.152  0.00  0.00    +0.000 C 
BRANCH   7  10
ATOM      8  C   UNL     1      48.784   6.618  16.213  0.00  0.00    +0.000 C 
ATOM      9  O   UNL     1      48.783   7.735  16.719  0.00  0.00    +0.000 OA
ATOM     10  N   UNL     1      48.308   6.371  14.953  0.00  0.00    +0.000 N 
ATOM     11  H   UNL     1      48.236   5.414  14.631  0.00  0.00    +0.000 HD
BRANCH   8  19
ATOM     12  C   UNL     1      54.369   5.809  16.967  0.00  0.00    +0.000 C 
ATOM     13  N   UNL     1      53.107   5.165  17.269  0.00  0.00    +0.000 N 
ATOM     14  C   UNL     1      53.067   3.981  17.975  0.00  0.00    +0.000 A 
ATOM     15  N   UNL     1      51.992   3.341  18.305  0.00  0.00    +0.000 NA
ATOM     16  C   UNL     1      50.840   3.926  17.893  0.00  0.00    +0.000 A 
ATOM     17  S   UNL     1      49.328   3.206  18.205  0.00  0.00    +0.000 S 
ATOM     18  C   UNL     1      48.498   4.462  17.400  0.00  0.00    +0.000 A 
ATOM     19  C   UNL     1      49.337   5.455  16.918  0.00  0.00    +0.000 A 
ATOM     20  C   UNL     1      50.713   5.113  17.200  0.00  0.00    +0.000 A 
ATOM     21  C   UNL     1      51.944   5.806  16.857  0.00  0.00    +0.000 A 
ATOM     22  O   UNL     1      51.956   6.890  16.280  0.00  0.00    +0.000 OA
ENDBRANCH   8  19
ENDBRANCH   7  10
ENDBRANCH   1   7
BRANCH   4  23
ATOM     23  C   UNL     1      44.214   4.899  10.121  0.00  0.00    +0.000 C 
BRANCH  23  24
ATOM     24  N   UNL     1      44.993   4.363   9.031  0.00  0.00    +0.000 N 
ATOM     25  C   UNL     1      45.297   3.019   8.992  0.00  0.00    +0.000 C 
ATOM     26  O   UNL     1      44.948   2.225   9.859  0.00  0.00    +0.000 OA
ATOM     27  H   UNL     1      45.111   4.932   8.204  0.00  0.00    +0.000 HD
BRANCH  25  28
ATOM     28  C   UNL     1      46.061   2.543   7.806  0.00  0.00    +0.000 A 
ATOM     29  C   UNL     1      46.636   1.266   7.764  0.00  0.00    +0.000 A 
ATOM     30  C   UNL     1      47.337   0.854   6.628  0.00  0.00    +0.000 A 
ATOM     31  C   UNL     1      47.459   1.709   5.531  0.00  0.00    +0.000 A 
ATOM     32  C   UNL     1      46.873   2.974   5.562  0.00  0.00    +0.000 A 
ATOM     33  C   UNL     1      46.169   3.389   6.695  0.00  0.00    +0.000 A 
ENDBRANCH  25  28
ENDBRANCH  23  24
ENDBRANCH   4  23
TORSDOF 6
ENDMDL
MODEL 7
REMARK VINA RESULT:    -6.969      4.611      6.979
REMARK INTER + INTRA:         -10.604
REMARK INTER:                  -9.518
REMARK INTRA:                  -1.087
REMARK UNBOUND:                -1.190
REMARK  Name = 
REMARK  7 active torsions:
REMARK  status: ('A' for Active; 'I' for Inactive)
REMARK    1  A    between atoms: C_1  and  N_2
REMARK    2  A    between atoms: C_8  and  C_9
REMARK    3  A    between atoms: N_11  and  C_12
REMARK    4  A    between atoms: C_12  and  C_13
REMARK    5  A    between atoms: C_16  and  C_17
REMARK    6  A    between atoms: C_17  and  N_18
REMARK    7  A    between atoms: C_19  and  C_21
REMARK                            x       y       z     vdW  Elec       q    Type
REMARK                         _______ _______ _______ _____ _____    ______ ____
ROOT
ATOM      1  C   UNL     1      45.308   5.843  12.727  0.00  0.00    +0.000 A 
ATOM      2  C   UNL     1      45.947   7.063  12.980  0.00  0.00    +0.000 A 
ATOM      3  C   UNL     1      45.516   8.234  12.349  0.00  0.00    +0.000 A 
ATOM      4  C   UNL     1      44.420   8.210  11.472  0.00  0.00    +0.000 A 
ATOM      5  C   UNL     1      43.785   6.988  11.219  0.00  0.00    +0.000 A 
ATOM      6  C   UNL     1      44.217   5.818  11.850  0.00  0.00    +0.000 A 
ENDROOT
BRANCH   1   7
ATOM      7  C   UNL     1      45.747   4.577  13.412  0.00  0.00    +0.000 C 
BRANCH   7  10
ATOM      8  C   UNL     1      47.286   4.033  15.271  0.00  0.00    +0.000 C 
ATOM      9  O   UNL     1      47.590   2.937  14.812  0.00  0.00    +0.000 OA
ATOM     10  N   UNL     1      46.355   4.852  14.688  0.00  0.00    +0.000 N 
ATOM     11  H   UNL     1      46.224   5.787  15.052  0.00  0.00    +0.000 HD
BRANCH   8  19
ATOM     12  C   UNL     1      50.654   8.620  15.477  0.00  0.00    +0.000 C 
ATOM     13  N   UNL     1      50.095   7.617  16.361  0.00  0.00    +0.000 N 
ATOM     14  C   UNL     1      50.343   7.650  17.716  0.00  0.00    +0.000 A 
ATOM     15  N   UNL     1      49.878   6.811  18.584  0.00  0.00    +0.000 NA
ATOM     16  C   UNL     1      49.091   5.838  18.061  0.00  0.00    +0.000 A 
ATOM     17  S   UNL     1      48.420   4.623  19.048  0.00  0.00    +0.000 S 
ATOM     18  C   UNL     1      47.668   3.871  17.713  0.00  0.00    +0.000 A 
ATOM     19  C   UNL     1      47.878   4.537  16.516  0.00  0.00    +0.000 A 
ATOM     20  C   UNL     1      48.734   5.681  16.737  0.00  0.00    +0.000 A 
ATOM     21  C   UNL     1      49.269   6.651  15.795  0.00  0.00    +0.000 A 
ATOM     22  O   UNL     1      48.988   6.640  14.599  0.00  0.00    +0.000 OA
ENDBRANCH   8  19
ENDBRANCH   7  10
ENDBRANCH   1   7
BRANCH   4  23
ATOM     23  C   UNL     1      43.938   9.468  10.802  0.00  0.00    +0.000 C 
BRANCH  23  24
ATOM     24  N   UNL     1      42.519   9.660  10.982  0.00  0.00    +0.000 N 
ATOM     25  C   UNL     1      42.044  10.831  11.533  0.00  0.00    +0.000 C 
ATOM     26  O   UNL     1      42.774  11.745  11.902  0.00  0.00    +0.000 OA
ATOM     27  H   UNL     1      41.888   9.036  10.500  0.00  0.00    +0.000 HD
BRANCH  25  28
ATOM     28  C   UNL     1      40.565  10.966  11.635  0.00  0.00    +0.000 A 
ATOM     29  C   UNL     1      39.958  11.604  12.725  0.00  0.00    +0.000 A 
ATOM     30  C   UNL     1      38.566  11.719  12.778  0.00  0.00    +0.000 A 
ATOM     31  C   UNL     1      37.780  11.206  11.746  0.00  0.00    +0.000 A 
ATOM     32  C   UNL     1      38.381  10.585  10.651  0.00  0.00    +0.000 A 
ATOM     33  C   UNL     1      39.773  10.471  10.592  0.00  0.00    +0.000 A 
ENDBRANCH  25  28
ENDBRANCH  23  24
ENDBRANCH   4  23
TORSDOF 6
ENDMDL
MODEL 8
REMARK VINA RESULT:    -6.753      2.777      3.813
REMARK INTER + INTRA:         -10.312
REMARK INTER:                  -9.332
REMARK INTRA:                  -0.979
REMARK UNBOUND:                -1.190
REMARK  Name = 
REMARK  7 active torsions:
REMARK  status: ('A' for Active; 'I' for Inactive)
REMARK    1  A    between atoms: C_1  and  N_2
REMARK    2  A    between atoms: C_8  and  C_9
REMARK    3  A    between atoms: N_11  and  C_12
REMARK    4  A    between atoms: C_12  and  C_13
REMARK    5  A    between atoms: C_16  and  C_17
REMARK    6  A    between atoms: C_17  and  N_18
REMARK    7  A    between atoms: C_19  and  C_21
REMARK                            x       y       z     vdW  Elec       q    Type
REMARK                         _______ _______ _______ _____ _____    ______ ____
ROOT
ATOM      1  C   UNL     1      46.362   7.609  12.752  0.00  0.00    +0.000 A 
ATOM      2  C   UNL     1      46.972   6.496  12.159  0.00  0.00    +0.000 A 
ATOM      3  C   UNL     1      46.242   5.650  11.319  0.00  0.00    +0.000 A 
ATOM      4  C   UNL     1      44.892   5.917  11.036  0.00  0.00    +0.000 A 
ATOM      5  C   UNL     1      44.286   7.028  11.632  0.00  0.00    +0.000 A 
ATOM      6  C   UNL     1      45.016   7.873  12.472  0.00  0.00    +0.000 A 
ENDROOT
BRANCH   1   7
ATOM      7  C   UNL     1      47.139   8.539  13.643  0.00  0.00    +0.000 C 
BRANCH   7  10
ATOM      8  C   UNL     1      49.423   9.371  13.182  0.00  0.00    +0.000 C 
ATOM      9  O   UNL     1      49.908   8.848  14.179  0.00  0.00    +0.000 OA
ATOM     10  N   UNL     1      48.085   9.322  12.891  0.00  0.00    +0.000 N 
ATOM     11  H   UNL     1      47.760   9.680  12.002  0.00  0.00    +0.000 HD
BRANCH   8  19
ATOM     12  C   UNL     1      52.711   6.898   9.247  0.00  0.00    +0.000 C 
ATOM     13  N   UNL     1      52.352   8.220   9.715  0.00  0.00    +0.000 N 
ATOM     14  C   UNL     1      52.867   9.350   9.115  0.00  0.00    +0.000 A 
ATOM     15  N   UNL     1      52.595  10.568   9.452  0.00  0.00    +0.000 NA
ATOM     16  C   UNL     1      51.730  10.686  10.490  0.00  0.00    +0.000 A 
ATOM     17  S   UNL     1      51.285  12.214  11.096  0.00  0.00    +0.000 S 
ATOM     18  C   UNL     1      50.288  11.515  12.292  0.00  0.00    +0.000 A 
ATOM     19  C   UNL     1      50.247  10.131  12.233  0.00  0.00    +0.000 A 
ATOM     20  C   UNL     1      51.117   9.659  11.180  0.00  0.00    +0.000 A 
ATOM     21  C   UNL     1      51.441   8.304  10.763  0.00  0.00    +0.000 A 
ATOM     22  O   UNL     1      50.926   7.312  11.272  0.00  0.00    +0.000 OA
ENDBRANCH   8  19
ENDBRANCH   7  10
ENDBRANCH   1   7
BRANCH   4  23
ATOM     23  C   UNL     1      44.103   5.022  10.120  0.00  0.00    +0.000 C 
BRANCH  23  24
ATOM     24  N   UNL     1      44.936   4.434   9.098  0.00  0.00    +0.000 N 
ATOM     25  C   UNL     1      45.107   3.067   9.046  0.00  0.00    +0.000 C 
ATOM     26  O   UNL     1      44.589   2.294   9.844  0.00  0.00    +0.000 OA
ATOM     27  H   UNL     1      45.197   5.007   8.307  0.00  0.00    +0.000 HD
BRANCH  25  28
ATOM     28  C   UNL     1      45.941   2.543   7.929  0.00  0.00    +0.000 A 
ATOM     29  C   UNL     1      46.462   1.242   7.947  0.00  0.00    +0.000 A 
ATOM     30  C   UNL     1      47.232   0.785   6.875  0.00  0.00    +0.000 A 
ATOM     31  C   UNL     1      47.477   1.618   5.782  0.00  0.00    +0.000 A 
ATOM     32  C   UNL     1      46.945   2.907   5.752  0.00  0.00    +0.000 A 
ATOM     33  C   UNL     1      46.173   3.367   6.821  0.00  0.00    +0.000 A 
ENDBRANCH  25  28
ENDBRANCH  23  24
ENDBRANCH   4  23
TORSDOF 6
ENDMDL
MODEL 9
REMARK VINA RESULT:    -6.290      3.985      8.704
REMARK INTER + INTRA:          -9.686
REMARK INTER:                  -8.765
REMARK INTRA:                  -0.921
REMARK UNBOUND:                -1.190
REMARK  Name = 
REMARK  7 active torsions:
REMARK  status: ('A' for Active; 'I' for Inactive)
REMARK    1  A    between atoms: C_1  and  N_2
REMARK    2  A    between atoms: C_8  and  C_9
REMARK    3  A    between atoms: N_11  and  C_12
REMARK    4  A    between atoms: C_12  and  C_13
REMARK    5  A    between atoms: C_16  and  C_17
REMARK    6  A    between atoms: C_17  and  N_18
REMARK    7  A    between atoms: C_19  and  C_21
REMARK                            x       y       z     vdW  Elec       q    Type
REMARK                         _______ _______ _______ _____ _____    ______ ____
ROOT
ATOM      1  C   UNL     1      48.637   8.008  16.499  0.00  0.00    +0.000 A 
ATOM      2  C   UNL     1      48.993   6.793  15.901  0.00  0.00    +0.000 A 
ATOM      3  C   UNL     1      49.164   5.642  16.676  0.00  0.00    +0.000 A 
ATOM      4  C   UNL     1      48.958   5.680  18.064  0.00  0.00    +0.000 A 
ATOM      5  C   UNL     1      48.605   6.897  18.660  0.00  0.00    +0.000 A 
ATOM      6  C   UNL     1      48.434   8.047  17.884  0.00  0.00    +0.000 A 
ENDROOT
BRANCH   1   7
ATOM      7  C   UNL     1      48.430   9.250  15.677  0.00  0.00    +0.000 C 
BRANCH   7  10
ATOM      8  C   UNL     1      47.530   8.697  13.439  0.00  0.00    +0.000 C 
ATOM      9  O   UNL     1      48.639   8.569  12.931  0.00  0.00    +0.000 OA
ATOM     10  N   UNL     1      47.348   9.088  14.740  0.00  0.00    +0.000 N 
ATOM     11  H   UNL     1      46.417   9.073  15.134  0.00  0.00    +0.000 HD
BRANCH   8  19
ATOM     12  C   UNL     1      45.368   3.521  12.466  0.00  0.00    +0.000 C 
ATOM     13  N   UNL     1      45.088   4.910  12.168  0.00  0.00    +0.000 N 
ATOM     14  C   UNL     1      43.970   5.269  11.445  0.00  0.00    +0.000 A 
ATOM     15  N   UNL     1      43.629   6.480  11.143  0.00  0.00    +0.000 NA
ATOM     16  C   UNL     1      44.479   7.434  11.598  0.00  0.00    +0.000 A 
ATOM     17  S   UNL     1      44.211   9.083  11.264  0.00  0.00    +0.000 S 
ATOM     18  C   UNL     1      45.626   9.543  12.100  0.00  0.00    +0.000 A 
ATOM     19  C   UNL     1      46.300   8.475  12.670  0.00  0.00    +0.000 A 
ATOM     20  C   UNL     1      45.622   7.240  12.347  0.00  0.00    +0.000 A 
ATOM     21  C   UNL     1      45.965   5.865  12.674  0.00  0.00    +0.000 A 
ATOM     22  O   UNL     1      46.933   5.570  13.370  0.00  0.00    +0.000 OA
ENDBRANCH   8  19
ENDBRANCH   7  10
ENDBRANCH   1   7
BRANCH   4  23
ATOM     23  C   UNL     1      49.124   4.444  18.905  0.00  0.00    +0.000 C 
BRANCH  23  24
ATOM     24  N   UNL     1      50.440   3.869  18.757  0.00  0.00    +0.000 N 
ATOM     25  C   UNL     1      50.645   2.828  17.878  0.00  0.00    +0.000 C 
ATOM     26  O   UNL     1      49.752   2.334  17.199  0.00  0.00    +0.000 OA
ATOM     27  H   UNL     1      51.228   4.381  19.128  0.00  0.00    +0.000 HD
BRANCH  25  28
ATOM     28  C   UNL     1      52.043   2.330  17.753  0.00  0.00    +0.000 A 
ATOM     29  C   UNL     1      53.145   3.178  17.925  0.00  0.00    +0.000 A 
ATOM     30  C   UNL     1      54.441   2.669  17.808  0.00  0.00    +0.000 A 
ATOM     31  C   UNL     1      54.641   1.317  17.527  0.00  0.00    +0.000 A 
ATOM     32  C   UNL     1      53.547   0.465  17.372  0.00  0.00    +0.000 A 
ATOM     33  C   UNL     1      52.249   0.969  17.491  0.00  0.00    +0.000 A 
ENDBRANCH  25  28
ENDBRANCH  23  24
ENDBRANCH   4  23
TORSDOF 6
ENDMDL
