MODEL 1
REMARK VINA RESULT:    -7.842      0.000      0.000
REMARK INTER + INTRA:         -14.358
REMARK INTER:                 -13.114
REMARK INTRA:                  -1.244
REMARK UNBOUND:                -1.244
REMARK  Name = 
REMARK  13 active torsions:
REMARK  status: ('A' for Active; 'I' for Inactive)
REMARK    1  A    between atoms: C_1  and  O_2
REMARK    2  A    between atoms: O_2  and  C_3
REMARK    3  A    between atoms: C_7  and  C_8
REMARK    4  A    between atoms: C_8  and  N_9
REMARK    5  A    between atoms: N_9  and  C_10
REMARK    6  A    between atoms: C_10  and  C_11
REMARK    7  A    between atoms: C_14  and  C_15
REMARK    8  A    between atoms: C_15  and  N_16
REMARK    9  A    between atoms: N_16  and  C_17
REMARK   10  A    between atoms: N_16  and  C_20
REMARK   11  A    between atoms: C_17  and  C_18
REMARK   12  A    between atoms: C_18  and  O_19
REMARK   13  A    between atoms: C_20  and  C_21
REMARK                            x       y       z     vdW  Elec       q    Type
REMARK                         _______ _______ _______ _____ _____    ______ ____
ROOT
ATOM      1  C   UNL     1      48.083   6.668  13.768  0.00  0.00    +0.000 A 
ATOM      2  C   UNL     1      47.274   5.531  13.904  0.00  0.00    +0.000 A 
ATOM      3  C   UNL     1      46.341   5.211  12.923  0.00  0.00    +0.000 A 
ATOM      4  C   UNL     1      46.178   6.042  11.809  0.00  0.00    +0.000 A 
ATOM      5  C   UNL     1      47.051   7.122  11.624  0.00  0.00    +0.000 A 
ATOM      6  C   UNL     1      47.997   7.434  12.599  0.00  0.00    +0.000 A 
ENDROOT
BRANCH   1   7
ATOM      7  C   UNL     1      49.013   7.073  14.888  0.00  0.00    +0.000 C 
BRANCH   7   8
ATOM      8  N   UNL     1      48.335   7.264  16.166  0.00  0.00    +0.000 NA
ATOM      9  H   UNL     1      48.325   8.258  16.387  0.00  0.00    +0.000 HD
BRANCH   8  10
ATOM     10  C   UNL     1      49.000   6.538  17.246  0.00  0.00    +0.000 C 
BRANCH  10  15
ATOM     11  C   UNL     1      49.107   2.744  17.034  0.00  0.00    +0.000 A 
ATOM     12  C   UNL     1      47.754   2.497  17.222  0.00  0.00    +0.000 A 
ATOM     13  N   UNL     1      46.818   3.454  17.440  0.00  0.00    +0.000 NA
ATOM     14  C   UNL     1      47.262   4.731  17.455  0.00  0.00    +0.000 A 
ATOM     15  C   UNL     1      48.587   5.096  17.245  0.00  0.00    +0.000 A 
ATOM     16  C   UNL     1      49.524   4.074  17.049  0.00  0.00    +0.000 A 
BRANCH  11  18
ATOM     17  C   UNL     1      51.237   1.748  17.335  0.00  0.00    +0.000 C 
ATOM     18  O   UNL     1      49.906   1.656  16.838  0.00  0.00    +0.000 OA
ENDBRANCH  11  18
ENDBRANCH  10  15
ENDBRANCH   8  10
ENDBRANCH   7   8
ENDBRANCH   1   7
BRANCH   4  19
ATOM     19  C   UNL     1      45.024   5.821  10.858  0.00  0.00    +0.000 C 
BRANCH  19  20
ATOM     20  N   UNL     1      44.640   4.391  10.721  0.00  0.00    +0.000 NA
BRANCH  20  21
ATOM     21  C   UNL     1      43.483   4.060  11.590  0.00  0.00    +0.000 C 
BRANCH  21  22
ATOM     22  C   UNL     1      42.583   5.251  11.978  0.00  0.00    +0.000 C 
BRANCH  22  23
ATOM     23  O   UNL     1      42.731   5.563  13.362  0.00  0.00    +0.000 OA
ATOM     24  H   UNL     1      42.192   4.926  13.860  0.00  0.00    +0.000 HD
ENDBRANCH  22  23
ENDBRANCH  21  22
ENDBRANCH  20  21
BRANCH  20  25
ATOM     25  C   UNL     1      44.318   4.109   9.309  0.00  0.00    +0.000 C 
BRANCH  25  26
ATOM     26  C   UNL     1      45.362   3.292   8.581  0.00  0.00    +0.000 A 
ATOM     27  C   UNL     1      45.463   1.908   8.788  0.00  0.00    +0.000 A 
ATOM     28  C   UNL     1      46.367   1.149   8.044  0.00  0.00    +0.000 A 
ATOM     29  C   UNL     1      47.183   1.766   7.096  0.00  0.00    +0.000 A 
ATOM     30  C   UNL     1      47.113   3.145   6.907  0.00  0.00    +0.000 A 
ATOM     31  C   UNL     1      46.209   3.906   7.645  0.00  0.00    +0.000 A 
ENDBRANCH  25  26
ENDBRANCH  20  25
ENDBRANCH  19  20
ENDBRANCH   4  19
TORSDOF 12
ENDMDL
MODEL 2
REMARK VINA RESULT:    -7.216      1.683      2.177
REMARK INTER + INTRA:         -13.311
REMARK INTER:                 -12.119
REMARK INTRA:                  -1.192
REMARK UNBOUND:                -1.244
REMARK  Name = 
REMARK  13 active torsions:
REMARK  status: ('A' for Active; 'I' for Inactive)
REMARK    1  A    between atoms: C_1  and  O_2
REMARK    2  A    between atoms: O_2  and  C_3
REMARK    3  A    between atoms: C_7  and  C_8
REMARK    4  A    between atoms: C_8  and  N_9
REMARK    5  A    between atoms: N_9  and  C_10
REMARK    6  A    between atoms: C_10  and  C_11
REMARK    7  A    between atoms: C_14  and  C_15
REMARK    8  A    between atoms: C_15  and  N_16
REMARK    9  A    between atoms: N_16  and  C_17
REMARK   10  A    between atoms: N_16  and  C_20
REMARK   11  A    between atoms: C_17  and  C_18
REMARK   12  A    between atoms: C_18  and  O_19
REMARK   13  A    between atoms: C_20  and  C_21
REMARK                            x       y       z     vdW  Elec       q    Type
REMARK                         _______ _______ _______ _____ _____    ______ ____
ROOT
ATOM      1  C   UNL     1      47.115   8.318  12.958  0.00  0.00    +0.000 A 
ATOM      2  C   UNL     1      47.622   7.242  12.215  0.00  0.00    +0.000 A 
ATOM      3  C   UNL     1      46.764   6.419  11.491  0.00  0.00    +0.000 A 
ATOM      4  C   UNL     1      45.382   6.638  11.529  0.00  0.00    +0.000 A 
ATOM      5  C   UNL     1      44.884   7.768  12.189  0.00  0.00    +0.000 A 
ATOM      6  C   UNL     1      45.744   8.602  12.902  0.00  0.00    +0.000 A 
ENDROOT
BRANCH   1   7
ATOM      7  C   UNL     1      48.037   9.136  13.831  0.00  0.00    +0.000 C 
BRANCH   7   8
ATOM      8  N   UNL     1      47.689   9.091  15.247  0.00  0.00    +0.000 NA
ATOM      9  H   UNL     1      47.289   9.988  15.515  0.00  0.00    +0.000 HD
BRANCH   8  10
ATOM     10  C   UNL     1      48.855   8.815  16.083  0.00  0.00    +0.000 C 
BRANCH  10  15
ATOM     11  C   UNL     1      48.603   5.113  16.908  0.00  0.00    +0.000 A 
ATOM     12  C   UNL     1      48.297   5.232  18.257  0.00  0.00    +0.000 A 
ATOM     13  N   UNL     1      48.195   6.407  18.924  0.00  0.00    +0.000 NA
ATOM     14  C   UNL     1      48.397   7.528  18.195  0.00  0.00    +0.000 A 
ATOM     15  C   UNL     1      48.674   7.529  16.833  0.00  0.00    +0.000 A 
ATOM     16  C   UNL     1      48.795   6.292  16.189  0.00  0.00    +0.000 A 
BRANCH  11  18
ATOM     17  C   UNL     1      48.005   2.831  17.147  0.00  0.00    +0.000 C 
ATOM     18  O   UNL     1      48.674   3.847  16.405  0.00  0.00    +0.000 OA
ENDBRANCH  11  18
ENDBRANCH  10  15
ENDBRANCH   8  10
ENDBRANCH   7   8
ENDBRANCH   1   7
BRANCH   4  19
ATOM     19  C   UNL     1      44.436   5.624  10.929  0.00  0.00    +0.000 C 
BRANCH  19  20
ATOM     20  N   UNL     1      45.093   4.334  10.590  0.00  0.00    +0.000 NA
BRANCH  20  21
ATOM     21  C   UNL     1      44.881   3.327  11.660  0.00  0.00    +0.000 C 
BRANCH  21  22
ATOM     22  C   UNL     1      43.421   3.148  12.122  0.00  0.00    +0.000 C 
BRANCH  22  23
ATOM     23  O   UNL     1      42.900   1.899  11.670  0.00  0.00    +0.000 OA
ATOM     24  H   UNL     1      43.467   1.597  10.940  0.00  0.00    +0.000 HD
ENDBRANCH  22  23
ENDBRANCH  21  22
ENDBRANCH  20  21
BRANCH  20  25
ATOM     25  C   UNL     1      44.559   3.839   9.307  0.00  0.00    +0.000 C 
BRANCH  25  26
ATOM     26  C   UNL     1      45.558   3.078   8.465  0.00  0.00    +0.000 A 
ATOM     27  C   UNL     1      45.718   1.692   8.619  0.00  0.00    +0.000 A 
ATOM     28  C   UNL     1      46.574   0.984   7.776  0.00  0.00    +0.000 A 
ATOM     29  C   UNL     1      47.285   1.654   6.780  0.00  0.00    +0.000 A 
ATOM     30  C   UNL     1      47.159   3.035   6.642  0.00  0.00    +0.000 A 
ATOM     31  C   UNL     1      46.301   3.745   7.479  0.00  0.00    +0.000 A 
ENDBRANCH  25  26
ENDBRANCH  20  25
ENDBRANCH  19  20
ENDBRANCH   4  19
TORSDOF 12
ENDMDL
MODEL 3
REMARK VINA RESULT:    -7.176      1.704      2.292
REMARK INTER + INTRA:         -13.244
REMARK INTER:                 -11.887
REMARK INTRA:                  -1.357
REMARK UNBOUND:                -1.244
REMARK  Name = 
REMARK  13 active torsions:
REMARK  status: ('A' for Active; 'I' for Inactive)
REMARK    1  A    between atoms: C_1  and  O_2
REMARK    2  A    between atoms: O_2  and  C_3
REMARK    3  A    between atoms: C_7  and  C_8
REMARK    4  A    between atoms: C_8  and  N_9
REMARK    5  A    between atoms: N_9  and  C_10
REMARK    6  A    between atoms: C_10  and  C_11
REMARK    7  A    between atoms: C_14  and  C_15
REMARK    8  A    between atoms: C_15  and  N_16
REMARK    9  A    between atoms: N_16  and  C_17
REMARK   10  A    between atoms: N_16  and  C_20
REMARK   11  A    between atoms: C_17  and  C_18
REMARK   12  A    between atoms: C_18  and  O_19
REMARK   13  A    between atoms: C_20  and  C_21
REMARK                            x       y       z     vdW  Elec       q    Type
REMARK                         _______ _______ _______ _____ _____    ______ ____
ROOT
ATOM      1  C   UNL     1      46.875   7.922  12.620  0.00  0.00    +0.000 A 
ATOM      2  C   UNL     1      47.299   6.918  11.739  0.00  0.00    +0.000 A 
ATOM      3  C   UNL     1      46.369   6.166  11.028  0.00  0.00    +0.000 A 
ATOM      4  C   UNL     1      44.999   6.383  11.215  0.00  0.00    +0.000 A 
ATOM      5  C   UNL     1      44.576   7.450  12.019  0.00  0.00    +0.000 A 
ATOM      6  C   UNL     1      45.508   8.213  12.719  0.00  0.00    +0.000 A 
ENDROOT
BRANCH   1   7
ATOM      7  C   UNL     1      47.883   8.656  13.473  0.00  0.00    +0.000 C 
BRANCH   7   8
ATOM      8  N   UNL     1      48.035   8.091  14.810  0.00  0.00    +0.000 NA
ATOM      9  H   UNL     1      48.438   8.798  15.422  0.00  0.00    +0.000 HD
BRANCH   8  10
ATOM     10  C   UNL     1      48.898   6.911  14.804  0.00  0.00    +0.000 C 
BRANCH  10  15
ATOM     11  C   UNL     1      47.923   4.621  17.677  0.00  0.00    +0.000 A 
ATOM     12  C   UNL     1      47.140   3.727  16.959  0.00  0.00    +0.000 A 
ATOM     13  N   UNL     1      46.879   3.822  15.632  0.00  0.00    +0.000 NA
ATOM     14  C   UNL     1      47.448   4.864  14.985  0.00  0.00    +0.000 A 
ATOM     15  C   UNL     1      48.277   5.799  15.595  0.00  0.00    +0.000 A 
ATOM     16  C   UNL     1      48.498   5.677  16.972  0.00  0.00    +0.000 A 
BRANCH  11  18
ATOM     17  C   UNL     1      49.331   4.701  19.582  0.00  0.00    +0.000 C 
ATOM     18  O   UNL     1      48.068   4.374  19.010  0.00  0.00    +0.000 OA
ENDBRANCH  11  18
ENDBRANCH  10  15
ENDBRANCH   8  10
ENDBRANCH   7   8
ENDBRANCH   1   7
BRANCH   4  19
ATOM     19  C   UNL     1      43.990   5.430  10.617  0.00  0.00    +0.000 C 
BRANCH  19  20
ATOM     20  N   UNL     1      44.576   4.119  10.231  0.00  0.00    +0.000 NA
BRANCH  20  21
ATOM     21  C   UNL     1      43.935   3.005  10.974  0.00  0.00    +0.000 C 
BRANCH  21  22
ATOM     22  C   UNL     1      44.095   3.052  12.507  0.00  0.00    +0.000 C 
BRANCH  22  23
ATOM     23  O   UNL     1      45.458   2.850  12.877  0.00  0.00    +0.000 OA
ATOM     24  H   UNL     1      45.610   1.891  12.905  0.00  0.00    +0.000 HD
ENDBRANCH  22  23
ENDBRANCH  21  22
ENDBRANCH  20  21
BRANCH  20  25
ATOM     25  C   UNL     1      44.415   3.925   8.777  0.00  0.00    +0.000 C 
BRANCH  25  26
ATOM     26  C   UNL     1      45.510   3.106   8.130  0.00  0.00    +0.000 A 
ATOM     27  C   UNL     1      46.467   3.713   7.303  0.00  0.00    +0.000 A 
ATOM     28  C   UNL     1      47.525   2.967   6.785  0.00  0.00    +0.000 A 
ATOM     29  C   UNL     1      47.633   1.608   7.081  0.00  0.00    +0.000 A 
ATOM     30  C   UNL     1      46.669   0.989   7.875  0.00  0.00    +0.000 A 
ATOM     31  C   UNL     1      45.612   1.732   8.397  0.00  0.00    +0.000 A 
ENDBRANCH  25  26
ENDBRANCH  20  25
ENDBRANCH  19  20
ENDBRANCH   4  19
TORSDOF 12
ENDMDL
MODEL 4
REMARK VINA RESULT:    -7.137      1.538      2.160
REMARK INTER + INTRA:         -13.179
REMARK INTER:                 -12.379
REMARK INTRA:                  -0.800
REMARK UNBOUND:                -1.244
REMARK  Name = 
REMARK  13 active torsions:
REMARK  status: ('A' for Active; 'I' for Inactive)
REMARK    1  A    between atoms: C_1  and  O_2
REMARK    2  A    between atoms: O_2  and  C_3
REMARK    3  A    between atoms: C_7  and  C_8
REMARK    4  A    between atoms: C_8  and  N_9
REMARK    5  A    between atoms: N_9  and  C_10
REMARK    6  A    between atoms: C_10  and  C_11
REMARK    7  A    between atoms: C_14  and  C_15
REMARK    8  A    between atoms: C_15  and  N_16
REMARK    9  A    between atoms: N_16  and  C_17
REMARK   10  A    between atoms: N_16  and  C_20
REMARK   11  A    between atoms: C_17  and  C_18
REMARK   12  A    between atoms: C_18  and  O_19
REMARK   13  A    between atoms: C_20  and  C_21
REMARK                            x       y       z     vdW  Elec       q    Type
REMARK                         _______ _______ _______ _____ _____    ______ ____
ROOT
ATOM      1  C   UNL     1      47.839   6.167  13.998  0.00  0.00    +0.000 A 
ATOM      2  C   UNL     1      46.928   5.101  13.969  0.00  0.00    +0.000 A 
ATOM      3  C   UNL     1      46.094   4.918  12.871  0.00  0.00    +0.000 A 
ATOM      4  C   UNL     1      46.131   5.819  11.801  0.00  0.00    +0.000 A 
ATOM      5  C   UNL     1      47.106   6.825  11.784  0.00  0.00    +0.000 A 
ATOM      6  C   UNL     1      47.953   7.000  12.877  0.00  0.00    +0.000 A 
ENDROOT
BRANCH   1   7
ATOM      7  C   UNL     1      48.660   6.427  15.239  0.00  0.00    +0.000 C 
BRANCH   7   8
ATOM      8  N   UNL     1      48.050   5.910  16.459  0.00  0.00    +0.000 NA
ATOM      9  H   UNL     1      47.164   6.387  16.612  0.00  0.00    +0.000 HD
BRANCH   8  10
ATOM     10  C   UNL     1      48.911   6.111  17.622  0.00  0.00    +0.000 C 
BRANCH  10  15
ATOM     11  C   UNL     1      50.914   2.885  17.442  0.00  0.00    +0.000 A 
ATOM     12  C   UNL     1      52.178   3.427  17.630  0.00  0.00    +0.000 A 
ATOM     13  N   UNL     1      52.436   4.749  17.780  0.00  0.00    +0.000 NA
ATOM     14  C   UNL     1      51.366   5.574  17.756  0.00  0.00    +0.000 A 
ATOM     15  C   UNL     1      50.053   5.139  17.609  0.00  0.00    +0.000 A 
ATOM     16  C   UNL     1      49.834   3.768  17.431  0.00  0.00    +0.000 A 
BRANCH  11  18
ATOM     17  C   UNL     1      51.986   0.788  17.709  0.00  0.00    +0.000 C 
ATOM     18  O   UNL     1      50.843   1.531  17.298  0.00  0.00    +0.000 OA
ENDBRANCH  11  18
ENDBRANCH  10  15
ENDBRANCH   8  10
ENDBRANCH   7   8
ENDBRANCH   1   7
BRANCH   4  19
ATOM     19  C   UNL     1      45.083   5.753  10.714  0.00  0.00    +0.000 C 
BRANCH  19  20
ATOM     20  N   UNL     1      44.741   4.363  10.310  0.00  0.00    +0.000 NA
BRANCH  20  21
ATOM     21  C   UNL     1      43.462   3.925  10.923  0.00  0.00    +0.000 C 
BRANCH  21  22
ATOM     22  C   UNL     1      43.584   2.835  12.006  0.00  0.00    +0.000 C 
BRANCH  22  23
ATOM     23  O   UNL     1      42.955   1.628  11.577  0.00  0.00    +0.000 OA
ATOM     24  H   UNL     1      43.542   0.893  11.823  0.00  0.00    +0.000 HD
ENDBRANCH  22  23
ENDBRANCH  21  22
ENDBRANCH  20  21
BRANCH  20  25
ATOM     25  C   UNL     1      44.655   4.293   8.839  0.00  0.00    +0.000 C 
BRANCH  25  26
ATOM     26  C   UNL     1      45.585   3.283   8.205  0.00  0.00    +0.000 A 
ATOM     27  C   UNL     1      46.570   3.688   7.292  0.00  0.00    +0.000 A 
ATOM     28  C   UNL     1      47.482   2.764   6.783  0.00  0.00    +0.000 A 
ATOM     29  C   UNL     1      47.413   1.427   7.174  0.00  0.00    +0.000 A 
ATOM     30  C   UNL     1      46.417   1.008   8.055  0.00  0.00    +0.000 A 
ATOM     31  C   UNL     1      45.507   1.930   8.569  0.00  0.00    +0.000 A 
ENDBRANCH  25  26
ENDBRANCH  20  25
ENDBRANCH  19  20
ENDBRANCH   4  19
TORSDOF 12
ENDMDL
MODEL 5
REMARK VINA RESULT:    -6.465      1.917      2.572
REMARK INTER + INTRA:         -12.056
REMARK INTER:                 -10.694
REMARK INTRA:                  -1.363
REMARK UNBOUND:                -1.244
REMARK  Name = 
REMARK  13 active torsions:
REMARK  status: ('A' for Active; 'I' for Inactive)
REMARK    1  A    between atoms: C_1  and  O_2
REMARK    2  A    between atoms: O_2  and  C_3
REMARK    3  A    between atoms: C_7  and  C_8
REMARK    4  A    between atoms: C_8  and  N_9
REMARK    5  A    between atoms: N_9  and  C_10
REMARK    6  A    between atoms: C_10  and  C_11
REMARK    7  A    between atoms: C_14  and  C_15
REMARK    8  A    between atoms: C_15  and  N_16
REMARK    9  A    between atoms: N_16  and  C_17
REMARK   10  A    between atoms: N_16  and  C_20
REMARK   11  A    between atoms: C_17  and  C_18
REMARK   12  A    between atoms: C_18  and  O_19
REMARK   13  A    between atoms: C_20  and  C_21
REMARK                            x       y       z     vdW  Elec       q    Type
REMARK                         _______ _______ _______ _____ _____    ______ ____
ROOT
ATOM      1  C   UNL     1      48.936   8.430  13.270  0.00  0.00    +0.000 A 
ATOM      2  C   UNL     1      48.944   7.550  12.178  0.00  0.00    +0.000 A 
ATOM      3  C   UNL     1      47.749   7.126  11.607  0.00  0.00    +0.000 A 
ATOM      4  C   UNL     1      46.526   7.546  12.142  0.00  0.00    +0.000 A 
ATOM      5  C   UNL     1      46.517   8.500  13.168  0.00  0.00    +0.000 A 
ATOM      6  C   UNL     1      47.715   8.937  13.731  0.00  0.00    +0.000 A 
ENDROOT
BRANCH   1   7
ATOM      7  C   UNL     1      50.231   8.796  13.957  0.00  0.00    +0.000 C 
BRANCH   7   8
ATOM      8  N   UNL     1      51.099   7.651  14.210  0.00  0.00    +0.000 NA
ATOM      9  H   UNL     1      50.554   6.797  14.114  0.00  0.00    +0.000 HD
BRANCH   8  10
ATOM     10  C   UNL     1      51.683   7.700  15.549  0.00  0.00    +0.000 C 
BRANCH  10  15
ATOM     11  C   UNL     1      49.641   4.946  17.192  0.00  0.00    +0.000 A 
ATOM     12  C   UNL     1      50.683   4.272  17.813  0.00  0.00    +0.000 A 
ATOM     13  N   UNL     1      51.991   4.618  17.720  0.00  0.00    +0.000 NA
ATOM     14  C   UNL     1      52.268   5.711  16.974  0.00  0.00    +0.000 A 
ATOM     15  C   UNL     1      51.302   6.481  16.336  0.00  0.00    +0.000 A 
ATOM     16  C   UNL     1      49.967   6.072  16.437  0.00  0.00    +0.000 A 
BRANCH  11  18
ATOM     17  C   UNL     1      48.069   3.240  16.705  0.00  0.00    +0.000 C 
ATOM     18  O   UNL     1      48.387   4.448  17.388  0.00  0.00    +0.000 OA
ENDBRANCH  11  18
ENDBRANCH  10  15
ENDBRANCH   8  10
ENDBRANCH   7   8
ENDBRANCH   1   7
BRANCH   4  19
ATOM     19  C   UNL     1      45.234   6.920  11.669  0.00  0.00    +0.000 C 
BRANCH  19  20
ATOM     20  N   UNL     1      45.283   5.434  11.625  0.00  0.00    +0.000 NA
BRANCH  20  21
ATOM     21  C   UNL     1      44.859   4.845  12.920  0.00  0.00    +0.000 C 
BRANCH  21  22
ATOM     22  C   UNL     1      43.408   4.325  12.969  0.00  0.00    +0.000 C 
BRANCH  22  23
ATOM     23  O   UNL     1      42.542   5.305  13.539  0.00  0.00    +0.000 OA
ATOM     24  H   UNL     1      42.227   4.952  14.388  0.00  0.00    +0.000 HD
ENDBRANCH  22  23
ENDBRANCH  21  22
ENDBRANCH  20  21
BRANCH  20  25
ATOM     25  C   UNL     1      44.414   4.953  10.534  0.00  0.00    +0.000 C 
BRANCH  25  26
ATOM     26  C   UNL     1      45.091   4.010   9.564  0.00  0.00    +0.000 A 
ATOM     27  C   UNL     1      44.976   2.620   9.715  0.00  0.00    +0.000 A 
ATOM     28  C   UNL     1      45.527   1.761   8.764  0.00  0.00    +0.000 A 
ATOM     29  C   UNL     1      46.206   2.281   7.662  0.00  0.00    +0.000 A 
ATOM     30  C   UNL     1      46.354   3.660   7.522  0.00  0.00    +0.000 A 
ATOM     31  C   UNL     1      45.801   4.521   8.467  0.00  0.00    +0.000 A 
ENDBRANCH  25  26
ENDBRANCH  20  25
ENDBRANCH  19  20
ENDBRANCH   4  19
TORSDOF 12
ENDMDL
MODEL 6
REMARK VINA RESULT:    -6.416      3.014      8.260
REMARK INTER + INTRA:         -11.974
REMARK INTER:                 -10.460
REMARK INTRA:                  -1.514
REMARK UNBOUND:                -1.244
REMARK  Name = 
REMARK  13 active torsions:
REMARK  status: ('A' for Active; 'I' for Inactive)
REMARK    1  A    between atoms: C_1  and  O_2
REMARK    2  A    between atoms: O_2  and  C_3
REMARK    3  A    between atoms: C_7  and  C_8
REMARK    4  A    between atoms: C_8  and  N_9
REMARK    5  A    between atoms: N_9  and  C_10
REMARK    6  A    between atoms: C_10  and  C_11
REMARK    7  A    between atoms: C_14  and  C_15
REMARK    8  A    between atoms: C_15  and  N_16
REMARK    9  A    between atoms: N_16  and  C_17
REMARK   10  A    between atoms: N_16  and  C_20
REMARK   11  A    between atoms: C_17  and  C_18
REMARK   12  A    between atoms: C_18  and  O_19
REMARK   13  A    between atoms: C_20  and  C_21
REMARK                            x       y       z     vdW  Elec       q    Type
REMARK                         _______ _______ _______ _____ _____    ______ ____
ROOT
ATOM      1  C   UNL     1      44.420   5.010  12.674  0.00  0.00    +0.000 A 
ATOM      2  C   UNL     1      45.611   4.806  13.386  0.00  0.00    +0.000 A 
ATOM      3  C   UNL     1      46.586   5.798  13.425  0.00  0.00    +0.000 A 
ATOM      4  C   UNL     1      46.401   6.994  12.723  0.00  0.00    +0.000 A 
ATOM      5  C   UNL     1      45.174   7.239  12.094  0.00  0.00    +0.000 A 
ATOM      6  C   UNL     1      44.190   6.252  12.067  0.00  0.00    +0.000 A 
ENDROOT
BRANCH   1   7
ATOM      7  C   UNL     1      43.417   3.889  12.541  0.00  0.00    +0.000 C 
BRANCH   7   8
ATOM      8  N   UNL     1      43.120   3.535  11.156  0.00  0.00    +0.000 NA
ATOM      9  H   UNL     1      42.134   3.294  11.083  0.00  0.00    +0.000 HD
BRANCH   8  10
ATOM     10  C   UNL     1      43.926   2.403  10.703  0.00  0.00    +0.000 C 
BRANCH  10  15
ATOM     11  C   UNL     1      46.262   2.227   7.708  0.00  0.00    +0.000 A 
ATOM     12  C   UNL     1      46.291   3.581   7.401  0.00  0.00    +0.000 A 
ATOM     13  N   UNL     1      45.597   4.538   8.064  0.00  0.00    +0.000 NA
ATOM     14  C   UNL     1      44.841   4.116   9.103  0.00  0.00    +0.000 A 
ATOM     15  C   UNL     1      44.763   2.792   9.520  0.00  0.00    +0.000 A 
ATOM     16  C   UNL     1      45.477   1.833   8.791  0.00  0.00    +0.000 A 
BRANCH  11  18
ATOM     17  C   UNL     1      48.151   1.994   6.295  0.00  0.00    +0.000 C 
ATOM     18  O   UNL     1      47.018   1.405   6.925  0.00  0.00    +0.000 OA
ENDBRANCH  11  18
ENDBRANCH  10  15
ENDBRANCH   8  10
ENDBRANCH   7   8
ENDBRANCH   1   7
BRANCH   4  19
ATOM     19  C   UNL     1      47.541   7.977  12.582  0.00  0.00    +0.000 C 
BRANCH  19  20
ATOM     20  N   UNL     1      48.863   7.400  12.944  0.00  0.00    +0.000 NA
BRANCH  20  21
ATOM     21  C   UNL     1      49.800   7.442  11.793  0.00  0.00    +0.000 C 
BRANCH  21  22
ATOM     22  C   UNL     1      50.973   8.434  11.929  0.00  0.00    +0.000 C 
BRANCH  22  23
ATOM     23  O   UNL     1      52.217   7.738  11.971  0.00  0.00    +0.000 OA
ATOM     24  H   UNL     1      52.698   8.053  12.755  0.00  0.00    +0.000 HD
ENDBRANCH  22  23
ENDBRANCH  21  22
ENDBRANCH  20  21
BRANCH  20  25
ATOM     25  C   UNL     1      49.421   8.146  14.087  0.00  0.00    +0.000 C 
BRANCH  25  26
ATOM     26  C   UNL     1      49.850   7.280  15.250  0.00  0.00    +0.000 A 
ATOM     27  C   UNL     1      48.913   6.511  15.957  0.00  0.00    +0.000 A 
ATOM     28  C   UNL     1      49.331   5.646  16.968  0.00  0.00    +0.000 A 
ATOM     29  C   UNL     1      50.685   5.548  17.289  0.00  0.00    +0.000 A 
ATOM     30  C   UNL     1      51.619   6.332  16.615  0.00  0.00    +0.000 A 
ATOM     31  C   UNL     1      51.206   7.195  15.602  0.00  0.00    +0.000 A 
ENDBRANCH  25  26
ENDBRANCH  20  25
ENDBRANCH  19  20
ENDBRANCH   4  19
TORSDOF 12
ENDMDL
MODEL 7
REMARK VINA RESULT:    -6.358      2.616      3.515
REMARK INTER + INTRA:         -11.876
REMARK INTER:                 -11.326
REMARK INTRA:                  -0.550
REMARK UNBOUND:                -1.244
REMARK  Name = 
REMARK  13 active torsions:
REMARK  status: ('A' for Active; 'I' for Inactive)
REMARK    1  A    between atoms: C_1  and  O_2
REMARK    2  A    between atoms: O_2  and  C_3
REMARK    3  A    between atoms: C_7  and  C_8
REMARK    4  A    between atoms: C_8  and  N_9
REMARK    5  A    between atoms: N_9  and  C_10
REMARK    6  A    between atoms: C_10  and  C_11
REMARK    7  A    between atoms: C_14  and  C_15
REMARK    8  A    between atoms: C_15  and  N_16
REMARK    9  A    between atoms: N_16  and  C_17
REMARK   10  A    between atoms: N_16  and  C_20
REMARK   11  A    between atoms: C_17  and  C_18
REMARK   12  A    between atoms: C_18  and  O_19
REMARK   13  A    between atoms: C_20  and  C_21
REMARK                            x       y       z     vdW  Elec       q    Type
REMARK                         _______ _______ _______ _____ _____    ______ ____
ROOT
ATOM      1  C   UNL     1      47.775   6.563  13.723  0.00  0.00    +0.000 A 
ATOM      2  C   UNL     1      47.417   7.583  12.830  0.00  0.00    +0.000 A 
ATOM      3  C   UNL     1      46.517   7.331  11.799  0.00  0.00    +0.000 A 
ATOM      4  C   UNL     1      45.989   6.047  11.624  0.00  0.00    +0.000 A 
ATOM      5  C   UNL     1      46.269   5.054  12.572  0.00  0.00    +0.000 A 
ATOM      6  C   UNL     1      47.159   5.310  13.614  0.00  0.00    +0.000 A 
ENDROOT
BRANCH   1   7
ATOM      7  C   UNL     1      48.838   6.811  14.768  0.00  0.00    +0.000 C 
BRANCH   7   8
ATOM      8  N   UNL     1      48.300   7.246  16.053  0.00  0.00    +0.000 NA
ATOM      9  H   UNL     1      47.970   8.205  15.963  0.00  0.00    +0.000 HD
BRANCH   8  10
ATOM     10  C   UNL     1      49.306   7.182  17.111  0.00  0.00    +0.000 C 
BRANCH  10  15
ATOM     11  C   UNL     1      48.027   8.191  20.545  0.00  0.00    +0.000 A 
ATOM     12  C   UNL     1      47.473   6.973  20.915  0.00  0.00    +0.000 A 
ATOM     13  N   UNL     1      47.454   5.865  20.134  0.00  0.00    +0.000 NA
ATOM     14  C   UNL     1      48.037   5.980  18.920  0.00  0.00    +0.000 A 
ATOM     15  C   UNL     1      48.652   7.139  18.460  0.00  0.00    +0.000 A 
ATOM     16  C   UNL     1      48.626   8.267  19.288  0.00  0.00    +0.000 A 
BRANCH  11  18
ATOM     17  C   UNL     1      46.645   9.514  21.945  0.00  0.00    +0.000 C 
ATOM     18  O   UNL     1      47.946   9.203  21.456  0.00  0.00    +0.000 OA
ENDBRANCH  11  18
ENDBRANCH  10  15
ENDBRANCH   8  10
ENDBRANCH   7   8
ENDBRANCH   1   7
BRANCH   4  19
ATOM     19  C   UNL     1      45.189   5.717  10.386  0.00  0.00    +0.000 C 
BRANCH  19  20
ATOM     20  N   UNL     1      44.735   4.301  10.339  0.00  0.00    +0.000 NA
BRANCH  20  21
ATOM     21  C   UNL     1      43.512   4.103  11.157  0.00  0.00    +0.000 C 
BRANCH  21  22
ATOM     22  C   UNL     1      43.545   2.899  12.119  0.00  0.00    +0.000 C 
BRANCH  22  23
ATOM     23  O   UNL     1      42.824   1.797  11.571  0.00  0.00    +0.000 OA
ATOM     24  H   UNL     1      43.101   1.001  12.055  0.00  0.00    +0.000 HD
ENDBRANCH  22  23
ENDBRANCH  21  22
ENDBRANCH  20  21
BRANCH  20  25
ATOM     25  C   UNL     1      44.481   3.919   8.937  0.00  0.00    +0.000 C 
BRANCH  25  26
ATOM     26  C   UNL     1      45.583   3.100   8.302  0.00  0.00    +0.000 A 
ATOM     27  C   UNL     1      45.678   1.720   8.538  0.00  0.00    +0.000 A 
ATOM     28  C   UNL     1      46.641   0.958   7.877  0.00  0.00    +0.000 A 
ATOM     29  C   UNL     1      47.523   1.567   6.984  0.00  0.00    +0.000 A 
ATOM     30  C   UNL     1      47.458   2.943   6.769  0.00  0.00    +0.000 A 
ATOM     31  C   UNL     1      46.494   3.707   7.424  0.00  0.00    +0.000 A 
ENDBRANCH  25  26
ENDBRANCH  20  25
ENDBRANCH  19  20
ENDBRANCH   4  19
TORSDOF 12
ENDMDL
MODEL 8
REMARK VINA RESULT:    -6.306      2.197      2.633
REMARK INTER + INTRA:         -11.789
REMARK INTER:                 -10.742
REMARK INTRA:                  -1.047
REMARK UNBOUND:                -1.244
REMARK  Name = 
REMARK  13 active torsions:
REMARK  status: ('A' for Active; 'I' for Inactive)
REMARK    1  A    between atoms: C_1  and  O_2
REMARK    2  A    between atoms: O_2  and  C_3
REMARK    3  A    between atoms: C_7  and  C_8
REMARK    4  A    between atoms: C_8  and  N_9
REMARK    5  A    between atoms: N_9  and  C_10
REMARK    6  A    between atoms: C_10  and  C_11
REMARK    7  A    between atoms: C_14  and  C_15
REMARK    8  A    between atoms: C_15  and  N_16
REMARK    9  A    between atoms: N_16  and  C_17
REMARK   10  A    between atoms: N_16  and  C_20
REMARK   11  A    between atoms: C_17  and  C_18
REMARK   12  A    between atoms: C_18  and  O_19
REMARK   13  A    between atoms: C_20  and  C_21
REMARK                            x       y       z     vdW  Elec       q    Type
REMARK                         _______ _______ _______ _____ _____    ______ ____
ROOT
ATOM      1  C   UNL     1      49.182   7.325  13.450  0.00  0.00    +0.000 A 
ATOM      2  C   UNL     1      48.216   6.533  14.087  0.00  0.00    +0.000 A 
ATOM      3  C   UNL     1      47.081   6.118  13.398  0.00  0.00    +0.000 A 
ATOM      4  C   UNL     1      46.876   6.518  12.073  0.00  0.00    +0.000 A 
ATOM      5  C   UNL     1      47.885   7.226  11.406  0.00  0.00    +0.000 A 
ATOM      6  C   UNL     1      49.030   7.629  12.091  0.00  0.00    +0.000 A 
ENDROOT
BRANCH   1   7
ATOM      7  C   UNL     1      50.354   7.866  14.235  0.00  0.00    +0.000 C 
BRANCH   7   8
ATOM      8  N   UNL     1      50.862   6.936  15.238  0.00  0.00    +0.000 NA
ATOM      9  H   UNL     1      50.189   6.182  15.357  0.00  0.00    +0.000 HD
BRANCH   8  10
ATOM     10  C   UNL     1      51.081   7.594  16.524  0.00  0.00    +0.000 C 
BRANCH  10  15
ATOM     11  C   UNL     1      48.472   6.206  18.915  0.00  0.00    +0.000 A 
ATOM     12  C   UNL     1      47.617   7.299  18.931  0.00  0.00    +0.000 A 
ATOM     13  N   UNL     1      47.831   8.455  18.257  0.00  0.00    +0.000 NA
ATOM     14  C   UNL     1      48.958   8.513  17.512  0.00  0.00    +0.000 A 
ATOM     15  C   UNL     1      49.867   7.468  17.395  0.00  0.00    +0.000 A 
ATOM     16  C   UNL     1      49.620   6.301  18.129  0.00  0.00    +0.000 A 
BRANCH  11  18
ATOM     17  C   UNL     1      49.022   4.704  20.665  0.00  0.00    +0.000 C 
ATOM     18  O   UNL     1      48.102   5.127  19.664  0.00  0.00    +0.000 OA
ENDBRANCH  11  18
ENDBRANCH  10  15
ENDBRANCH   8  10
ENDBRANCH   7   8
ENDBRANCH   1   7
BRANCH   4  19
ATOM     19  C   UNL     1      45.551   6.256  11.395  0.00  0.00    +0.000 C 
BRANCH  19  20
ATOM     20  N   UNL     1      45.250   4.809  11.233  0.00  0.00    +0.000 NA
BRANCH  20  21
ATOM     21  C   UNL     1      44.420   4.305  12.356  0.00  0.00    +0.000 C 
BRANCH  21  22
ATOM     22  C   UNL     1      42.934   4.717  12.319  0.00  0.00    +0.000 C 
BRANCH  22  23
ATOM     23  O   UNL     1      42.579   5.424  13.507  0.00  0.00    +0.000 OA
ATOM     24  H   UNL     1      42.233   6.291  13.233  0.00  0.00    +0.000 HD
ENDBRANCH  22  23
ENDBRANCH  21  22
ENDBRANCH  20  21
BRANCH  20  25
ATOM     25  C   UNL     1      44.555   4.599   9.948  0.00  0.00    +0.000 C 
BRANCH  25  26
ATOM     26  C   UNL     1      45.302   3.719   8.970  0.00  0.00    +0.000 A 
ATOM     27  C   UNL     1      46.055   4.282   7.929  0.00  0.00    +0.000 A 
ATOM     28  C   UNL     1      46.814   3.468   7.089  0.00  0.00    +0.000 A 
ATOM     29  C   UNL     1      46.819   2.085   7.274  0.00  0.00    +0.000 A 
ATOM     30  C   UNL     1      46.047   1.514   8.284  0.00  0.00    +0.000 A 
ATOM     31  C   UNL     1      45.292   2.325   9.128  0.00  0.00    +0.000 A 
ENDBRANCH  25  26
ENDBRANCH  20  25
ENDBRANCH  19  20
ENDBRANCH   4  19
TORSDOF 12
ENDMDL
