MODEL 1
REMARK VINA RESULT:    -7.803      0.000      0.000
REMARK INTER + INTRA:         -11.049
REMARK INTER:                 -10.312
REMARK INTRA:                  -0.736
REMARK UNBOUND:                -0.736
REMARK  Name = 
REMARK  6 active torsions:
REMARK  status: ('A' for Active; 'I' for Inactive)
REMARK    1  A    between atoms: C_2  and  O_3
REMARK    2  A    between atoms: C_2  and  C_4
REMARK    3  A    between atoms: C_8  and  O_9
REMARK    4  A    between atoms: O_9  and  C_10
REMARK    5  A    between atoms: C_10  and  C_11
REMARK    6  A    between atoms: C_15  and  N_16
REMARK                            x       y       z     vdW  Elec       q    Type
REMARK                         _______ _______ _______ _____ _____    ______ ____
ROOT
ATOM      1  C   UNL     1      44.357   4.243  11.828  0.00  0.00    +0.000 C 
ATOM      2  C   UNL     1      43.223   3.947  12.818  0.00  0.00    +0.000 C 
ATOM      3  C   UNL     1      43.057   5.021  11.800  0.00  0.00    +0.000 C 
ENDROOT
BRANCH   1   4
ATOM      4  C   UNL     1      45.597   4.923  12.384  0.00  0.00    +0.000 A 
ATOM      5  C   UNL     1      46.196   6.021  11.758  0.00  0.00    +0.000 A 
ATOM      6  C   UNL     1      47.249   6.705  12.363  0.00  0.00    +0.000 A 
ATOM      7  C   UNL     1      47.713   6.311  13.621  0.00  0.00    +0.000 A 
ATOM      8  C   UNL     1      47.165   5.209  14.285  0.00  0.00    +0.000 A 
ATOM      9  C   UNL     1      46.148   4.511  13.613  0.00  0.00    +0.000 A 
BRANCH   8  10
ATOM     10  N   UNL     1      47.587   4.775  15.533  0.00  0.00    +0.000 N 
ATOM     11  C   UNL     1      47.723   3.353  15.846  0.00  0.00    +0.000 C 
ATOM     12  C   UNL     1      47.348   3.153  17.317  0.00  0.00    +0.000 C 
ATOM     13  C   UNL     1      48.159   4.060  18.242  0.00  0.00    +0.000 C 
ATOM     14  C   UNL     1      48.106   5.518  17.789  0.00  0.00    +0.000 C 
ATOM     15  C   UNL     1      48.474   5.650  16.314  0.00  0.00    +0.000 C 
ENDBRANCH   8  10
ENDBRANCH   1   4
BRANCH   1  16
ATOM     16  O   UNL     1      44.551   3.102  10.965  0.00  0.00    +0.000 OA
BRANCH  16  21
ATOM     17  C   UNL     1      46.269   1.978   7.987  0.00  0.00    +0.000 A 
ATOM     18  C   UNL     1      46.315   3.124   7.193  0.00  0.00    +0.000 A 
ATOM     19  C   UNL     1      45.745   4.311   7.660  0.00  0.00    +0.000 A 
ATOM     20  C   UNL     1      45.131   4.356   8.919  0.00  0.00    +0.000 A 
ATOM     21  C   UNL     1      45.113   3.222   9.724  0.00  0.00    +0.000 A 
ATOM     22  C   UNL     1      45.692   2.039   9.258  0.00  0.00    +0.000 A 
BRANCH  17  24
ATOM     23  O   UNL     1      46.598  -0.371   7.949  0.00  0.00    +0.000 OA
ATOM     24  C   UNL     1      46.848   0.723   7.467  0.00  0.00    +0.000 C 
BRANCH  24  25
ATOM     25  O   UNL     1      47.724   0.903   6.455  0.00  0.00    +0.000 OA
ATOM     26  H   UNL     1      48.212   0.102   6.187  0.00  0.00    +0.000 HD
ENDBRANCH  24  25
ENDBRANCH  17  24
ENDBRANCH  16  21
ENDBRANCH   1  16
TORSDOF 6
ENDMDL
MODEL 2
REMARK VINA RESULT:    -7.434      3.183      7.491
REMARK INTER + INTRA:         -10.561
REMARK INTER:                  -9.471
REMARK INTRA:                  -1.090
REMARK UNBOUND:                -0.736
REMARK  Name = 
REMARK  6 active torsions:
REMARK  status: ('A' for Active; 'I' for Inactive)
REMARK    1  A    between atoms: C_2  and  O_3
REMARK    2  A    between atoms: C_2  and  C_4
REMARK    3  A    between atoms: C_8  and  O_9
REMARK    4  A    between atoms: O_9  and  C_10
REMARK    5  A    between atoms: C_10  and  C_11
REMARK    6  A    between atoms: C_15  and  N_16
REMARK                            x       y       z     vdW  Elec       q    Type
REMARK                         _______ _______ _______ _____ _____    ______ ____
ROOT
ATOM      1  C   UNL     1      46.307   7.115  12.747  0.00  0.00    +0.000 C 
ATOM      2  C   UNL     1      46.362   8.383  11.885  0.00  0.00    +0.000 C 
ATOM      3  C   UNL     1      45.710   8.424  13.223  0.00  0.00    +0.000 C 
ENDROOT
BRANCH   1   4
ATOM      4  C   UNL     1      45.366   6.012  12.290  0.00  0.00    +0.000 A 
ATOM      5  C   UNL     1      44.121   5.793  12.889  0.00  0.00    +0.000 A 
ATOM      6  C   UNL     1      43.226   4.864  12.361  0.00  0.00    +0.000 A 
ATOM      7  C   UNL     1      43.556   4.146  11.208  0.00  0.00    +0.000 A 
ATOM      8  C   UNL     1      44.794   4.310  10.580  0.00  0.00    +0.000 A 
ATOM      9  C   UNL     1      45.690   5.211  11.179  0.00  0.00    +0.000 A 
BRANCH   8  10
ATOM     10  N   UNL     1      45.172   3.624   9.435  0.00  0.00    +0.000 N 
ATOM     11  C   UNL     1      44.761   2.241   9.198  0.00  0.00    +0.000 C 
ATOM     12  C   UNL     1      45.898   1.528   8.460  0.00  0.00    +0.000 C 
ATOM     13  C   UNL     1      46.305   2.268   7.186  0.00  0.00    +0.000 C 
ATOM     14  C   UNL     1      46.584   3.746   7.458  0.00  0.00    +0.000 C 
ATOM     15  C   UNL     1      45.424   4.396   8.208  0.00  0.00    +0.000 C 
ENDBRANCH   8  10
ENDBRANCH   1   4
BRANCH   1  16
ATOM     16  O   UNL     1      47.646   6.736  13.127  0.00  0.00    +0.000 OA
BRANCH  16  21
ATOM     17  C   UNL     1      48.005   4.794  16.158  0.00  0.00    +0.000 A 
ATOM     18  C   UNL     1      48.601   5.693  17.045  0.00  0.00    +0.000 A 
ATOM     19  C   UNL     1      48.904   6.988  16.616  0.00  0.00    +0.000 A 
ATOM     20  C   UNL     1      48.611   7.387  15.305  0.00  0.00    +0.000 A 
ATOM     21  C   UNL     1      47.988   6.502  14.431  0.00  0.00    +0.000 A 
ATOM     22  C   UNL     1      47.679   5.211  14.865  0.00  0.00    +0.000 A 
BRANCH  17  24
ATOM     23  O   UNL     1      48.441   2.470  16.349  0.00  0.00    +0.000 OA
ATOM     24  C   UNL     1      47.721   3.419  16.617  0.00  0.00    +0.000 C 
BRANCH  24  25
ATOM     25  O   UNL     1      46.562   3.300  17.300  0.00  0.00    +0.000 OA
ATOM     26  H   UNL     1      46.414   2.426  17.707  0.00  0.00    +0.000 HD
ENDBRANCH  24  25
ENDBRANCH  17  24
ENDBRANCH  16  21
ENDBRANCH   1  16
TORSDOF 6
ENDMDL
MODEL 3
REMARK VINA RESULT:    -7.350      3.979      7.627
REMARK INTER + INTRA:         -10.450
REMARK INTER:                  -9.257
REMARK INTRA:                  -1.193
REMARK UNBOUND:                -0.736
REMARK  Name = 
REMARK  6 active torsions:
REMARK  status: ('A' for Active; 'I' for Inactive)
REMARK    1  A    between atoms: C_2  and  O_3
REMARK    2  A    between atoms: C_2  and  C_4
REMARK    3  A    between atoms: C_8  and  O_9
REMARK    4  A    between atoms: O_9  and  C_10
REMARK    5  A    between atoms: C_10  and  C_11
REMARK    6  A    between atoms: C_15  and  N_16
REMARK                            x       y       z     vdW  Elec       q    Type
REMARK                         _______ _______ _______ _____ _____    ______ ____
ROOT
ATOM      1  C   UNL     1      46.401   6.998  12.706  0.00  0.00    +0.000 C 
ATOM      2  C   UNL     1      47.533   6.588  13.657  0.00  0.00    +0.000 C 
ATOM      3  C   UNL     1      47.843   6.938  12.243  0.00  0.00    +0.000 C 
ENDROOT
BRANCH   1   4
ATOM      4  C   UNL     1      45.449   5.902  12.257  0.00  0.00    +0.000 A 
ATOM      5  C   UNL     1      44.210   5.687  12.870  0.00  0.00    +0.000 A 
ATOM      6  C   UNL     1      43.304   4.765  12.350  0.00  0.00    +0.000 A 
ATOM      7  C   UNL     1      43.614   4.051  11.190  0.00  0.00    +0.000 A 
ATOM      8  C   UNL     1      44.845   4.212  10.546  0.00  0.00    +0.000 A 
ATOM      9  C   UNL     1      45.753   5.105  11.138  0.00  0.00    +0.000 A 
BRANCH   8  10
ATOM     10  N   UNL     1      45.204   3.529   9.393  0.00  0.00    +0.000 N 
ATOM     11  C   UNL     1      44.797   2.144   9.163  0.00  0.00    +0.000 C 
ATOM     12  C   UNL     1      45.923   1.438   8.401  0.00  0.00    +0.000 C 
ATOM     13  C   UNL     1      46.300   2.183   7.120  0.00  0.00    +0.000 C 
ATOM     14  C   UNL     1      46.576   3.662   7.389  0.00  0.00    +0.000 C 
ATOM     15  C   UNL     1      45.427   4.304   8.163  0.00  0.00    +0.000 C 
ENDBRANCH   8  10
ENDBRANCH   1   4
BRANCH   1  16
ATOM     16  O   UNL     1      45.824   8.242  13.156  0.00  0.00    +0.000 OA
BRANCH  16  21
ATOM     17  C   UNL     1      43.819  10.222  10.888  0.00  0.00    +0.000 A 
ATOM     18  C   UNL     1      44.682  11.255  10.518  0.00  0.00    +0.000 A 
ATOM     19  C   UNL     1      45.973  11.300  11.049  0.00  0.00    +0.000 A 
ATOM     20  C   UNL     1      46.405  10.315  11.948  0.00  0.00    +0.000 A 
ATOM     21  C   UNL     1      45.557   9.268  12.293  0.00  0.00    +0.000 A 
ATOM     22  C   UNL     1      44.268   9.221  11.753  0.00  0.00    +0.000 A 
BRANCH  17  24
ATOM     23  O   UNL     1      42.086  10.942   9.437  0.00  0.00    +0.000 OA
ATOM     24  C   UNL     1      42.447  10.206  10.342  0.00  0.00    +0.000 C 
BRANCH  24  25
ATOM     25  O   UNL     1      41.617   9.351  10.977  0.00  0.00    +0.000 OA
ATOM     26  H   UNL     1      40.871   9.773  11.444  0.00  0.00    +0.000 HD
ENDBRANCH  24  25
ENDBRANCH  17  24
ENDBRANCH  16  21
ENDBRANCH   1  16
TORSDOF 6
ENDMDL
MODEL 4
REMARK VINA RESULT:    -7.065      2.154      2.964
REMARK INTER + INTRA:         -10.073
REMARK INTER:                  -9.803
REMARK INTRA:                  -0.270
REMARK UNBOUND:                -0.736
REMARK  Name = 
REMARK  6 active torsions:
REMARK  status: ('A' for Active; 'I' for Inactive)
REMARK    1  A    between atoms: C_2  and  O_3
REMARK    2  A    between atoms: C_2  and  C_4
REMARK    3  A    between atoms: C_8  and  O_9
REMARK    4  A    between atoms: O_9  and  C_10
REMARK    5  A    between atoms: C_10  and  C_11
REMARK    6  A    between atoms: C_15  and  N_16
REMARK                            x       y       z     vdW  Elec       q    Type
REMARK                         _______ _______ _______ _____ _____    ______ ____
ROOT
ATOM      1  C   UNL     1      44.238   3.819  11.346  0.00  0.00    +0.000 C 
ATOM      2  C   UNL     1      45.019   2.809  12.198  0.00  0.00    +0.000 C 
ATOM      3  C   UNL     1      43.615   3.152  12.556  0.00  0.00    +0.000 C 
ENDROOT
BRANCH   1   4
ATOM      4  C   UNL     1      44.653   5.277  11.454  0.00  0.00    +0.000 A 
ATOM      5  C   UNL     1      43.756   6.329  11.244  0.00  0.00    +0.000 A 
ATOM      6  C   UNL     1      44.131   7.650  11.482  0.00  0.00    +0.000 A 
ATOM      7  C   UNL     1      45.414   7.941  11.955  0.00  0.00    +0.000 A 
ATOM      8  C   UNL     1      46.357   6.932  12.165  0.00  0.00    +0.000 A 
ATOM      9  C   UNL     1      45.957   5.622  11.854  0.00  0.00    +0.000 A 
BRANCH   8  10
ATOM     10  N   UNL     1      47.643   7.165  12.632  0.00  0.00    +0.000 N 
ATOM     11  C   UNL     1      48.209   6.396  13.739  0.00  0.00    +0.000 C 
ATOM     12  C   UNL     1      49.119   7.325  14.547  0.00  0.00    +0.000 C 
ATOM     13  C   UNL     1      50.175   7.996  13.668  0.00  0.00    +0.000 C 
ATOM     14  C   UNL     1      49.549   8.663  12.444  0.00  0.00    +0.000 C 
ATOM     15  C   UNL     1      48.643   7.693  11.692  0.00  0.00    +0.000 C 
ENDBRANCH   8  10
ENDBRANCH   1   4
BRANCH   1  16
ATOM     16  O   UNL     1      44.039   3.277  10.023  0.00  0.00    +0.000 OA
BRANCH  16  21
ATOM     17  C   UNL     1      46.439   1.901   7.693  0.00  0.00    +0.000 A 
ATOM     18  C   UNL     1      47.005   3.036   7.110  0.00  0.00    +0.000 A 
ATOM     19  C   UNL     1      46.566   4.304   7.499  0.00  0.00    +0.000 A 
ATOM     20  C   UNL     1      45.564   4.441   8.469  0.00  0.00    +0.000 A 
ATOM     21  C   UNL     1      45.022   3.311   9.073  0.00  0.00    +0.000 A 
ATOM     22  C   UNL     1      45.469   2.044   8.689  0.00  0.00    +0.000 A 
BRANCH  17  24
ATOM     23  O   UNL     1      46.866  -0.416   7.974  0.00  0.00    +0.000 OA
ATOM     24  C   UNL     1      46.891   0.567   7.249  0.00  0.00    +0.000 C 
BRANCH  24  25
ATOM     25  O   UNL     1      47.393   0.549   5.996  0.00  0.00    +0.000 OA
ATOM     26  H   UNL     1      48.276   0.952   5.901  0.00  0.00    +0.000 HD
ENDBRANCH  24  25
ENDBRANCH  17  24
ENDBRANCH  16  21
ENDBRANCH   1  16
TORSDOF 6
ENDMDL
MODEL 5
REMARK VINA RESULT:    -7.027      3.790      7.806
REMARK INTER + INTRA:         -10.023
REMARK INTER:                  -8.748
REMARK INTRA:                  -1.275
REMARK UNBOUND:                -0.736
REMARK  Name = 
REMARK  6 active torsions:
REMARK  status: ('A' for Active; 'I' for Inactive)
REMARK    1  A    between atoms: C_2  and  O_3
REMARK    2  A    between atoms: C_2  and  C_4
REMARK    3  A    between atoms: C_8  and  O_9
REMARK    4  A    between atoms: O_9  and  C_10
REMARK    5  A    between atoms: C_10  and  C_11
REMARK    6  A    between atoms: C_15  and  N_16
REMARK                            x       y       z     vdW  Elec       q    Type
REMARK                         _______ _______ _______ _____ _____    ______ ____
ROOT
ATOM      1  C   UNL     1      49.022   7.616  13.787  0.00  0.00    +0.000 C 
ATOM      2  C   UNL     1      50.084   7.799  12.695  0.00  0.00    +0.000 C 
ATOM      3  C   UNL     1      49.819   8.899  13.663  0.00  0.00    +0.000 C 
ENDROOT
BRANCH   1   4
ATOM      4  C   UNL     1      47.569   7.619  13.342  0.00  0.00    +0.000 A 
ATOM      5  C   UNL     1      46.783   8.775  13.355  0.00  0.00    +0.000 A 
ATOM      6  C   UNL     1      45.498   8.775  12.815  0.00  0.00    +0.000 A 
ATOM      7  C   UNL     1      44.980   7.614  12.233  0.00  0.00    +0.000 A 
ATOM      8  C   UNL     1      45.714   6.424  12.210  0.00  0.00    +0.000 A 
ATOM      9  C   UNL     1      46.979   6.453  12.819  0.00  0.00    +0.000 A 
BRANCH   8  10
ATOM     10  N   UNL     1      45.248   5.245  11.647  0.00  0.00    +0.000 N 
ATOM     11  C   UNL     1      45.264   5.026  10.201  0.00  0.00    +0.000 C 
ATOM     12  C   UNL     1      44.034   4.191   9.834  0.00  0.00    +0.000 C 
ATOM     13  C   UNL     1      43.960   2.897  10.645  0.00  0.00    +0.000 C 
ATOM     14  C   UNL     1      44.095   3.162  12.144  0.00  0.00    +0.000 C 
ATOM     15  C   UNL     1      45.328   4.011  12.443  0.00  0.00    +0.000 C 
ENDBRANCH   8  10
ENDBRANCH   1   4
BRANCH   1  16
ATOM     16  O   UNL     1      49.441   6.574  14.694  0.00  0.00    +0.000 OA
BRANCH  16  21
ATOM     17  C   UNL     1      47.995   4.926  17.570  0.00  0.00    +0.000 A 
ATOM     18  C   UNL     1      47.910   5.949  18.516  0.00  0.00    +0.000 A 
ATOM     19  C   UNL     1      48.358   7.231  18.188  0.00  0.00    +0.000 A 
ATOM     20  C   UNL     1      48.890   7.493  16.918  0.00  0.00    +0.000 A 
ATOM     21  C   UNL     1      48.946   6.481  15.965  0.00  0.00    +0.000 A 
ATOM     22  C   UNL     1      48.489   5.202  16.293  0.00  0.00    +0.000 A 
BRANCH  17  24
ATOM     23  O   UNL     1      46.630   2.996  17.373  0.00  0.00    +0.000 OA
ATOM     24  C   UNL     1      47.546   3.568  17.942  0.00  0.00    +0.000 C 
BRANCH  24  25
ATOM     25  O   UNL     1      48.197   3.049  19.005  0.00  0.00    +0.000 OA
ATOM     26  H   UNL     1      49.008   2.554  18.788  0.00  0.00    +0.000 HD
ENDBRANCH  24  25
ENDBRANCH  17  24
ENDBRANCH  16  21
ENDBRANCH   1  16
TORSDOF 6
ENDMDL
MODEL 6
REMARK VINA RESULT:    -6.858      2.332      4.421
REMARK INTER + INTRA:          -9.799
REMARK INTER:                  -8.888
REMARK INTRA:                  -0.911
REMARK UNBOUND:                -0.736
REMARK  Name = 
REMARK  6 active torsions:
REMARK  status: ('A' for Active; 'I' for Inactive)
REMARK    1  A    between atoms: C_2  and  O_3
REMARK    2  A    between atoms: C_2  and  C_4
REMARK    3  A    between atoms: C_8  and  O_9
REMARK    4  A    between atoms: O_9  and  C_10
REMARK    5  A    between atoms: C_10  and  C_11
REMARK    6  A    between atoms: C_15  and  N_16
REMARK                            x       y       z     vdW  Elec       q    Type
REMARK                         _______ _______ _______ _____ _____    ______ ____
ROOT
ATOM      1  C   UNL     1      47.764   7.864  12.853  0.00  0.00    +0.000 C 
ATOM      2  C   UNL     1      48.219   9.055  11.999  0.00  0.00    +0.000 C 
ATOM      3  C   UNL     1      48.815   7.710  11.771  0.00  0.00    +0.000 C 
ENDROOT
BRANCH   1   4
ATOM      4  C   UNL     1      48.212   7.848  14.305  0.00  0.00    +0.000 A 
ATOM      5  C   UNL     1      48.186   8.992  15.110  0.00  0.00    +0.000 A 
ATOM      6  C   UNL     1      48.474   8.916  16.472  0.00  0.00    +0.000 A 
ATOM      7  C   UNL     1      48.776   7.685  17.059  0.00  0.00    +0.000 A 
ATOM      8  C   UNL     1      48.834   6.512  16.300  0.00  0.00    +0.000 A 
ATOM      9  C   UNL     1      48.599   6.643  14.921  0.00  0.00    +0.000 A 
BRANCH   8  10
ATOM     10  N   UNL     1      49.130   5.265  16.831  0.00  0.00    +0.000 N 
ATOM     11  C   UNL     1      50.258   5.066  17.739  0.00  0.00    +0.000 C 
ATOM     12  C   UNL     1      50.842   3.675  17.473  0.00  0.00    +0.000 C 
ATOM     13  C   UNL     1      49.779   2.581  17.573  0.00  0.00    +0.000 C 
ATOM     14  C   UNL     1      48.554   2.905  16.718  0.00  0.00    +0.000 C 
ATOM     15  C   UNL     1      48.030   4.307  17.018  0.00  0.00    +0.000 C 
ENDBRANCH   8  10
ENDBRANCH   1   4
BRANCH   1  16
ATOM     16  O   UNL     1      46.377   7.578  12.578  0.00  0.00    +0.000 OA
BRANCH  16  21
ATOM     17  C   UNL     1      45.261   4.856  10.473  0.00  0.00    +0.000 A 
ATOM     18  C   UNL     1      45.073   3.810  11.377  0.00  0.00    +0.000 A 
ATOM     19  C   UNL     1      45.336   4.013  12.734  0.00  0.00    +0.000 A 
ATOM     20  C   UNL     1      45.786   5.260  13.190  0.00  0.00    +0.000 A 
ATOM     21  C   UNL     1      45.943   6.313  12.294  0.00  0.00    +0.000 A 
ATOM     22  C   UNL     1      45.670   6.108  10.939  0.00  0.00    +0.000 A 
BRANCH  17  24
ATOM     23  O   UNL     1      45.902   4.580   8.206  0.00  0.00    +0.000 OA
ATOM     24  C   UNL     1      45.009   4.616   9.038  0.00  0.00    +0.000 C 
BRANCH  24  25
ATOM     25  O   UNL     1      43.700   4.505   8.724  0.00  0.00    +0.000 OA
ATOM     26  H   UNL     1      43.225   5.353   8.640  0.00  0.00    +0.000 HD
ENDBRANCH  24  25
ENDBRANCH  17  24
ENDBRANCH  16  21
ENDBRANCH   1  16
TORSDOF 6
ENDMDL
MODEL 7
REMARK VINA RESULT:    -6.777      2.900      4.812
REMARK INTER + INTRA:          -9.693
REMARK INTER:                  -9.234
REMARK INTRA:                  -0.459
REMARK UNBOUND:                -0.736
REMARK  Name = 
REMARK  6 active torsions:
REMARK  status: ('A' for Active; 'I' for Inactive)
REMARK    1  A    between atoms: C_2  and  O_3
REMARK    2  A    between atoms: C_2  and  C_4
REMARK    3  A    between atoms: C_8  and  O_9
REMARK    4  A    between atoms: O_9  and  C_10
REMARK    5  A    between atoms: C_10  and  C_11
REMARK    6  A    between atoms: C_15  and  N_16
REMARK                            x       y       z     vdW  Elec       q    Type
REMARK                         _______ _______ _______ _____ _____    ______ ____
ROOT
ATOM      1  C   UNL     1      44.364   4.092  11.478  0.00  0.00    +0.000 C 
ATOM      2  C   UNL     1      44.848   2.829  12.203  0.00  0.00    +0.000 C 
ATOM      3  C   UNL     1      43.557   3.460  12.595  0.00  0.00    +0.000 C 
ENDROOT
BRANCH   1   4
ATOM      4  C   UNL     1      45.115   5.381  11.765  0.00  0.00    +0.000 A 
ATOM      5  C   UNL     1      46.459   5.396  12.149  0.00  0.00    +0.000 A 
ATOM      6  C   UNL     1      47.156   6.597  12.274  0.00  0.00    +0.000 A 
ATOM      7  C   UNL     1      46.519   7.811  11.998  0.00  0.00    +0.000 A 
ATOM      8  C   UNL     1      45.172   7.857  11.629  0.00  0.00    +0.000 A 
ATOM      9  C   UNL     1      44.492   6.629  11.575  0.00  0.00    +0.000 A 
BRANCH   8  10
ATOM     10  N   UNL     1      44.492   9.032  11.345  0.00  0.00    +0.000 N 
ATOM     11  C   UNL     1      43.112   9.023  10.861  0.00  0.00    +0.000 C 
ATOM     12  C   UNL     1      42.944  10.191   9.885  0.00  0.00    +0.000 C 
ATOM     13  C   UNL     1      43.362  11.523  10.509  0.00  0.00    +0.000 C 
ATOM     14  C   UNL     1      44.755  11.441  11.132  0.00  0.00    +0.000 C 
ATOM     15  C   UNL     1      44.864  10.250  12.081  0.00  0.00    +0.000 C 
ENDBRANCH   8  10
ENDBRANCH   1   4
BRANCH   1  16
ATOM     16  O   UNL     1      44.084   3.775  10.098  0.00  0.00    +0.000 OA
BRANCH  16  21
ATOM     17  C   UNL     1      46.371   2.152   7.813  0.00  0.00    +0.000 A 
ATOM     18  C   UNL     1      47.043   3.221   7.220  0.00  0.00    +0.000 A 
ATOM     19  C   UNL     1      46.717   4.530   7.586  0.00  0.00    +0.000 A 
ATOM     20  C   UNL     1      45.722   4.772   8.543  0.00  0.00    +0.000 A 
ATOM     21  C   UNL     1      45.075   3.705   9.158  0.00  0.00    +0.000 A 
ATOM     22  C   UNL     1      45.409   2.397   8.797  0.00  0.00    +0.000 A 
BRANCH  17  24
ATOM     23  O   UNL     1      46.511  -0.199   8.105  0.00  0.00    +0.000 OA
ATOM     24  C   UNL     1      46.705   0.775   7.394  0.00  0.00    +0.000 C 
BRANCH  24  25
ATOM     25  O   UNL     1      47.300   0.702   6.184  0.00  0.00    +0.000 OA
ATOM     26  H   UNL     1      48.183   0.288   6.186  0.00  0.00    +0.000 HD
ENDBRANCH  24  25
ENDBRANCH  17  24
ENDBRANCH  16  21
ENDBRANCH   1  16
TORSDOF 6
ENDMDL
MODEL 8
REMARK VINA RESULT:    -6.282      3.586      7.822
REMARK INTER + INTRA:          -9.038
REMARK INTER:                  -8.078
REMARK INTRA:                  -0.960
REMARK UNBOUND:                -0.736
REMARK  Name = 
REMARK  6 active torsions:
REMARK  status: ('A' for Active; 'I' for Inactive)
REMARK    1  A    between atoms: C_2  and  O_3
REMARK    2  A    between atoms: C_2  and  C_4
REMARK    3  A    between atoms: C_8  and  O_9
REMARK    4  A    between atoms: O_9  and  C_10
REMARK    5  A    between atoms: C_10  and  C_11
REMARK    6  A    between atoms: C_15  and  N_16
REMARK                            x       y       z     vdW  Elec       q    Type
REMARK                         _______ _______ _______ _____ _____    ______ ____
ROOT
ATOM      1  C   UNL     1      49.167   8.696  15.553  0.00  0.00    +0.000 C 
ATOM      2  C   UNL     1      49.924  10.007  15.802  0.00  0.00    +0.000 C 
ATOM      3  C   UNL     1      48.467   9.925  16.098  0.00  0.00    +0.000 C 
ENDROOT
BRANCH   1   4
ATOM      4  C   UNL     1      48.924   8.306  14.104  0.00  0.00    +0.000 A 
ATOM      5  C   UNL     1      49.796   8.670  13.073  0.00  0.00    +0.000 A 
ATOM      6  C   UNL     1      49.619   8.184  11.779  0.00  0.00    +0.000 A 
ATOM      7  C   UNL     1      48.569   7.306  11.495  0.00  0.00    +0.000 A 
ATOM      8  C   UNL     1      47.656   6.923  12.482  0.00  0.00    +0.000 A 
ATOM      9  C   UNL     1      47.835   7.484  13.758  0.00  0.00    +0.000 A 
BRANCH   8  10
ATOM     10  N   UNL     1      46.597   6.056  12.255  0.00  0.00    +0.000 N 
ATOM     11  C   UNL     1      46.041   5.227  13.324  0.00  0.00    +0.000 C 
ATOM     12  C   UNL     1      45.596   3.897  12.711  0.00  0.00    +0.000 C 
ATOM     13  C   UNL     1      44.638   4.101  11.537  0.00  0.00    +0.000 C 
ATOM     14  C   UNL     1      45.200   5.089  10.516  0.00  0.00    +0.000 C 
ATOM     15  C   UNL     1      45.640   6.386  11.189  0.00  0.00    +0.000 C 
ENDBRANCH   8  10
ENDBRANCH   1   4
BRANCH   1  16
ATOM     16  O   UNL     1      49.666   7.677  16.444  0.00  0.00    +0.000 OA
BRANCH  16  21
ATOM     17  C   UNL     1      47.677   4.816  17.412  0.00  0.00    +0.000 A 
ATOM     18  C   UNL     1      47.167   5.187  18.657  0.00  0.00    +0.000 A 
ATOM     19  C   UNL     1      47.505   6.430  19.199  0.00  0.00    +0.000 A 
ATOM     20  C   UNL     1      48.350   7.302  18.499  0.00  0.00    +0.000 A 
ATOM     21  C   UNL     1      48.832   6.946  17.244  0.00  0.00    +0.000 A 
ATOM     22  C   UNL     1      48.485   5.706  16.701  0.00  0.00    +0.000 A 
BRANCH  17  24
ATOM     23  O   UNL     1      47.713   3.103  15.771  0.00  0.00    +0.000 OA
ATOM     24  C   UNL     1      47.335   3.486  16.867  0.00  0.00    +0.000 C 
BRANCH  24  25
ATOM     25  O   UNL     1      46.517   2.763  17.661  0.00  0.00    +0.000 OA
ATOM     26  H   UNL     1      46.941   2.005  18.106  0.00  0.00    +0.000 HD
ENDBRANCH  24  25
ENDBRANCH  17  24
ENDBRANCH  16  21
ENDBRANCH   1  16
TORSDOF 6
ENDMDL
MODEL 9
REMARK VINA RESULT:    -5.989      3.289      5.040
REMARK INTER + INTRA:          -8.651
REMARK INTER:                  -7.894
REMARK INTRA:                  -0.757
REMARK UNBOUND:                -0.736
REMARK  Name = 
REMARK  6 active torsions:
REMARK  status: ('A' for Active; 'I' for Inactive)
REMARK    1  A    between atoms: C_2  and  O_3
REMARK    2  A    between atoms: C_2  and  C_4
REMARK    3  A    between atoms: C_8  and  O_9
REMARK    4  A    between atoms: O_9  and  C_10
REMARK    5  A    between atoms: C_10  and  C_11
REMARK    6  A    between atoms: C_15  and  N_16
REMARK                            x       y       z     vdW  Elec       q    Type
REMARK                         _______ _______ _______ _____ _____    ______ ____
ROOT
ATOM      1  C   UNL     1      48.546   8.172  12.914  0.00  0.00    +0.000 C 
ATOM      2  C   UNL     1      48.783   9.449  12.097  0.00  0.00    +0.000 C 
ATOM      3  C   UNL     1      48.928   8.117  11.448  0.00  0.00    +0.000 C 
ENDROOT
BRANCH   1   4
ATOM      4  C   UNL     1      49.598   7.813  13.951  0.00  0.00    +0.000 A 
ATOM      5  C   UNL     1      50.859   8.417  13.980  0.00  0.00    +0.000 A 
ATOM      6  C   UNL     1      51.750   8.166  15.022  0.00  0.00    +0.000 A 
ATOM      7  C   UNL     1      51.385   7.315  16.069  0.00  0.00    +0.000 A 
ATOM      8  C   UNL     1      50.145   6.670  16.082  0.00  0.00    +0.000 A 
ATOM      9  C   UNL     1      49.303   6.903  14.983  0.00  0.00    +0.000 A 
BRANCH   8  10
ATOM     10  N   UNL     1      49.734   5.816  17.095  0.00  0.00    +0.000 N 
ATOM     11  C   UNL     1      50.532   4.658  17.495  0.00  0.00    +0.000 C 
ATOM     12  C   UNL     1      49.571   3.537  17.902  0.00  0.00    +0.000 C 
ATOM     13  C   UNL     1      48.581   3.993  18.974  0.00  0.00    +0.000 C 
ATOM     14  C   UNL     1      47.876   5.289  18.574  0.00  0.00    +0.000 C 
ATOM     15  C   UNL     1      48.884   6.361  18.166  0.00  0.00    +0.000 C 
ENDBRANCH   8  10
ENDBRANCH   1   4
BRANCH   1  16
ATOM     16  O   UNL     1      47.162   8.109  13.316  0.00  0.00    +0.000 OA
BRANCH  16  21
ATOM     17  C   UNL     1      45.711   4.870  12.621  0.00  0.00    +0.000 A 
ATOM     18  C   UNL     1      44.639   5.174  11.781  0.00  0.00    +0.000 A 
ATOM     19  C   UNL     1      44.383   6.504  11.441  0.00  0.00    +0.000 A 
ATOM     20  C   UNL     1      45.197   7.532  11.938  0.00  0.00    +0.000 A 
ATOM     21  C   UNL     1      46.284   7.227  12.749  0.00  0.00    +0.000 A 
ATOM     22  C   UNL     1      46.543   5.894  13.080  0.00  0.00    +0.000 A 
BRANCH  17  24
ATOM     23  O   UNL     1      46.910   3.107  13.662  0.00  0.00    +0.000 OA
ATOM     24  C   UNL     1      45.949   3.461  12.996  0.00  0.00    +0.000 C 
BRANCH  24  25
ATOM     25  O   UNL     1      45.046   2.599  12.483  0.00  0.00    +0.000 OA
ATOM     26  H   UNL     1      45.128   2.440  11.524  0.00  0.00    +0.000 HD
ENDBRANCH  24  25
ENDBRANCH  17  24
ENDBRANCH  16  21
ENDBRANCH   1  16
TORSDOF 6
ENDMDL
