MODEL 1
REMARK VINA RESULT:    -8.458      0.000      0.000
REMARK INTER + INTRA:         -10.853
REMARK INTER:                 -10.930
REMARK INTRA:                   0.077
REMARK UNBOUND:                 0.077
REMARK  Name = 
REMARK  5 active torsions:
REMARK  status: ('A' for Active; 'I' for Inactive)
REMARK    1  A    between atoms: C_2  and  C_3
REMARK    2  A    between atoms: C_6  and  N_7
REMARK    3  A    between atoms: N_7  and  C_8
REMARK    4  A    between atoms: C_8  and  C_9
REMARK    5  A    between atoms: C_13  and  C_14
REMARK                            x       y       z     vdW  Elec       q    Type
REMARK                         _______ _______ _______ _____ _____    ______ ____
ROOT
ATOM      1  C   UNL     1      44.098   4.896  11.337  0.00  0.00    +0.000 C 
ATOM      2  C   UNL     1      43.186   3.937  12.073  0.00  0.00    +0.000 C 
ATOM      3  C   UNL     1      42.932   5.406  12.167  0.00  0.00    +0.000 C 
ENDROOT
BRANCH   1   4
ATOM      4  C   UNL     1      45.496   5.264  11.825  0.00  0.00    +0.000 A 
ATOM      5  C   UNL     1      46.217   6.326  11.265  0.00  0.00    +0.000 A 
ATOM      6  C   UNL     1      47.351   6.836  11.894  0.00  0.00    +0.000 A 
ATOM      7  C   UNL     1      47.799   6.275  13.093  0.00  0.00    +0.000 A 
ATOM      8  C   UNL     1      47.160   5.164  13.663  0.00  0.00    +0.000 A 
ATOM      9  C   UNL     1      46.018   4.671  13.000  0.00  0.00    +0.000 A 
BRANCH   8  10
ATOM     10  C   UNL     1      47.630   4.594  14.946  0.00  0.00    +0.000 A 
ATOM     11  C   UNL     1      48.065   5.384  16.011  0.00  0.00    +0.000 A 
ATOM     12  C   UNL     1      48.526   4.771  17.177  0.00  0.00    +0.000 A 
ATOM     13  C   UNL     1      48.544   3.385  17.257  0.00  0.00    +0.000 A 
ATOM     14  C   UNL     1      48.086   2.669  16.166  0.00  0.00    +0.000 A 
ATOM     15  N   UNL     1      47.629   3.237  15.028  0.00  0.00    +0.000 NA
ENDBRANCH   8  10
ENDBRANCH   1   4
BRANCH   1  16
ATOM     16  N   UNL     1      44.031   4.909   9.868  0.00  0.00    +0.000 N 
ATOM     17  H   UNL     1      43.144   5.051   9.402  0.00  0.00    +0.000 HD
BRANCH  16  21
ATOM     18  C   UNL     1      46.671   2.730   7.455  0.00  0.00    +0.000 A 
ATOM     19  C   UNL     1      46.626   4.113   7.456  0.00  0.00    +0.000 A 
ATOM     20  N   UNL     1      45.793   4.840   8.242  0.00  0.00    +0.000 NA
ATOM     21  C   UNL     1      44.961   4.182   9.090  0.00  0.00    +0.000 A 
ATOM     22  C   UNL     1      44.955   2.779   9.136  0.00  0.00    +0.000 A 
ATOM     23 CL   UNL     1      43.891   1.913  10.188  0.00  0.00    +0.000 Cl
ATOM     24  C   UNL     1      45.818   2.051   8.315  0.00  0.00    +0.000 A 
BRANCH  18  26
ATOM     25  N   UNL     1      48.311   1.463   5.888  0.00  0.00    +0.000 NA
ATOM     26  C   UNL     1      47.579   2.026   6.591  0.00  0.00    +0.000 C 
ENDBRANCH  18  26
ENDBRANCH  16  21
ENDBRANCH   1  16
TORSDOF 5
ENDMDL
MODEL 2
REMARK VINA RESULT:    -7.798      2.466      3.301
REMARK INTER + INTRA:         -10.001
REMARK INTER:                  -9.317
REMARK INTRA:                  -0.683
REMARK UNBOUND:                 0.077
REMARK  Name = 
REMARK  5 active torsions:
REMARK  status: ('A' for Active; 'I' for Inactive)
REMARK    1  A    between atoms: C_2  and  C_3
REMARK    2  A    between atoms: C_6  and  N_7
REMARK    3  A    between atoms: N_7  and  C_8
REMARK    4  A    between atoms: C_8  and  C_9
REMARK    5  A    between atoms: C_13  and  C_14
REMARK                            x       y       z     vdW  Elec       q    Type
REMARK                         _______ _______ _______ _____ _____    ______ ____
ROOT
ATOM      1  C   UNL     1      44.746   5.384  11.417  0.00  0.00    +0.000 C 
ATOM      2  C   UNL     1      45.197   4.255  12.320  0.00  0.00    +0.000 C 
ATOM      3  C   UNL     1      43.914   4.960  12.617  0.00  0.00    +0.000 C 
ENDROOT
BRANCH   1   4
ATOM      4  C   UNL     1      45.347   6.786  11.464  0.00  0.00    +0.000 A 
ATOM      5  C   UNL     1      44.545   7.933  11.431  0.00  0.00    +0.000 A 
ATOM      6  C   UNL     1      45.065   9.183  11.761  0.00  0.00    +0.000 A 
ATOM      7  C   UNL     1      46.411   9.312  12.112  0.00  0.00    +0.000 A 
ATOM      8  C   UNL     1      47.280   8.209  12.092  0.00  0.00    +0.000 A 
ATOM      9  C   UNL     1      46.722   6.961  11.751  0.00  0.00    +0.000 A 
BRANCH   8  10
ATOM     10  C   UNL     1      48.698   8.354  12.489  0.00  0.00    +0.000 A 
ATOM     11  C   UNL     1      49.646   9.000  11.693  0.00  0.00    +0.000 A 
ATOM     12  C   UNL     1      50.972   9.067  12.121  0.00  0.00    +0.000 A 
ATOM     13  C   UNL     1      51.326   8.489  13.332  0.00  0.00    +0.000 A 
ATOM     14  C   UNL     1      50.331   7.878  14.073  0.00  0.00    +0.000 A 
ATOM     15  N   UNL     1      49.038   7.805  13.685  0.00  0.00    +0.000 NA
ENDBRANCH   8  10
ENDBRANCH   1   4
BRANCH   1  16
ATOM     16  N   UNL     1      44.320   5.038  10.053  0.00  0.00    +0.000 N 
ATOM     17  H   UNL     1      43.335   4.940   9.839  0.00  0.00    +0.000 HD
BRANCH  16  21
ATOM     18  C   UNL     1      46.675   2.794   7.415  0.00  0.00    +0.000 A 
ATOM     19  C   UNL     1      46.752   4.173   7.500  0.00  0.00    +0.000 A 
ATOM     20  N   UNL     1      46.014   4.919   8.359  0.00  0.00    +0.000 NA
ATOM     21  C   UNL     1      45.155   4.283   9.198  0.00  0.00    +0.000 A 
ATOM     22  C   UNL     1      45.027   2.886   9.162  0.00  0.00    +0.000 A 
ATOM     23 CL   UNL     1      43.925   2.051  10.201  0.00  0.00    +0.000 Cl
ATOM     24  C   UNL     1      45.794   2.139   8.266  0.00  0.00    +0.000 A 
BRANCH  18  26
ATOM     25  N   UNL     1      48.141   1.478   5.722  0.00  0.00    +0.000 NA
ATOM     26  C   UNL     1      47.488   2.069   6.477  0.00  0.00    +0.000 C 
ENDBRANCH  18  26
ENDBRANCH  16  21
ENDBRANCH   1  16
TORSDOF 5
ENDMDL
MODEL 3
REMARK VINA RESULT:    -7.627      3.403      5.734
REMARK INTER + INTRA:          -9.779
REMARK INTER:                  -9.066
REMARK INTRA:                  -0.713
REMARK UNBOUND:                 0.077
REMARK  Name = 
REMARK  5 active torsions:
REMARK  status: ('A' for Active; 'I' for Inactive)
REMARK    1  A    between atoms: C_2  and  C_3
REMARK    2  A    between atoms: C_6  and  N_7
REMARK    3  A    between atoms: N_7  and  C_8
REMARK    4  A    between atoms: C_8  and  C_9
REMARK    5  A    between atoms: C_13  and  C_14
REMARK                            x       y       z     vdW  Elec       q    Type
REMARK                         _______ _______ _______ _____ _____    ______ ____
ROOT
ATOM      1  C   UNL     1      45.038   5.654  11.739  0.00  0.00    +0.000 C 
ATOM      2  C   UNL     1      45.881   4.575  12.383  0.00  0.00    +0.000 C 
ATOM      3  C   UNL     1      44.536   4.890  12.953  0.00  0.00    +0.000 C 
ENDROOT
BRANCH   1   4
ATOM      4  C   UNL     1      45.296   7.146  11.930  0.00  0.00    +0.000 A 
ATOM      5  C   UNL     1      46.548   7.634  12.322  0.00  0.00    +0.000 A 
ATOM      6  C   UNL     1      46.857   8.988  12.216  0.00  0.00    +0.000 A 
ATOM      7  C   UNL     1      45.904   9.889  11.734  0.00  0.00    +0.000 A 
ATOM      8  C   UNL     1      44.608   9.470  11.395  0.00  0.00    +0.000 A 
ATOM      9  C   UNL     1      44.328   8.094  11.516  0.00  0.00    +0.000 A 
BRANCH   8  10
ATOM     10  C   UNL     1      43.616  10.429  10.863  0.00  0.00    +0.000 A 
ATOM     11  C   UNL     1      43.328  10.545   9.501  0.00  0.00    +0.000 A 
ATOM     12  C   UNL     1      42.404  11.498   9.074  0.00  0.00    +0.000 A 
ATOM     13  C   UNL     1      41.785  12.316  10.010  0.00  0.00    +0.000 A 
ATOM     14  C   UNL     1      42.110  12.135  11.342  0.00  0.00    +0.000 A 
ATOM     15  N   UNL     1      42.998  11.215  11.784  0.00  0.00    +0.000 NA
ENDBRANCH   8  10
ENDBRANCH   1   4
BRANCH   1  16
ATOM     16  N   UNL     1      44.484   5.382  10.404  0.00  0.00    +0.000 N 
ATOM     17  H   UNL     1      43.483   5.406  10.256  0.00  0.00    +0.000 HD
BRANCH  16  21
ATOM     18  C   UNL     1      46.371   2.908   7.601  0.00  0.00    +0.000 A 
ATOM     19  C   UNL     1      46.599   4.271   7.670  0.00  0.00    +0.000 A 
ATOM     20  N   UNL     1      46.014   5.089   8.581  0.00  0.00    +0.000 NA
ATOM     21  C   UNL     1      45.164   4.545   9.490  0.00  0.00    +0.000 A 
ATOM     22  C   UNL     1      44.888   3.170   9.473  0.00  0.00    +0.000 A 
ATOM     23 CL   UNL     1      43.792   2.452  10.603  0.00  0.00    +0.000 Cl
ATOM     24  C   UNL     1      45.498   2.348   8.524  0.00  0.00    +0.000 A 
BRANCH  18  26
ATOM     25  N   UNL     1      47.555   1.449   5.807  0.00  0.00    +0.000 NA
ATOM     26  C   UNL     1      47.026   2.104   6.606  0.00  0.00    +0.000 C 
ENDBRANCH  18  26
ENDBRANCH  16  21
ENDBRANCH   1  16
TORSDOF 5
ENDMDL
MODEL 4
REMARK VINA RESULT:    -7.173      2.522      7.406
REMARK INTER + INTRA:          -9.193
REMARK INTER:                  -9.036
REMARK INTRA:                  -0.157
REMARK UNBOUND:                 0.077
REMARK  Name = 
REMARK  5 active torsions:
REMARK  status: ('A' for Active; 'I' for Inactive)
REMARK    1  A    between atoms: C_2  and  C_3
REMARK    2  A    between atoms: C_6  and  N_7
REMARK    3  A    between atoms: N_7  and  C_8
REMARK    4  A    between atoms: C_8  and  C_9
REMARK    5  A    between atoms: C_13  and  C_14
REMARK                            x       y       z     vdW  Elec       q    Type
REMARK                         _______ _______ _______ _____ _____    ______ ____
ROOT
ATOM      1  C   UNL     1      46.230   7.429  12.237  0.00  0.00    +0.000 C 
ATOM      2  C   UNL     1      46.149   8.879  11.808  0.00  0.00    +0.000 C 
ATOM      3  C   UNL     1      45.567   8.472  13.122  0.00  0.00    +0.000 C 
ENDROOT
BRANCH   1   4
ATOM      4  C   UNL     1      45.325   6.337  11.674  0.00  0.00    +0.000 A 
ATOM      5  C   UNL     1      43.942   6.337  11.895  0.00  0.00    +0.000 A 
ATOM      6  C   UNL     1      43.096   5.517  11.152  0.00  0.00    +0.000 A 
ATOM      7  C   UNL     1      43.622   4.660  10.183  0.00  0.00    +0.000 A 
ATOM      8  C   UNL     1      45.006   4.564   9.968  0.00  0.00    +0.000 A 
ATOM      9  C   UNL     1      45.834   5.405  10.737  0.00  0.00    +0.000 A 
BRANCH   8  10
ATOM     10  C   UNL     1      45.550   3.669   8.921  0.00  0.00    +0.000 A 
ATOM     11  C   UNL     1      45.526   2.277   9.027  0.00  0.00    +0.000 A 
ATOM     12  C   UNL     1      46.089   1.502   8.013  0.00  0.00    +0.000 A 
ATOM     13  C   UNL     1      46.664   2.130   6.916  0.00  0.00    +0.000 A 
ATOM     14  C   UNL     1      46.640   3.512   6.874  0.00  0.00    +0.000 A 
ATOM     15  N   UNL     1      46.095   4.286   7.840  0.00  0.00    +0.000 NA
ENDBRANCH   8  10
ENDBRANCH   1   4
BRANCH   1  16
ATOM     16  N   UNL     1      47.555   6.892  12.580  0.00  0.00    +0.000 N 
ATOM     17  H   UNL     1      48.192   6.608  11.846  0.00  0.00    +0.000 HD
BRANCH  16  21
ATOM     18  C   UNL     1      48.083   4.974  16.265  0.00  0.00    +0.000 A 
ATOM     19  C   UNL     1      47.351   4.419  15.230  0.00  0.00    +0.000 A 
ATOM     20  N   UNL     1      47.183   5.012  14.022  0.00  0.00    +0.000 NA
ATOM     21  C   UNL     1      47.773   6.216  13.802  0.00  0.00    +0.000 A 
ATOM     22  C   UNL     1      48.527   6.834  14.810  0.00  0.00    +0.000 A 
ATOM     23 CL   UNL     1      49.271   8.377  14.567  0.00  0.00    +0.000 Cl
ATOM     24  C   UNL     1      48.684   6.207  16.047  0.00  0.00    +0.000 A 
BRANCH  18  26
ATOM     25  N   UNL     1      48.317   3.735  18.537  0.00  0.00    +0.000 NA
ATOM     26  C   UNL     1      48.216   4.287  17.520  0.00  0.00    +0.000 C 
ENDBRANCH  18  26
ENDBRANCH  16  21
ENDBRANCH   1  16
TORSDOF 5
ENDMDL
MODEL 5
REMARK VINA RESULT:    -6.918      4.003      6.725
REMARK INTER + INTRA:          -8.863
REMARK INTER:                  -8.023
REMARK INTRA:                  -0.840
REMARK UNBOUND:                 0.077
REMARK  Name = 
REMARK  5 active torsions:
REMARK  status: ('A' for Active; 'I' for Inactive)
REMARK    1  A    between atoms: C_2  and  C_3
REMARK    2  A    between atoms: C_6  and  N_7
REMARK    3  A    between atoms: N_7  and  C_8
REMARK    4  A    between atoms: C_8  and  C_9
REMARK    5  A    between atoms: C_13  and  C_14
REMARK                            x       y       z     vdW  Elec       q    Type
REMARK                         _______ _______ _______ _____ _____    ______ ____
ROOT
ATOM      1  C   UNL     1      47.269   7.761  13.095  0.00  0.00    +0.000 C 
ATOM      2  C   UNL     1      48.559   7.043  12.761  0.00  0.00    +0.000 C 
ATOM      3  C   UNL     1      48.414   7.704  14.093  0.00  0.00    +0.000 C 
ENDROOT
BRANCH   1   4
ATOM      4  C   UNL     1      46.910   9.139  12.546  0.00  0.00    +0.000 A 
ATOM      5  C   UNL     1      47.879   9.996  12.011  0.00  0.00    +0.000 A 
ATOM      6  C   UNL     1      47.517  11.111  11.259  0.00  0.00    +0.000 A 
ATOM      7  C   UNL     1      46.167  11.405  11.045  0.00  0.00    +0.000 A 
ATOM      8  C   UNL     1      45.151  10.623  11.618  0.00  0.00    +0.000 A 
ATOM      9  C   UNL     1      45.552   9.504  12.374  0.00  0.00    +0.000 A 
BRANCH   8  10
ATOM     10  C   UNL     1      43.726  10.930  11.364  0.00  0.00    +0.000 A 
ATOM     11  C   UNL     1      42.854  10.029  10.749  0.00  0.00    +0.000 A 
ATOM     12  C   UNL     1      41.531  10.405  10.514  0.00  0.00    +0.000 A 
ATOM     13  C   UNL     1      41.104  11.669  10.895  0.00  0.00    +0.000 A 
ATOM     14  C   UNL     1      42.020  12.503  11.510  0.00  0.00    +0.000 A 
ATOM     15  N   UNL     1      43.306  12.162  11.755  0.00  0.00    +0.000 NA
ENDBRANCH   8  10
ENDBRANCH   1   4
BRANCH   1  16
ATOM     16  N   UNL     1      46.063   6.942  13.294  0.00  0.00    +0.000 N 
ATOM     17  H   UNL     1      45.671   6.835  14.221  0.00  0.00    +0.000 HD
BRANCH  16  21
ATOM     18  C   UNL     1      45.043   3.727  10.813  0.00  0.00    +0.000 A 
ATOM     19  C   UNL     1      44.938   5.046  10.410  0.00  0.00    +0.000 A 
ATOM     20  N   UNL     1      45.280   6.102  11.189  0.00  0.00    +0.000 NA
ATOM     21  C   UNL     1      45.767   5.861  12.433  0.00  0.00    +0.000 A 
ATOM     22  C   UNL     1      45.897   4.545  12.904  0.00  0.00    +0.000 A 
ATOM     23 CL   UNL     1      46.492   4.207  14.493  0.00  0.00    +0.000 Cl
ATOM     24  C   UNL     1      45.535   3.474  12.086  0.00  0.00    +0.000 A 
BRANCH  18  26
ATOM     25  N   UNL     1      44.355   1.794   9.219  0.00  0.00    +0.000 NA
ATOM     26  C   UNL     1      44.658   2.657   9.933  0.00  0.00    +0.000 C 
ENDBRANCH  18  26
ENDBRANCH  16  21
ENDBRANCH   1  16
TORSDOF 5
ENDMDL
MODEL 6
REMARK VINA RESULT:    -6.788      3.435      7.895
REMARK INTER + INTRA:          -8.695
REMARK INTER:                  -7.787
REMARK INTRA:                  -0.909
REMARK UNBOUND:                 0.077
REMARK  Name = 
REMARK  5 active torsions:
REMARK  status: ('A' for Active; 'I' for Inactive)
REMARK    1  A    between atoms: C_2  and  C_3
REMARK    2  A    between atoms: C_6  and  N_7
REMARK    3  A    between atoms: N_7  and  C_8
REMARK    4  A    between atoms: C_8  and  C_9
REMARK    5  A    between atoms: C_13  and  C_14
REMARK                            x       y       z     vdW  Elec       q    Type
REMARK                         _______ _______ _______ _____ _____    ______ ____
ROOT
ATOM      1  C   UNL     1      48.797   8.313  12.542  0.00  0.00    +0.000 C 
ATOM      2  C   UNL     1      49.925   7.693  11.744  0.00  0.00    +0.000 C 
ATOM      3  C   UNL     1      49.481   9.083  11.424  0.00  0.00    +0.000 C 
ENDROOT
BRANCH   1   4
ATOM      4  C   UNL     1      47.327   7.962  12.330  0.00  0.00    +0.000 A 
ATOM      5  C   UNL     1      46.309   8.904  12.515  0.00  0.00    +0.000 A 
ATOM      6  C   UNL     1      45.018   8.668  12.048  0.00  0.00    +0.000 A 
ATOM      7  C   UNL     1      44.714   7.468  11.402  0.00  0.00    +0.000 A 
ATOM      8  C   UNL     1      45.676   6.456  11.252  0.00  0.00    +0.000 A 
ATOM      9  C   UNL     1      46.971   6.726  11.738  0.00  0.00    +0.000 A 
BRANCH   8  10
ATOM     10  C   UNL     1      45.348   5.198  10.545  0.00  0.00    +0.000 A 
ATOM     11  C   UNL     1      45.585   5.012   9.181  0.00  0.00    +0.000 A 
ATOM     12  C   UNL     1      45.217   3.808   8.579  0.00  0.00    +0.000 A 
ATOM     13  C   UNL     1      44.622   2.816   9.346  0.00  0.00    +0.000 A 
ATOM     14  C   UNL     1      44.431   3.067  10.693  0.00  0.00    +0.000 A 
ATOM     15  N   UNL     1      44.783   4.221  11.302  0.00  0.00    +0.000 NA
ENDBRANCH   8  10
ENDBRANCH   1   4
BRANCH   1  16
ATOM     16  N   UNL     1      49.062   8.648  13.950  0.00  0.00    +0.000 N 
ATOM     17  H   UNL     1      49.368   9.580  14.200  0.00  0.00    +0.000 HD
BRANCH  16  21
ATOM     18  C   UNL     1      50.285   5.823  16.788  0.00  0.00    +0.000 A 
ATOM     19  C   UNL     1      48.976   5.927  16.352  0.00  0.00    +0.000 A 
ATOM     20  N   UNL     1      48.560   6.821  15.420  0.00  0.00    +0.000 NA
ATOM     21  C   UNL     1      49.477   7.658  14.869  0.00  0.00    +0.000 A 
ATOM     22  C   UNL     1      50.821   7.605  15.269  0.00  0.00    +0.000 A 
ATOM     23 CL   UNL     1      52.007   8.673  14.602  0.00  0.00    +0.000 Cl
ATOM     24  C   UNL     1      51.225   6.680  16.233  0.00  0.00    +0.000 A 
BRANCH  18  26
ATOM     25  N   UNL     1      50.944   4.071  18.590  0.00  0.00    +0.000 NA
ATOM     26  C   UNL     1      50.652   4.851  17.782  0.00  0.00    +0.000 C 
ENDBRANCH  18  26
ENDBRANCH  16  21
ENDBRANCH   1  16
TORSDOF 5
ENDMDL
MODEL 7
REMARK VINA RESULT:    -6.560      3.168      4.890
REMARK INTER + INTRA:          -8.401
REMARK INTER:                  -7.979
REMARK INTRA:                  -0.422
REMARK UNBOUND:                 0.077
REMARK  Name = 
REMARK  5 active torsions:
REMARK  status: ('A' for Active; 'I' for Inactive)
REMARK    1  A    between atoms: C_2  and  C_3
REMARK    2  A    between atoms: C_6  and  N_7
REMARK    3  A    between atoms: N_7  and  C_8
REMARK    4  A    between atoms: C_8  and  C_9
REMARK    5  A    between atoms: C_13  and  C_14
REMARK                            x       y       z     vdW  Elec       q    Type
REMARK                         _______ _______ _______ _____ _____    ______ ____
ROOT
ATOM      1  C   UNL     1      47.614   8.451  13.260  0.00  0.00    +0.000 C 
ATOM      2  C   UNL     1      48.062   9.477  12.241  0.00  0.00    +0.000 C 
ATOM      3  C   UNL     1      48.363   8.033  12.005  0.00  0.00    +0.000 C 
ENDROOT
BRANCH   1   4
ATOM      4  C   UNL     1      48.329   8.223  14.589  0.00  0.00    +0.000 A 
ATOM      5  C   UNL     1      48.500   9.253  15.521  0.00  0.00    +0.000 A 
ATOM      6  C   UNL     1      48.887   8.979  16.831  0.00  0.00    +0.000 A 
ATOM      7  C   UNL     1      49.133   7.663  17.230  0.00  0.00    +0.000 A 
ATOM      8  C   UNL     1      49.048   6.597  16.320  0.00  0.00    +0.000 A 
ATOM      9  C   UNL     1      48.657   6.909  15.003  0.00  0.00    +0.000 A 
BRANCH   8  10
ATOM     10  C   UNL     1      49.287   5.205  16.760  0.00  0.00    +0.000 A 
ATOM     11  C   UNL     1      50.436   4.814  17.450  0.00  0.00    +0.000 A 
ATOM     12  C   UNL     1      50.605   3.475  17.802  0.00  0.00    +0.000 A 
ATOM     13  C   UNL     1      49.626   2.552  17.458  0.00  0.00    +0.000 A 
ATOM     14  C   UNL     1      48.509   3.014  16.786  0.00  0.00    +0.000 A 
ATOM     15  N   UNL     1      48.318   4.307  16.439  0.00  0.00    +0.000 NA
ENDBRANCH   8  10
ENDBRANCH   1   4
BRANCH   1  16
ATOM     16  N   UNL     1      46.171   8.200  13.387  0.00  0.00    +0.000 N 
ATOM     17  H   UNL     1      45.657   8.583  14.171  0.00  0.00    +0.000 HD
BRANCH  16  21
ATOM     18  C   UNL     1      44.547   4.733  11.691  0.00  0.00    +0.000 A 
ATOM     19  C   UNL     1      45.408   4.704  12.774  0.00  0.00    +0.000 A 
ATOM     20  N   UNL     1      45.931   5.814  13.352  0.00  0.00    +0.000 NA
ATOM     21  C   UNL     1      45.585   7.029  12.853  0.00  0.00    +0.000 A 
ATOM     22  C   UNL     1      44.719   7.129  11.754  0.00  0.00    +0.000 A 
ATOM     23 CL   UNL     1      44.279   8.661  11.083  0.00  0.00    +0.000 Cl
ATOM     24  C   UNL     1      44.196   5.972  11.173  0.00  0.00    +0.000 A 
BRANCH  18  26
ATOM     25  N   UNL     1      43.626   2.528  10.671  0.00  0.00    +0.000 NA
ATOM     26  C   UNL     1      44.034   3.514  11.128  0.00  0.00    +0.000 C 
ENDBRANCH  18  26
ENDBRANCH  16  21
ENDBRANCH   1  16
TORSDOF 5
ENDMDL
MODEL 8
REMARK VINA RESULT:    -6.402      2.830      7.826
REMARK INTER + INTRA:          -8.196
REMARK INTER:                  -7.514
REMARK INTRA:                  -0.682
REMARK UNBOUND:                 0.077
REMARK  Name = 
REMARK  5 active torsions:
REMARK  status: ('A' for Active; 'I' for Inactive)
REMARK    1  A    between atoms: C_2  and  C_3
REMARK    2  A    between atoms: C_6  and  N_7
REMARK    3  A    between atoms: N_7  and  C_8
REMARK    4  A    between atoms: C_8  and  C_9
REMARK    5  A    between atoms: C_13  and  C_14
REMARK                            x       y       z     vdW  Elec       q    Type
REMARK                         _______ _______ _______ _____ _____    ______ ____
ROOT
ATOM      1  C   UNL     1      48.273   7.664  14.008  0.00  0.00    +0.000 C 
ATOM      2  C   UNL     1      49.594   7.222  13.415  0.00  0.00    +0.000 C 
ATOM      3  C   UNL     1      49.276   8.680  13.487  0.00  0.00    +0.000 C 
ENDROOT
BRANCH   1   4
ATOM      4  C   UNL     1      46.946   7.571  13.261  0.00  0.00    +0.000 A 
ATOM      5  C   UNL     1      46.093   8.673  13.132  0.00  0.00    +0.000 A 
ATOM      6  C   UNL     1      45.039   8.664  12.220  0.00  0.00    +0.000 A 
ATOM      7  C   UNL     1      44.805   7.535  11.430  0.00  0.00    +0.000 A 
ATOM      8  C   UNL     1      45.583   6.374  11.568  0.00  0.00    +0.000 A 
ATOM      9  C   UNL     1      46.638   6.417  12.501  0.00  0.00    +0.000 A 
BRANCH   8  10
ATOM     10  C   UNL     1      45.340   5.194  10.709  0.00  0.00    +0.000 A 
ATOM     11  C   UNL     1      44.783   4.008  11.190  0.00  0.00    +0.000 A 
ATOM     12  C   UNL     1      44.617   2.927  10.324  0.00  0.00    +0.000 A 
ATOM     13  C   UNL     1      45.009   3.049   8.998  0.00  0.00    +0.000 A 
ATOM     14  C   UNL     1      45.542   4.258   8.590  0.00  0.00    +0.000 A 
ATOM     15  N   UNL     1      45.708   5.323   9.406  0.00  0.00    +0.000 NA
ENDBRANCH   8  10
ENDBRANCH   1   4
BRANCH   1  16
ATOM     16  N   UNL     1      48.080   7.481  15.455  0.00  0.00    +0.000 N 
ATOM     17  H   UNL     1      47.650   8.213  16.005  0.00  0.00    +0.000 HD
BRANCH  16  21
ATOM     18  C   UNL     1      50.700   4.969  17.543  0.00  0.00    +0.000 A 
ATOM     19  C   UNL     1      50.943   6.319  17.360  0.00  0.00    +0.000 A 
ATOM     20  N   UNL     1      50.101   7.155  16.704  0.00  0.00    +0.000 NA
ATOM     21  C   UNL     1      48.943   6.650  16.206  0.00  0.00    +0.000 A 
ATOM     22  C   UNL     1      48.636   5.289  16.355  0.00  0.00    +0.000 A 
ATOM     23 CL   UNL     1      47.181   4.612  15.711  0.00  0.00    +0.000 Cl
ATOM     24  C   UNL     1      49.521   4.446  17.030  0.00  0.00    +0.000 A 
BRANCH  18  26
ATOM     25  N   UNL     1      52.401   3.480  18.823  0.00  0.00    +0.000 NA
ATOM     26  C   UNL     1      51.642   4.143  18.248  0.00  0.00    +0.000 C 
ENDBRANCH  18  26
ENDBRANCH  16  21
ENDBRANCH   1  16
TORSDOF 5
ENDMDL
MODEL 9
REMARK VINA RESULT:    -6.071      4.367      6.796
REMARK INTER + INTRA:          -7.768
REMARK INTER:                  -6.967
REMARK INTRA:                  -0.801
REMARK UNBOUND:                 0.077
REMARK  Name = 
REMARK  5 active torsions:
REMARK  status: ('A' for Active; 'I' for Inactive)
REMARK    1  A    between atoms: C_2  and  C_3
REMARK    2  A    between atoms: C_6  and  N_7
REMARK    3  A    between atoms: N_7  and  C_8
REMARK    4  A    between atoms: C_8  and  C_9
REMARK    5  A    between atoms: C_13  and  C_14
REMARK                            x       y       z     vdW  Elec       q    Type
REMARK                         _______ _______ _______ _____ _____    ______ ____
ROOT
ATOM      1  C   UNL     1      47.628   7.779  13.158  0.00  0.00    +0.000 C 
ATOM      2  C   UNL     1      48.865   6.907  13.177  0.00  0.00    +0.000 C 
ATOM      3  C   UNL     1      48.636   7.875  14.291  0.00  0.00    +0.000 C 
ENDROOT
BRANCH   1   4
ATOM      4  C   UNL     1      47.484   9.010  12.267  0.00  0.00    +0.000 A 
ATOM      5  C   UNL     1      46.310   9.773  12.248  0.00  0.00    +0.000 A 
ATOM      6  C   UNL     1      46.286  11.038  11.664  0.00  0.00    +0.000 A 
ATOM      7  C   UNL     1      47.436  11.557  11.066  0.00  0.00    +0.000 A 
ATOM      8  C   UNL     1      48.621  10.808  10.991  0.00  0.00    +0.000 A 
ATOM      9  C   UNL     1      48.611   9.532  11.588  0.00  0.00    +0.000 A 
BRANCH   8  10
ATOM     10  C   UNL     1      49.840  11.378  10.376  0.00  0.00    +0.000 A 
ATOM     11  C   UNL     1      49.811  12.166   9.223  0.00  0.00    +0.000 A 
ATOM     12  C   UNL     1      51.007  12.639   8.684  0.00  0.00    +0.000 A 
ATOM     13  C   UNL     1      52.208  12.319   9.303  0.00  0.00    +0.000 A 
ATOM     14  C   UNL     1      52.158  11.545  10.449  0.00  0.00    +0.000 A 
ATOM     15  N   UNL     1      51.013  11.079  10.995  0.00  0.00    +0.000 NA
ENDBRANCH   8  10
ENDBRANCH   1   4
BRANCH   1  16
ATOM     16  N   UNL     1      46.328   7.124  13.368  0.00  0.00    +0.000 N 
ATOM     17  H   UNL     1      45.910   7.112  14.290  0.00  0.00    +0.000 HD
BRANCH  16  21
ATOM     18  C   UNL     1      44.964   3.931  11.028  0.00  0.00    +0.000 A 
ATOM     19  C   UNL     1      44.938   5.243  10.591  0.00  0.00    +0.000 A 
ATOM     20  N   UNL     1      45.392   6.291  11.323  0.00  0.00    +0.000 NA
ATOM     21  C   UNL     1      45.915   6.046  12.553  0.00  0.00    +0.000 A 
ATOM     22  C   UNL     1      45.968   4.738  13.056  0.00  0.00    +0.000 A 
ATOM     23 CL   UNL     1      46.607   4.397  14.627  0.00  0.00    +0.000 Cl
ATOM     24  C   UNL     1      45.492   3.675  12.286  0.00  0.00    +0.000 A 
BRANCH  18  26
ATOM     25  N   UNL     1      44.060   2.010   9.530  0.00  0.00    +0.000 NA
ATOM     26  C   UNL     1      44.463   2.871  10.196  0.00  0.00    +0.000 C 
ENDBRANCH  18  26
ENDBRANCH  16  21
ENDBRANCH   1  16
TORSDOF 5
ENDMDL
