MODEL 1
REMARK VINA RESULT:    -8.520      0.000      0.000
REMARK INTER + INTRA:         -12.573
REMARK INTER:                 -11.509
REMARK INTRA:                  -1.064
REMARK UNBOUND:                -1.064
REMARK  Name = 
REMARK  6 active torsions:
REMARK  status: ('A' for Active; 'I' for Inactive)
REMARK    1  A    between atoms: C_2  and  C_4
REMARK    2  A    between atoms: C_7  and  O_8
REMARK    3  A    between atoms: O_8  and  C_9
REMARK    4  A    between atoms: C_9  and  C_10
REMARK    5  A    between atoms: C_10  and  C_13
REMARK    6  A    between atoms: C_17  and  N_18
REMARK                            x       y       z     vdW  Elec       q    Type
REMARK                         _______ _______ _______ _____ _____    ______ ____
ROOT
ATOM      1  C   UNL     1      43.753   4.491  12.622  0.00  0.00    +0.000 C 
ATOM      2  F   UNL     1      42.809   5.213  13.300  0.00  0.00    +0.000 F 
ATOM      3  F   UNL     1      43.594   3.201  13.046  0.00  0.00    +0.000 F 
ENDROOT
BRANCH   1   4
ATOM      4  C   UNL     1      45.156   5.001  12.895  0.00  0.00    +0.000 A 
ATOM      5  C   UNL     1      45.703   6.033  12.123  0.00  0.00    +0.000 A 
ATOM      6  C   UNL     1      46.957   6.550  12.425  0.00  0.00    +0.000 A 
ATOM      7  C   UNL     1      47.650   6.064  13.531  0.00  0.00    +0.000 A 
ATOM      8  C   UNL     1      47.131   5.050  14.350  0.00  0.00    +0.000 A 
ATOM      9  C   UNL     1      45.900   4.493  13.979  0.00  0.00    +0.000 A 
BRANCH   8  10
ATOM     10  N   UNL     1      47.766   4.680  15.515  0.00  0.00    +0.000 N 
ATOM     11  C   UNL     1      47.705   3.294  15.994  0.00  0.00    +0.000 C 
ATOM     12  C   UNL     1      47.122   3.247  17.418  0.00  0.00    +0.000 C 
ATOM     13  N   UNL     1      47.846   4.122  18.367  0.00  0.00    +0.000 NA
ATOM     14  C   UNL     1      47.840   5.506  17.838  0.00  0.00    +0.000 C 
ATOM     15  C   UNL     1      48.423   5.641  16.406  0.00  0.00    +0.000 C 
ATOM     16  H   UNL     1      48.815   3.806  18.401  0.00  0.00    +0.000 HD
ENDBRANCH   8  10
ENDBRANCH   1   4
BRANCH   1  17
ATOM     17  C   UNL     1      43.425   4.554  11.122  0.00  0.00    +0.000 C 
BRANCH  17  18
ATOM     18  O   UNL     1      43.437   3.230  10.535  0.00  0.00    +0.000 OA
BRANCH  18  22
ATOM     19  C   UNL     1      46.376   2.807   7.678  0.00  0.00    +0.000 A 
ATOM     20  C   UNL     1      45.871   4.078   7.947  0.00  0.00    +0.000 A 
ATOM     21  C   UNL     1      44.873   4.224   8.916  0.00  0.00    +0.000 A 
ATOM     22  C   UNL     1      44.426   3.089   9.585  0.00  0.00    +0.000 A 
ATOM     23  N   UNL     1      44.908   1.854   9.341  0.00  0.00    +0.000 NA
ATOM     24  C   UNL     1      45.860   1.735   8.388  0.00  0.00    +0.000 A 
BRANCH  19  26
ATOM     25  N   UNL     1      47.361   3.258   5.506  0.00  0.00    +0.000 N 
ATOM     26  C   UNL     1      47.413   2.530   6.659  0.00  0.00    +0.000 C 
ATOM     27  O   UNL     1      48.303   1.717   6.860  0.00  0.00    +0.000 OA
ATOM     28  H   UNL     1      48.152   3.140   4.879  0.00  0.00    +0.000 HD
ATOM     29  H   UNL     1      46.823   4.104   5.417  0.00  0.00    +0.000 HD
ENDBRANCH  19  26
ENDBRANCH  18  22
ENDBRANCH  17  18
ENDBRANCH   1  17
TORSDOF 6
ENDMDL
MODEL 2
REMARK VINA RESULT:    -7.852      2.445      3.905
REMARK INTER + INTRA:         -11.670
REMARK INTER:                 -10.562
REMARK INTRA:                  -1.108
REMARK UNBOUND:                -1.064
REMARK  Name = 
REMARK  6 active torsions:
REMARK  status: ('A' for Active; 'I' for Inactive)
REMARK    1  A    between atoms: C_2  and  C_4
REMARK    2  A    between atoms: C_7  and  O_8
REMARK    3  A    between atoms: O_8  and  C_9
REMARK    4  A    between atoms: C_9  and  C_10
REMARK    5  A    between atoms: C_10  and  C_13
REMARK    6  A    between atoms: C_17  and  N_18
REMARK                            x       y       z     vdW  Elec       q    Type
REMARK                         _______ _______ _______ _____ _____    ______ ____
ROOT
ATOM      1  C   UNL     1      43.624   4.538  12.491  0.00  0.00    +0.000 C 
ATOM      2  F   UNL     1      42.846   5.258  11.626  0.00  0.00    +0.000 F 
ATOM      3  F   UNL     1      42.847   4.344  13.599  0.00  0.00    +0.000 F 
ENDROOT
BRANCH   1   4
ATOM      4  C   UNL     1      44.911   5.266  12.831  0.00  0.00    +0.000 A 
ATOM      5  C   UNL     1      46.099   4.555  13.037  0.00  0.00    +0.000 A 
ATOM      6  C   UNL     1      47.292   5.230  13.272  0.00  0.00    +0.000 A 
ATOM      7  C   UNL     1      47.306   6.622  13.255  0.00  0.00    +0.000 A 
ATOM      8  C   UNL     1      46.147   7.377  13.025  0.00  0.00    +0.000 A 
ATOM      9  C   UNL     1      44.944   6.675  12.869  0.00  0.00    +0.000 A 
BRANCH   8  10
ATOM     10  N   UNL     1      46.205   8.745  12.876  0.00  0.00    +0.000 N 
ATOM     11  C   UNL     1      45.004   9.512  12.526  0.00  0.00    +0.000 C 
ATOM     12  C   UNL     1      45.242  10.316  11.235  0.00  0.00    +0.000 C 
ATOM     13  N   UNL     1      46.441  11.181  11.306  0.00  0.00    +0.000 NA
ATOM     14  C   UNL     1      47.617  10.338  11.630  0.00  0.00    +0.000 C 
ATOM     15  C   UNL     1      47.460   9.501  12.926  0.00  0.00    +0.000 C 
ATOM     16  H   UNL     1      46.306  11.835  12.077  0.00  0.00    +0.000 HD
ENDBRANCH   8  10
ENDBRANCH   1   4
BRANCH   1  17
ATOM     17  C   UNL     1      43.915   3.169  11.856  0.00  0.00    +0.000 C 
BRANCH  17  18
ATOM     18  O   UNL     1      43.393   3.104  10.507  0.00  0.00    +0.000 OA
BRANCH  18  22
ATOM     19  C   UNL     1      46.370   2.779   7.675  0.00  0.00    +0.000 A 
ATOM     20  C   UNL     1      45.902   4.045   8.023  0.00  0.00    +0.000 A 
ATOM     21  C   UNL     1      44.891   4.158   8.984  0.00  0.00    +0.000 A 
ATOM     22  C   UNL     1      44.395   2.995   9.565  0.00  0.00    +0.000 A 
ATOM     23  N   UNL     1      44.841   1.764   9.244  0.00  0.00    +0.000 NA
ATOM     24  C   UNL     1      45.806   1.679   8.301  0.00  0.00    +0.000 A 
BRANCH  19  26
ATOM     25  N   UNL     1      47.225   3.095   5.426  0.00  0.00    +0.000 N 
ATOM     26  C   UNL     1      47.416   2.538   6.657  0.00  0.00    +0.000 C 
ATOM     27  O   UNL     1      48.427   1.905   6.920  0.00  0.00    +0.000 OA
ATOM     28  H   UNL     1      48.012   3.021   4.786  0.00  0.00    +0.000 HD
ATOM     29  H   UNL     1      46.558   3.829   5.256  0.00  0.00    +0.000 HD
ENDBRANCH  19  26
ENDBRANCH  18  22
ENDBRANCH  17  18
ENDBRANCH   1  17
TORSDOF 6
ENDMDL
MODEL 3
REMARK VINA RESULT:    -7.784      2.363      3.435
REMARK INTER + INTRA:         -11.578
REMARK INTER:                 -10.585
REMARK INTRA:                  -0.993
REMARK UNBOUND:                -1.064
REMARK  Name = 
REMARK  6 active torsions:
REMARK  status: ('A' for Active; 'I' for Inactive)
REMARK    1  A    between atoms: C_2  and  C_4
REMARK    2  A    between atoms: C_7  and  O_8
REMARK    3  A    between atoms: O_8  and  C_9
REMARK    4  A    between atoms: C_9  and  C_10
REMARK    5  A    between atoms: C_10  and  C_13
REMARK    6  A    between atoms: C_17  and  N_18
REMARK                            x       y       z     vdW  Elec       q    Type
REMARK                         _______ _______ _______ _____ _____    ______ ____
ROOT
ATOM      1  C   UNL     1      43.403   5.428  11.724  0.00  0.00    +0.000 C 
ATOM      2  F   UNL     1      42.689   6.595  11.720  0.00  0.00    +0.000 F 
ATOM      3  F   UNL     1      42.627   4.532  12.407  0.00  0.00    +0.000 F 
ENDROOT
BRANCH   1   4
ATOM      4  C   UNL     1      44.762   5.602  12.377  0.00  0.00    +0.000 A 
ATOM      5  C   UNL     1      45.312   4.582  13.163  0.00  0.00    +0.000 A 
ATOM      6  C   UNL     1      46.589   4.713  13.695  0.00  0.00    +0.000 A 
ATOM      7  C   UNL     1      47.339   5.849  13.404  0.00  0.00    +0.000 A 
ATOM      8  C   UNL     1      46.842   6.885  12.599  0.00  0.00    +0.000 A 
ATOM      9  C   UNL     1      45.524   6.764  12.139  0.00  0.00    +0.000 A 
BRANCH   8  10
ATOM     10  N   UNL     1      47.645   7.934  12.210  0.00  0.00    +0.000 N 
ATOM     11  C   UNL     1      49.038   7.704  11.811  0.00  0.00    +0.000 C 
ATOM     12  C   UNL     1      49.988   8.545  12.682  0.00  0.00    +0.000 C 
ATOM     13  N   UNL     1      49.651   9.985  12.681  0.00  0.00    +0.000 NA
ATOM     14  C   UNL     1      48.246  10.146  13.124  0.00  0.00    +0.000 C 
ATOM     15  C   UNL     1      47.220   9.336  12.287  0.00  0.00    +0.000 C 
ATOM     16  H   UNL     1      49.713  10.317  11.718  0.00  0.00    +0.000 HD
ENDBRANCH   8  10
ENDBRANCH   1   4
BRANCH   1  17
ATOM     17  C   UNL     1      43.546   4.941  10.273  0.00  0.00    +0.000 C 
BRANCH  17  18
ATOM     18  O   UNL     1      43.739   3.507  10.227  0.00  0.00    +0.000 OA
BRANCH  18  22
ATOM     19  C   UNL     1      46.623   2.409   7.496  0.00  0.00    +0.000 A 
ATOM     20  C   UNL     1      46.305   3.759   7.639  0.00  0.00    +0.000 A 
ATOM     21  C   UNL     1      45.326   4.134   8.565  0.00  0.00    +0.000 A 
ATOM     22  C   UNL     1      44.710   3.140   9.319  0.00  0.00    +0.000 A 
ATOM     23  N   UNL     1      45.011   1.832   9.197  0.00  0.00    +0.000 NA
ATOM     24  C   UNL     1      45.948   1.492   8.284  0.00  0.00    +0.000 A 
BRANCH  19  26
ATOM     25  N   UNL     1      48.726   2.669   6.312  0.00  0.00    +0.000 N 
ATOM     26  C   UNL     1      47.623   1.896   6.533  0.00  0.00    +0.000 C 
ATOM     27  O   UNL     1      47.489   0.808   5.994  0.00  0.00    +0.000 OA
ATOM     28  H   UNL     1      49.453   2.240   5.746  0.00  0.00    +0.000 HD
ATOM     29  H   UNL     1      48.999   3.421   6.923  0.00  0.00    +0.000 HD
ENDBRANCH  19  26
ENDBRANCH  18  22
ENDBRANCH  17  18
ENDBRANCH   1  17
TORSDOF 6
ENDMDL
MODEL 4
REMARK VINA RESULT:    -7.735      2.699      3.402
REMARK INTER + INTRA:         -11.511
REMARK INTER:                 -10.729
REMARK INTRA:                  -0.782
REMARK UNBOUND:                -1.064
REMARK  Name = 
REMARK  6 active torsions:
REMARK  status: ('A' for Active; 'I' for Inactive)
REMARK    1  A    between atoms: C_2  and  C_4
REMARK    2  A    between atoms: C_7  and  O_8
REMARK    3  A    between atoms: O_8  and  C_9
REMARK    4  A    between atoms: C_9  and  C_10
REMARK    5  A    between atoms: C_10  and  C_13
REMARK    6  A    between atoms: C_17  and  N_18
REMARK                            x       y       z     vdW  Elec       q    Type
REMARK                         _______ _______ _______ _____ _____    ______ ____
ROOT
ATOM      1  C   UNL     1      43.992   6.033  11.758  0.00  0.00    +0.000 C 
ATOM      2  F   UNL     1      42.946   6.406  10.959  0.00  0.00    +0.000 F 
ATOM      3  F   UNL     1      43.440   5.791  12.986  0.00  0.00    +0.000 F 
ENDROOT
BRANCH   1   4
ATOM      4  C   UNL     1      45.060   7.108  11.827  0.00  0.00    +0.000 A 
ATOM      5  C   UNL     1      44.711   8.463  11.792  0.00  0.00    +0.000 A 
ATOM      6  C   UNL     1      45.685   9.445  11.932  0.00  0.00    +0.000 A 
ATOM      7  C   UNL     1      47.008   9.072  12.156  0.00  0.00    +0.000 A 
ATOM      8  C   UNL     1      47.401   7.727  12.226  0.00  0.00    +0.000 A 
ATOM      9  C   UNL     1      46.414   6.758  12.003  0.00  0.00    +0.000 A 
BRANCH   8  10
ATOM     10  N   UNL     1      48.684   7.378  12.583  0.00  0.00    +0.000 N 
ATOM     11  C   UNL     1      48.981   6.894  13.936  0.00  0.00    +0.000 C 
ATOM     12  C   UNL     1      50.057   7.777  14.594  0.00  0.00    +0.000 C 
ATOM     13  N   UNL     1      51.284   7.899  13.777  0.00  0.00    +0.000 NA
ATOM     14  C   UNL     1      50.915   8.421  12.440  0.00  0.00    +0.000 C 
ATOM     15  C   UNL     1      49.840   7.579  11.703  0.00  0.00    +0.000 C 
ATOM     16  H   UNL     1      51.665   6.961  13.649  0.00  0.00    +0.000 HD
ENDBRANCH   8  10
ENDBRANCH   1   4
BRANCH   1  17
ATOM     17  C   UNL     1      44.569   4.715  11.217  0.00  0.00    +0.000 C 
BRANCH  17  18
ATOM     18  O   UNL     1      43.955   4.364   9.953  0.00  0.00    +0.000 OA
BRANCH  18  22
ATOM     19  C   UNL     1      46.589   2.410   7.457  0.00  0.00    +0.000 A 
ATOM     20  C   UNL     1      45.908   1.679   8.429  0.00  0.00    +0.000 A 
ATOM     21  C   UNL     1      45.014   2.340   9.278  0.00  0.00    +0.000 A 
ATOM     22  C   UNL     1      44.831   3.709   9.113  0.00  0.00    +0.000 A 
ATOM     23  N   UNL     1      45.477   4.429   8.174  0.00  0.00    +0.000 NA
ATOM     24  C   UNL     1      46.349   3.772   7.377  0.00  0.00    +0.000 A 
BRANCH  19  26
ATOM     25  N   UNL     1      48.742   2.505   6.340  0.00  0.00    +0.000 N 
ATOM     26  C   UNL     1      47.574   1.822   6.522  0.00  0.00    +0.000 C 
ATOM     27  O   UNL     1      47.370   0.751   5.972  0.00  0.00    +0.000 OA
ATOM     28  H   UNL     1      49.450   2.022   5.793  0.00  0.00    +0.000 HD
ATOM     29  H   UNL     1      49.054   3.231   6.964  0.00  0.00    +0.000 HD
ENDBRANCH  19  26
ENDBRANCH  18  22
ENDBRANCH  17  18
ENDBRANCH   1  17
TORSDOF 6
ENDMDL
MODEL 5
REMARK VINA RESULT:    -7.297      3.332      4.948
REMARK INTER + INTRA:         -10.920
REMARK INTER:                 -10.078
REMARK INTRA:                  -0.843
REMARK UNBOUND:                -1.064
REMARK  Name = 
REMARK  6 active torsions:
REMARK  status: ('A' for Active; 'I' for Inactive)
REMARK    1  A    between atoms: C_2  and  C_4
REMARK    2  A    between atoms: C_7  and  O_8
REMARK    3  A    between atoms: O_8  and  C_9
REMARK    4  A    between atoms: C_9  and  C_10
REMARK    5  A    between atoms: C_10  and  C_13
REMARK    6  A    between atoms: C_17  and  N_18
REMARK                            x       y       z     vdW  Elec       q    Type
REMARK                         _______ _______ _______ _____ _____    ______ ____
ROOT
ATOM      1  C   UNL     1      44.850   5.099  12.230  0.00  0.00    +0.000 C 
ATOM      2  F   UNL     1      43.953   4.847  13.231  0.00  0.00    +0.000 F 
ATOM      3  F   UNL     1      45.715   4.040  12.244  0.00  0.00    +0.000 F 
ENDROOT
BRANCH   1   4
ATOM      4  C   UNL     1      45.575   6.415  12.442  0.00  0.00    +0.000 A 
ATOM      5  C   UNL     1      46.912   6.434  12.857  0.00  0.00    +0.000 A 
ATOM      6  C   UNL     1      47.596   7.639  12.976  0.00  0.00    +0.000 A 
ATOM      7  C   UNL     1      46.955   8.827  12.634  0.00  0.00    +0.000 A 
ATOM      8  C   UNL     1      45.626   8.855  12.188  0.00  0.00    +0.000 A 
ATOM      9  C   UNL     1      44.935   7.637  12.151  0.00  0.00    +0.000 A 
BRANCH   8  10
ATOM     10  N   UNL     1      45.054  10.020  11.725  0.00  0.00    +0.000 N 
ATOM     11  C   UNL     1      43.720  10.009  11.114  0.00  0.00    +0.000 C 
ATOM     12  C   UNL     1      43.780  10.595   9.692  0.00  0.00    +0.000 C 
ATOM     13  N   UNL     1      44.390  11.943   9.647  0.00  0.00    +0.000 NA
ATOM     14  C   UNL     1      45.743  11.873  10.248  0.00  0.00    +0.000 C 
ATOM     15  C   UNL     1      45.768  11.301  11.690  0.00  0.00    +0.000 C 
ATOM     16  H   UNL     1      43.822  12.558  10.230  0.00  0.00    +0.000 HD
ENDBRANCH   8  10
ENDBRANCH   1   4
BRANCH   1  17
ATOM     17  C   UNL     1      44.096   5.094  10.890  0.00  0.00    +0.000 C 
BRANCH  17  18
ATOM     18  O   UNL     1      43.874   3.740  10.429  0.00  0.00    +0.000 OA
BRANCH  18  22
ATOM     19  C   UNL     1      46.556   2.618   7.508  0.00  0.00    +0.000 A 
ATOM     20  C   UNL     1      46.233   3.967   7.649  0.00  0.00    +0.000 A 
ATOM     21  C   UNL     1      45.322   4.350   8.639  0.00  0.00    +0.000 A 
ATOM     22  C   UNL     1      44.777   3.365   9.457  0.00  0.00    +0.000 A 
ATOM     23  N   UNL     1      45.084   2.058   9.338  0.00  0.00    +0.000 NA
ATOM     24  C   UNL     1      45.953   1.709   8.363  0.00  0.00    +0.000 A 
BRANCH  19  26
ATOM     25  N   UNL     1      47.960   2.986   5.563  0.00  0.00    +0.000 N 
ATOM     26  C   UNL     1      47.486   2.095   6.483  0.00  0.00    +0.000 C 
ATOM     27  O   UNL     1      47.848   0.929   6.485  0.00  0.00    +0.000 OA
ATOM     28  H   UNL     1      48.690   2.633   4.950  0.00  0.00    +0.000 HD
ATOM     29  H   UNL     1      47.902   3.983   5.687  0.00  0.00    +0.000 HD
ENDBRANCH  19  26
ENDBRANCH  18  22
ENDBRANCH  17  18
ENDBRANCH   1  17
TORSDOF 6
ENDMDL
MODEL 6
REMARK VINA RESULT:    -6.955      3.760      7.643
REMARK INTER + INTRA:         -10.458
REMARK INTER:                  -9.396
REMARK INTRA:                  -1.062
REMARK UNBOUND:                -1.064
REMARK  Name = 
REMARK  6 active torsions:
REMARK  status: ('A' for Active; 'I' for Inactive)
REMARK    1  A    between atoms: C_2  and  C_4
REMARK    2  A    between atoms: C_7  and  O_8
REMARK    3  A    between atoms: O_8  and  C_9
REMARK    4  A    between atoms: C_9  and  C_10
REMARK    5  A    between atoms: C_10  and  C_13
REMARK    6  A    between atoms: C_17  and  N_18
REMARK                            x       y       z     vdW  Elec       q    Type
REMARK                         _______ _______ _______ _____ _____    ______ ____
ROOT
ATOM      1  C   UNL     1      48.728   7.791  11.835  0.00  0.00    +0.000 C 
ATOM      2  F   UNL     1      49.200   9.073  11.915  0.00  0.00    +0.000 F 
ATOM      3  F   UNL     1      49.234   7.293  10.667  0.00  0.00    +0.000 F 
ENDROOT
BRANCH   1   4
ATOM      4  C   UNL     1      47.211   7.748  11.850  0.00  0.00    +0.000 A 
ATOM      5  C   UNL     1      46.467   8.898  12.140  0.00  0.00    +0.000 A 
ATOM      6  C   UNL     1      45.079   8.874  12.077  0.00  0.00    +0.000 A 
ATOM      7  C   UNL     1      44.431   7.708  11.679  0.00  0.00    +0.000 A 
ATOM      8  C   UNL     1      45.135   6.539  11.352  0.00  0.00    +0.000 A 
ATOM      9  C   UNL     1      46.528   6.566  11.499  0.00  0.00    +0.000 A 
BRANCH   8  10
ATOM     10  N   UNL     1      44.489   5.440  10.830  0.00  0.00    +0.000 N 
ATOM     11  C   UNL     1      43.187   5.014  11.357  0.00  0.00    +0.000 C 
ATOM     12  C   UNL     1      43.259   3.554  11.839  0.00  0.00    +0.000 C 
ATOM     13  N   UNL     1      43.757   2.626  10.799  0.00  0.00    +0.000 NA
ATOM     14  C   UNL     1      45.084   3.097  10.337  0.00  0.00    +0.000 C 
ATOM     15  C   UNL     1      45.095   4.561   9.824  0.00  0.00    +0.000 C 
ATOM     16  H   UNL     1      43.116   2.677  10.007  0.00  0.00    +0.000 HD
ENDBRANCH   8  10
ENDBRANCH   1   4
BRANCH   1  17
ATOM     17  C   UNL     1      49.315   6.984  13.003  0.00  0.00    +0.000 C 
BRANCH  17  18
ATOM     18  O   UNL     1      48.862   7.512  14.274  0.00  0.00    +0.000 OA
BRANCH  18  22
ATOM     19  C   UNL     1      47.907   4.517  16.938  0.00  0.00    +0.000 A 
ATOM     20  C   UNL     1      48.627   5.622  17.391  0.00  0.00    +0.000 A 
ATOM     21  C   UNL     1      48.953   6.639  16.488  0.00  0.00    +0.000 A 
ATOM     22  C   UNL     1      48.536   6.514  15.167  0.00  0.00    +0.000 A 
ATOM     23  N   UNL     1      47.833   5.456  14.715  0.00  0.00    +0.000 NA
ATOM     24  C   UNL     1      47.544   4.477  15.602  0.00  0.00    +0.000 A 
BRANCH  19  26
ATOM     25  N   UNL     1      48.313   3.125  18.884  0.00  0.00    +0.000 N 
ATOM     26  C   UNL     1      47.528   3.373  17.796  0.00  0.00    +0.000 C 
ATOM     27  O   UNL     1      46.530   2.706  17.565  0.00  0.00    +0.000 OA
ATOM     28  H   UNL     1      47.963   2.416  19.523  0.00  0.00    +0.000 HD
ATOM     29  H   UNL     1      48.967   3.797  19.251  0.00  0.00    +0.000 HD
ENDBRANCH  19  26
ENDBRANCH  18  22
ENDBRANCH  17  18
ENDBRANCH   1  17
TORSDOF 6
ENDMDL
MODEL 7
REMARK VINA RESULT:    -6.905      3.448      4.785
REMARK INTER + INTRA:         -10.391
REMARK INTER:                  -9.564
REMARK INTRA:                  -0.827
REMARK UNBOUND:                -1.064
REMARK  Name = 
REMARK  6 active torsions:
REMARK  status: ('A' for Active; 'I' for Inactive)
REMARK    1  A    between atoms: C_2  and  C_4
REMARK    2  A    between atoms: C_7  and  O_8
REMARK    3  A    between atoms: O_8  and  C_9
REMARK    4  A    between atoms: C_9  and  C_10
REMARK    5  A    between atoms: C_10  and  C_13
REMARK    6  A    between atoms: C_17  and  N_18
REMARK                            x       y       z     vdW  Elec       q    Type
REMARK                         _______ _______ _______ _____ _____    ______ ____
ROOT
ATOM      1  C   UNL     1      45.035   2.900   8.972  0.00  0.00    +0.000 C 
ATOM      2  F   UNL     1      43.973   2.333   8.322  0.00  0.00    +0.000 F 
ATOM      3  F   UNL     1      45.755   1.850   9.472  0.00  0.00    +0.000 F 
ENDROOT
BRANCH   1   4
ATOM      4  C   UNL     1      44.583   3.843  10.073  0.00  0.00    +0.000 A 
ATOM      5  C   UNL     1      43.599   3.451  10.988  0.00  0.00    +0.000 A 
ATOM      6  C   UNL     1      43.243   4.286  12.040  0.00  0.00    +0.000 A 
ATOM      7  C   UNL     1      43.906   5.499  12.207  0.00  0.00    +0.000 A 
ATOM      8  C   UNL     1      44.917   5.922  11.332  0.00  0.00    +0.000 A 
ATOM      9  C   UNL     1      45.203   5.098  10.235  0.00  0.00    +0.000 A 
BRANCH   8  10
ATOM     10  N   UNL     1      45.655   7.056  11.590  0.00  0.00    +0.000 N 
ATOM     11  C   UNL     1      47.050   6.959  12.033  0.00  0.00    +0.000 C 
ATOM     12  C   UNL     1      47.234   7.685  13.378  0.00  0.00    +0.000 C 
ATOM     13  N   UNL     1      46.768   9.090  13.345  0.00  0.00    +0.000 NA
ATOM     14  C   UNL     1      45.348   9.110  12.922  0.00  0.00    +0.000 C 
ATOM     15  C   UNL     1      45.079   8.405  11.567  0.00  0.00    +0.000 C 
ATOM     16  H   UNL     1      47.311   9.579  12.633  0.00  0.00    +0.000 HD
ENDBRANCH   8  10
ENDBRANCH   1   4
BRANCH   1  17
ATOM     17  C   UNL     1      45.901   3.635   7.937  0.00  0.00    +0.000 C 
BRANCH  17  18
ATOM     18  O   UNL     1      47.124   2.906   7.677  0.00  0.00    +0.000 OA
BRANCH  18  22
ATOM     19  C   UNL     1      46.918   0.757   4.166  0.00  0.00    +0.000 A 
ATOM     20  C   UNL     1      46.692   2.132   4.133  0.00  0.00    +0.000 A 
ATOM     21  C   UNL     1      46.760   2.863   5.323  0.00  0.00    +0.000 A 
ATOM     22  C   UNL     1      47.063   2.188   6.501  0.00  0.00    +0.000 A 
ATOM     23  N   UNL     1      47.291   0.860   6.549  0.00  0.00    +0.000 NA
ATOM     24  C   UNL     1      47.202   0.172   5.389  0.00  0.00    +0.000 A 
BRANCH  19  26
ATOM     25  N   UNL     1      45.606  -0.413   2.493  0.00  0.00    +0.000 N 
ATOM     26  C   UNL     1      46.848  -0.119   2.976  0.00  0.00    +0.000 C 
ATOM     27  O   UNL     1      47.859  -0.525   2.423  0.00  0.00    +0.000 OA
ATOM     28  H   UNL     1      45.588  -0.911   1.607  0.00  0.00    +0.000 HD
ATOM     29  H   UNL     1      44.783   0.108   2.748  0.00  0.00    +0.000 HD
ENDBRANCH  19  26
ENDBRANCH  18  22
ENDBRANCH  17  18
ENDBRANCH   1  17
TORSDOF 6
ENDMDL
MODEL 8
REMARK VINA RESULT:    -6.782      2.919      8.278
REMARK INTER + INTRA:         -10.225
REMARK INTER:                  -9.720
REMARK INTRA:                  -0.504
REMARK UNBOUND:                -1.064
REMARK  Name = 
REMARK  6 active torsions:
REMARK  status: ('A' for Active; 'I' for Inactive)
REMARK    1  A    between atoms: C_2  and  C_4
REMARK    2  A    between atoms: C_7  and  O_8
REMARK    3  A    between atoms: O_8  and  C_9
REMARK    4  A    between atoms: C_9  and  C_10
REMARK    5  A    between atoms: C_10  and  C_13
REMARK    6  A    between atoms: C_17  and  N_18
REMARK                            x       y       z     vdW  Elec       q    Type
REMARK                         _______ _______ _______ _____ _____    ______ ____
ROOT
ATOM      1  C   UNL     1      46.006   6.207  12.647  0.00  0.00    +0.000 C 
ATOM      2  F   UNL     1      45.206   7.096  13.312  0.00  0.00    +0.000 F 
ATOM      3  F   UNL     1      46.564   6.919  11.622  0.00  0.00    +0.000 F 
ENDROOT
BRANCH   1   4
ATOM      4  C   UNL     1      45.218   5.015  12.136  0.00  0.00    +0.000 A 
ATOM      5  C   UNL     1      44.117   4.527  12.850  0.00  0.00    +0.000 A 
ATOM      6  C   UNL     1      43.352   3.485  12.341  0.00  0.00    +0.000 A 
ATOM      7  C   UNL     1      43.660   2.957  11.090  0.00  0.00    +0.000 A 
ATOM      8  C   UNL     1      44.736   3.431  10.325  0.00  0.00    +0.000 A 
ATOM      9  C   UNL     1      45.539   4.428  10.895  0.00  0.00    +0.000 A 
BRANCH   8  10
ATOM     10  N   UNL     1      44.942   2.992   9.036  0.00  0.00    +0.000 N 
ATOM     11  C   UNL     1      45.130   1.565   8.749  0.00  0.00    +0.000 C 
ATOM     12  C   UNL     1      46.470   1.338   8.027  0.00  0.00    +0.000 C 
ATOM     13  N   UNL     1      46.617   2.163   6.808  0.00  0.00    +0.000 NA
ATOM     14  C   UNL     1      46.448   3.589   7.175  0.00  0.00    +0.000 C 
ATOM     15  C   UNL     1      45.114   3.905   7.900  0.00  0.00    +0.000 C 
ATOM     16  H   UNL     1      45.859   1.915   6.173  0.00  0.00    +0.000 HD
ENDBRANCH   8  10
ENDBRANCH   1   4
BRANCH   1  17
ATOM     17  C   UNL     1      47.129   5.760  13.597  0.00  0.00    +0.000 C 
BRANCH  17  18
ATOM     18  O   UNL     1      46.733   4.586  14.346  0.00  0.00    +0.000 OA
BRANCH  18  22
ATOM     19  C   UNL     1      48.633   4.355  17.996  0.00  0.00    +0.000 A 
ATOM     20  C   UNL     1      47.664   3.405  17.676  0.00  0.00    +0.000 A 
ATOM     21  C   UNL     1      47.017   3.482  16.438  0.00  0.00    +0.000 A 
ATOM     22  C   UNL     1      47.375   4.504  15.564  0.00  0.00    +0.000 A 
ATOM     23  N   UNL     1      48.314   5.426  15.856  0.00  0.00    +0.000 NA
ATOM     24  C   UNL     1      48.913   5.342  17.065  0.00  0.00    +0.000 A 
BRANCH  19  26
ATOM     25  N   UNL     1      48.693   3.949  20.388  0.00  0.00    +0.000 N 
ATOM     26  C   UNL     1      49.363   4.387  19.283  0.00  0.00    +0.000 C 
ATOM     27  O   UNL     1      50.528   4.747  19.346  0.00  0.00    +0.000 OA
ATOM     28  H   UNL     1      49.252   3.863  21.232  0.00  0.00    +0.000 HD
ATOM     29  H   UNL     1      47.848   3.404  20.335  0.00  0.00    +0.000 HD
ENDBRANCH  19  26
ENDBRANCH  18  22
ENDBRANCH  17  18
ENDBRANCH   1  17
TORSDOF 6
ENDMDL
MODEL 9
REMARK VINA RESULT:    -6.718      3.683      5.816
REMARK INTER + INTRA:         -10.139
REMARK INTER:                  -9.418
REMARK INTRA:                  -0.720
REMARK UNBOUND:                -1.064
REMARK  Name = 
REMARK  6 active torsions:
REMARK  status: ('A' for Active; 'I' for Inactive)
REMARK    1  A    between atoms: C_2  and  C_4
REMARK    2  A    between atoms: C_7  and  O_8
REMARK    3  A    between atoms: O_8  and  C_9
REMARK    4  A    between atoms: C_9  and  C_10
REMARK    5  A    between atoms: C_10  and  C_13
REMARK    6  A    between atoms: C_17  and  N_18
REMARK                            x       y       z     vdW  Elec       q    Type
REMARK                         _______ _______ _______ _____ _____    ______ ____
ROOT
ATOM      1  C   UNL     1      48.120   2.982  16.761  0.00  0.00    +0.000 C 
ATOM      2  F   UNL     1      47.209   2.385  17.588  0.00  0.00    +0.000 F 
ATOM      3  F   UNL     1      48.686   1.960  16.050  0.00  0.00    +0.000 F 
ENDROOT
BRANCH   1   4
ATOM      4  C   UNL     1      49.161   3.764  17.541  0.00  0.00    +0.000 A 
ATOM      5  C   UNL     1      50.479   3.300  17.634  0.00  0.00    +0.000 A 
ATOM      6  C   UNL     1      51.448   4.057  18.283  0.00  0.00    +0.000 A 
ATOM      7  C   UNL     1      51.109   5.303  18.803  0.00  0.00    +0.000 A 
ATOM      8  C   UNL     1      49.809   5.821  18.710  0.00  0.00    +0.000 A 
ATOM      9  C   UNL     1      48.834   5.006  18.120  0.00  0.00    +0.000 A 
BRANCH   8  10
ATOM     10  N   UNL     1      49.524   7.109  19.106  0.00  0.00    +0.000 N 
ATOM     11  C   UNL     1      49.093   7.394  20.480  0.00  0.00    +0.000 C 
ATOM     12  C   UNL     1      47.730   8.109  20.473  0.00  0.00    +0.000 C 
ATOM     13  N   UNL     1      47.721   9.329  19.634  0.00  0.00    +0.000 NA
ATOM     14  C   UNL     1      48.134   8.963  18.259  0.00  0.00    +0.000 C 
ATOM     15  C   UNL     1      49.507   8.245  18.178  0.00  0.00    +0.000 C 
ATOM     16  H   UNL     1      48.422   9.967  20.010  0.00  0.00    +0.000 HD
ENDBRANCH   8  10
ENDBRANCH   1   4
BRANCH   1  17
ATOM     17  C   UNL     1      47.364   3.895  15.783  0.00  0.00    +0.000 C 
BRANCH  17  18
ATOM     18  O   UNL     1      47.477   3.402  14.426  0.00  0.00    +0.000 OA
BRANCH  18  22
ATOM     19  C   UNL     1      44.482   4.864  12.002  0.00  0.00    +0.000 A 
ATOM     20  C   UNL     1      45.208   5.754  12.792  0.00  0.00    +0.000 A 
ATOM     21  C   UNL     1      46.225   5.260  13.616  0.00  0.00    +0.000 A 
ATOM     22  C   UNL     1      46.480   3.893  13.609  0.00  0.00    +0.000 A 
ATOM     23  N   UNL     1      45.790   3.020  12.846  0.00  0.00    +0.000 NA
ATOM     24  C   UNL     1      44.802   3.519  12.071  0.00  0.00    +0.000 A 
BRANCH  19  26
ATOM     25  N   UNL     1      42.410   6.078  11.647  0.00  0.00    +0.000 N 
ATOM     26  C   UNL     1      43.371   5.270  11.112  0.00  0.00    +0.000 C 
ATOM     27  O   UNL     1      43.338   4.933   9.939  0.00  0.00    +0.000 OA
ATOM     28  H   UNL     1      41.728   6.442  10.987  0.00  0.00    +0.000 HD
ATOM     29  H   UNL     1      42.538   6.585  12.507  0.00  0.00    +0.000 HD
ENDBRANCH  19  26
ENDBRANCH  18  22
ENDBRANCH  17  18
ENDBRANCH   1  17
TORSDOF 6
ENDMDL
