MODEL 1
REMARK VINA RESULT:    -8.930      0.000      0.000
REMARK INTER + INTRA:         -13.655
REMARK INTER:                 -12.584
REMARK INTRA:                  -1.071
REMARK UNBOUND:                -1.071
REMARK  Name = 
REMARK  8 active torsions:
REMARK  status: ('A' for Active; 'I' for Inactive)
REMARK    1  A    between atoms: C_1  and  C_2
REMARK    2  A    between atoms: C_2  and  N_3
REMARK    3  A    between atoms: C_2  and  C_25
REMARK    4  A    between atoms: N_3  and  C_4
REMARK    5  A    between atoms: C_4  and  C_5
REMARK    6  A    between atoms: C_9  and  C_10
REMARK    7  A    between atoms: C_10  and  N_11
REMARK    8  A    between atoms: C_12  and  C_14
REMARK                            x       y       z     vdW  Elec       q    Type
REMARK                         _______ _______ _______ _____ _____    ______ ____
ROOT
ATOM      1  C   UNL     1      45.222   5.354  11.008  0.00  0.00    +0.000 A 
ATOM      2  C   UNL     1      46.097   6.434  10.816  0.00  0.00    +0.000 A 
ATOM      3  C   UNL     1      47.009   6.790  11.809  0.00  0.00    +0.000 A 
ATOM      4  C   UNL     1      47.033   6.095  13.019  0.00  0.00    +0.000 A 
ATOM      5  C   UNL     1      46.140   5.041  13.250  0.00  0.00    +0.000 A 
ATOM      6  C   UNL     1      45.269   4.650  12.221  0.00  0.00    +0.000 A 
ENDROOT
BRANCH   1   7
ATOM      7  C   UNL     1      44.144   5.056   9.995  0.00  0.00    +0.000 C 
BRANCH   7   8
ATOM      8  N   UNL     1      44.656   4.406   8.790  0.00  0.00    +0.000 NA
ATOM      9  H   UNL     1      45.343   5.022   8.353  0.00  0.00    +0.000 HD
BRANCH   8  11
ATOM     10  C   UNL     1      44.313   2.042   9.547  0.00  0.00    +0.000 C 
ATOM     11  C   UNL     1      45.307   3.118   9.080  0.00  0.00    +0.000 C 
BRANCH  11  12
ATOM     12  C   UNL     1      46.059   2.620   7.853  0.00  0.00    +0.000 A 
ATOM     13  C   UNL     1      46.259   3.466   6.751  0.00  0.00    +0.000 A 
ATOM     14  C   UNL     1      46.997   3.035   5.646  0.00  0.00    +0.000 A 
ATOM     15  C   UNL     1      47.545   1.754   5.628  0.00  0.00    +0.000 A 
ATOM     16  C   UNL     1      47.342   0.896   6.707  0.00  0.00    +0.000 A 
ATOM     17  C   UNL     1      46.600   1.324   7.809  0.00  0.00    +0.000 A 
ENDBRANCH  11  12
ENDBRANCH   8  11
ENDBRANCH   7   8
ENDBRANCH   1   7
BRANCH   5  18
ATOM     18  C   UNL     1      46.079   4.366  14.595  0.00  0.00    +0.000 C 
BRANCH  18  19
ATOM     19  N   UNL     1      47.265   4.599  15.374  0.00  0.00    +0.000 N 
ATOM     20  C   UNL     1      47.414   4.033  16.614  0.00  0.00    +0.000 C 
ATOM     21  O   UNL     1      46.580   3.268  17.089  0.00  0.00    +0.000 OA
ATOM     22  H   UNL     1      47.820   5.414  15.128  0.00  0.00    +0.000 HD
BRANCH  20  23
ATOM     23  C   UNL     1      48.665   4.335  17.320  0.00  0.00    +0.000 A 
ATOM     24  C   UNL     1      48.807   5.544  17.988  0.00  0.00    +0.000 A 
ATOM     25  S   UNL     1      50.304   5.708  18.790  0.00  0.00    +0.000 S 
ATOM     26  C   UNL     1      50.835   4.191  18.227  0.00  0.00    +0.000 A 
ATOM     27  N   UNL     1      52.075   3.726  18.534  0.00  0.00    +0.000 NA
ATOM     28  C   UNL     1      52.355   2.577  18.017  0.00  0.00    +0.000 A 
ATOM     29  N   UNL     1      51.504   1.846  17.226  0.00  0.00    +0.000 N 
ATOM     30  C   UNL     1      50.231   2.262  16.916  0.00  0.00    +0.000 A 
ATOM     31  O   UNL     1      49.480   1.563  16.250  0.00  0.00    +0.000 OA
ATOM     32  C   UNL     1      49.873   3.559  17.460  0.00  0.00    +0.000 A 
ATOM     33  H   UNL     1      51.777   0.946  16.865  0.00  0.00    +0.000 HD
ENDBRANCH  20  23
ENDBRANCH  18  19
ENDBRANCH   5  18
TORSDOF 7
ENDMDL
MODEL 2
REMARK VINA RESULT:    -8.476      1.898      2.763
REMARK INTER + INTRA:         -13.016
REMARK INTER:                 -11.814
REMARK INTRA:                  -1.202
REMARK UNBOUND:                -1.071
REMARK  Name = 
REMARK  8 active torsions:
REMARK  status: ('A' for Active; 'I' for Inactive)
REMARK    1  A    between atoms: C_1  and  C_2
REMARK    2  A    between atoms: C_2  and  N_3
REMARK    3  A    between atoms: C_2  and  C_25
REMARK    4  A    between atoms: N_3  and  C_4
REMARK    5  A    between atoms: C_4  and  C_5
REMARK    6  A    between atoms: C_9  and  C_10
REMARK    7  A    between atoms: C_10  and  N_11
REMARK    8  A    between atoms: C_12  and  C_14
REMARK                            x       y       z     vdW  Elec       q    Type
REMARK                         _______ _______ _______ _____ _____    ______ ____
ROOT
ATOM      1  C   UNL     1      44.110   4.999  10.499  0.00  0.00    +0.000 A 
ATOM      2  C   UNL     1      43.193   4.627  11.495  0.00  0.00    +0.000 A 
ATOM      3  C   UNL     1      43.252   5.203  12.762  0.00  0.00    +0.000 A 
ATOM      4  C   UNL     1      44.249   6.134  13.062  0.00  0.00    +0.000 A 
ATOM      5  C   UNL     1      45.201   6.491  12.098  0.00  0.00    +0.000 A 
ATOM      6  C   UNL     1      45.095   5.951  10.806  0.00  0.00    +0.000 A 
ENDROOT
BRANCH   1   7
ATOM      7  C   UNL     1      44.134   4.277   9.175  0.00  0.00    +0.000 C 
BRANCH   7   8
ATOM      8  N   UNL     1      45.484   4.100   8.644  0.00  0.00    +0.000 NA
ATOM      9  H   UNL     1      46.131   4.652   9.208  0.00  0.00    +0.000 HD
BRANCH   8  11
ATOM     10  C   UNL     1      44.792   1.731   9.076  0.00  0.00    +0.000 C 
ATOM     11  C   UNL     1      45.921   2.695   8.679  0.00  0.00    +0.000 C 
BRANCH  11  12
ATOM     12  C   UNL     1      46.490   2.287   7.327  0.00  0.00    +0.000 A 
ATOM     13  C   UNL     1      46.934   0.973   7.110  0.00  0.00    +0.000 A 
ATOM     14  C   UNL     1      47.404   0.577   5.855  0.00  0.00    +0.000 A 
ATOM     15  C   UNL     1      47.435   1.488   4.801  0.00  0.00    +0.000 A 
ATOM     16  C   UNL     1      47.013   2.801   5.004  0.00  0.00    +0.000 A 
ATOM     17  C   UNL     1      46.549   3.198   6.259  0.00  0.00    +0.000 A 
ENDBRANCH  11  12
ENDBRANCH   8  11
ENDBRANCH   7   8
ENDBRANCH   1   7
BRANCH   5  18
ATOM     18  C   UNL     1      46.347   7.401  12.450  0.00  0.00    +0.000 C 
BRANCH  18  19
ATOM     19  N   UNL     1      46.824   7.181  13.788  0.00  0.00    +0.000 N 
ATOM     20  C   UNL     1      47.877   6.334  14.029  0.00  0.00    +0.000 C 
ATOM     21  O   UNL     1      48.488   5.776  13.124  0.00  0.00    +0.000 OA
ATOM     22  H   UNL     1      46.184   7.408  14.544  0.00  0.00    +0.000 HD
BRANCH  20  23
ATOM     23  C   UNL     1      48.282   6.186  15.432  0.00  0.00    +0.000 A 
ATOM     24  C   UNL     1      48.840   7.262  16.109  0.00  0.00    +0.000 A 
ATOM     25  S   UNL     1      49.209   6.925  17.740  0.00  0.00    +0.000 S 
ATOM     26  C   UNL     1      48.686   5.313  17.583  0.00  0.00    +0.000 A 
ATOM     27  N   UNL     1      48.761   4.448  18.629  0.00  0.00    +0.000 NA
ATOM     28  C   UNL     1      48.358   3.251  18.361  0.00  0.00    +0.000 A 
ATOM     29  N   UNL     1      47.879   2.843  17.142  0.00  0.00    +0.000 N 
ATOM     30  C   UNL     1      47.756   3.688  16.065  0.00  0.00    +0.000 A 
ATOM     31  O   UNL     1      47.278   3.304  15.007  0.00  0.00    +0.000 OA
ATOM     32  C   UNL     1      48.214   5.044  16.311  0.00  0.00    +0.000 A 
ATOM     33  H   UNL     1      47.565   1.895  17.000  0.00  0.00    +0.000 HD
ENDBRANCH  20  23
ENDBRANCH  18  19
ENDBRANCH   5  18
TORSDOF 7
ENDMDL
MODEL 3
REMARK VINA RESULT:    -8.267      1.888      2.353
REMARK INTER + INTRA:         -12.721
REMARK INTER:                 -11.484
REMARK INTRA:                  -1.237
REMARK UNBOUND:                -1.071
REMARK  Name = 
REMARK  8 active torsions:
REMARK  status: ('A' for Active; 'I' for Inactive)
REMARK    1  A    between atoms: C_1  and  C_2
REMARK    2  A    between atoms: C_2  and  N_3
REMARK    3  A    between atoms: C_2  and  C_25
REMARK    4  A    between atoms: N_3  and  C_4
REMARK    5  A    between atoms: C_4  and  C_5
REMARK    6  A    between atoms: C_9  and  C_10
REMARK    7  A    between atoms: C_10  and  N_11
REMARK    8  A    between atoms: C_12  and  C_14
REMARK                            x       y       z     vdW  Elec       q    Type
REMARK                         _______ _______ _______ _____ _____    ______ ____
ROOT
ATOM      1  C   UNL     1      45.369   5.059  11.280  0.00  0.00    +0.000 A 
ATOM      2  C   UNL     1      46.075   6.260  11.109  0.00  0.00    +0.000 A 
ATOM      3  C   UNL     1      47.024   6.664  12.046  0.00  0.00    +0.000 A 
ATOM      4  C   UNL     1      47.255   5.889  13.184  0.00  0.00    +0.000 A 
ATOM      5  C   UNL     1      46.533   4.708  13.399  0.00  0.00    +0.000 A 
ATOM      6  C   UNL     1      45.625   4.279  12.419  0.00  0.00    +0.000 A 
ENDROOT
BRANCH   1   7
ATOM      7  C   UNL     1      44.247   4.692  10.341  0.00  0.00    +0.000 C 
BRANCH   7   8
ATOM      8  N   UNL     1      44.719   4.222   9.040  0.00  0.00    +0.000 NA
ATOM      9  H   UNL     1      45.417   4.879   8.689  0.00  0.00    +0.000 HD
BRANCH   8  11
ATOM     10  C   UNL     1      44.306   1.765   9.314  0.00  0.00    +0.000 C 
ATOM     11  C   UNL     1      45.337   2.888   9.117  0.00  0.00    +0.000 C 
BRANCH  11  12
ATOM     12  C   UNL     1      46.156   2.615   7.862  0.00  0.00    +0.000 A 
ATOM     13  C   UNL     1      46.725   1.350   7.646  0.00  0.00    +0.000 A 
ATOM     14  C   UNL     1      47.428   1.076   6.470  0.00  0.00    +0.000 A 
ATOM     15  C   UNL     1      47.572   2.061   5.495  0.00  0.00    +0.000 A 
ATOM     16  C   UNL     1      47.027   3.327   5.702  0.00  0.00    +0.000 A 
ATOM     17  C   UNL     1      46.328   3.603   6.878  0.00  0.00    +0.000 A 
ENDBRANCH  11  12
ENDBRANCH   8  11
ENDBRANCH   7   8
ENDBRANCH   1   7
BRANCH   5  18
ATOM     18  C   UNL     1      46.692   3.933  14.681  0.00  0.00    +0.000 C 
BRANCH  18  19
ATOM     19  N   UNL     1      47.126   4.765  15.769  0.00  0.00    +0.000 N 
ATOM     20  C   UNL     1      47.093   4.305  17.061  0.00  0.00    +0.000 C 
ATOM     21  O   UNL     1      46.750   3.161  17.340  0.00  0.00    +0.000 OA
ATOM     22  H   UNL     1      47.151   5.766  15.597  0.00  0.00    +0.000 HD
BRANCH  20  23
ATOM     23  C   UNL     1      47.562   5.237  18.094  0.00  0.00    +0.000 A 
ATOM     24  C   UNL     1      46.734   5.562  19.160  0.00  0.00    +0.000 A 
ATOM     25  S   UNL     1      47.454   6.621  20.287  0.00  0.00    +0.000 S 
ATOM     26  C   UNL     1      48.879   6.725  19.360  0.00  0.00    +0.000 A 
ATOM     27  N   UNL     1      49.916   7.511  19.756  0.00  0.00    +0.000 NA
ATOM     28  C   UNL     1      50.919   7.517  18.945  0.00  0.00    +0.000 A 
ATOM     29  N   UNL     1      50.984   6.802  17.776  0.00  0.00    +0.000 N 
ATOM     30  C   UNL     1      49.975   5.971  17.351  0.00  0.00    +0.000 A 
ATOM     31  O   UNL     1      50.086   5.309  16.328  0.00  0.00    +0.000 OA
ATOM     32  C   UNL     1      48.814   5.942  18.222  0.00  0.00    +0.000 A 
ATOM     33  H   UNL     1      51.805   6.838  17.191  0.00  0.00    +0.000 HD
ENDBRANCH  20  23
ENDBRANCH  18  19
ENDBRANCH   5  18
TORSDOF 7
ENDMDL
MODEL 4
REMARK VINA RESULT:    -7.668      4.103      9.845
REMARK INTER + INTRA:         -11.877
REMARK INTER:                  -9.544
REMARK INTRA:                  -2.333
REMARK UNBOUND:                -1.071
REMARK  Name = 
REMARK  8 active torsions:
REMARK  status: ('A' for Active; 'I' for Inactive)
REMARK    1  A    between atoms: C_1  and  C_2
REMARK    2  A    between atoms: C_2  and  N_3
REMARK    3  A    between atoms: C_2  and  C_25
REMARK    4  A    between atoms: N_3  and  C_4
REMARK    5  A    between atoms: C_4  and  C_5
REMARK    6  A    between atoms: C_9  and  C_10
REMARK    7  A    between atoms: C_10  and  N_11
REMARK    8  A    between atoms: C_12  and  C_14
REMARK                            x       y       z     vdW  Elec       q    Type
REMARK                         _______ _______ _______ _____ _____    ______ ____
ROOT
ATOM      1  C   UNL     1      50.783   5.630  17.104  0.00  0.00    +0.000 A 
ATOM      2  C   UNL     1      51.616   4.630  17.628  0.00  0.00    +0.000 A 
ATOM      3  C   UNL     1      51.153   3.322  17.763  0.00  0.00    +0.000 A 
ATOM      4  C   UNL     1      49.841   3.005  17.407  0.00  0.00    +0.000 A 
ATOM      5  C   UNL     1      48.977   3.995  16.921  0.00  0.00    +0.000 A 
ATOM      6  C   UNL     1      49.472   5.295  16.731  0.00  0.00    +0.000 A 
ENDROOT
BRANCH   1   7
ATOM      7  C   UNL     1      51.235   7.070  17.087  0.00  0.00    +0.000 C 
BRANCH   7   8
ATOM      8  N   UNL     1      51.640   7.558  18.404  0.00  0.00    +0.000 NA
ATOM      9  H   UNL     1      52.338   8.293  18.279  0.00  0.00    +0.000 HD
BRANCH   8  11
ATOM     10  C   UNL     1      49.527   8.900  18.283  0.00  0.00    +0.000 C 
ATOM     11  C   UNL     1      50.511   8.117  19.166  0.00  0.00    +0.000 C 
BRANCH  11  12
ATOM     12  C   UNL     1      49.768   7.006  19.896  0.00  0.00    +0.000 A 
ATOM     13  C   UNL     1      48.374   6.886  19.778  0.00  0.00    +0.000 A 
ATOM     14  C   UNL     1      47.694   5.835  20.399  0.00  0.00    +0.000 A 
ATOM     15  C   UNL     1      48.397   4.891  21.145  0.00  0.00    +0.000 A 
ATOM     16  C   UNL     1      49.779   5.005  21.285  0.00  0.00    +0.000 A 
ATOM     17  C   UNL     1      50.459   6.057  20.669  0.00  0.00    +0.000 A 
ENDBRANCH  11  12
ENDBRANCH   8  11
ENDBRANCH   7   8
ENDBRANCH   1   7
BRANCH   5  18
ATOM     18  C   UNL     1      47.529   3.685  16.650  0.00  0.00    +0.000 C 
BRANCH  18  19
ATOM     19  N   UNL     1      46.941   4.607  15.717  0.00  0.00    +0.000 N 
ATOM     20  C   UNL     1      46.833   4.289  14.387  0.00  0.00    +0.000 C 
ATOM     21  O   UNL     1      47.175   3.197  13.946  0.00  0.00    +0.000 OA
ATOM     22  H   UNL     1      46.906   5.583  16.001  0.00  0.00    +0.000 HD
BRANCH  20  23
ATOM     23  C   UNL     1      46.215   5.304  13.525  0.00  0.00    +0.000 A 
ATOM     24  C   UNL     1      46.875   6.501  13.283  0.00  0.00    +0.000 A 
ATOM     25  S   UNL     1      46.034   7.542  12.225  0.00  0.00    +0.000 S 
ATOM     26  C   UNL     1      44.733   6.451  12.097  0.00  0.00    +0.000 A 
ATOM     27  N   UNL     1      43.640   6.751  11.346  0.00  0.00    +0.000 NA
ATOM     28  C   UNL     1      42.719   5.847  11.362  0.00  0.00    +0.000 A 
ATOM     29  N   UNL     1      42.794   4.666  12.056  0.00  0.00    +0.000 N 
ATOM     30  C   UNL     1      43.891   4.306  12.803  0.00  0.00    +0.000 A 
ATOM     31  O   UNL     1      43.947   3.223  13.369  0.00  0.00    +0.000 OA
ATOM     32  C   UNL     1      44.950   5.299  12.831  0.00  0.00    +0.000 A 
ATOM     33  H   UNL     1      42.045   3.992  12.016  0.00  0.00    +0.000 HD
ENDBRANCH  20  23
ENDBRANCH  18  19
ENDBRANCH   5  18
TORSDOF 7
ENDMDL
MODEL 5
REMARK VINA RESULT:    -7.667      2.302      3.550
REMARK INTER + INTRA:         -11.874
REMARK INTER:                 -10.300
REMARK INTRA:                  -1.574
REMARK UNBOUND:                -1.071
REMARK  Name = 
REMARK  8 active torsions:
REMARK  status: ('A' for Active; 'I' for Inactive)
REMARK    1  A    between atoms: C_1  and  C_2
REMARK    2  A    between atoms: C_2  and  N_3
REMARK    3  A    between atoms: C_2  and  C_25
REMARK    4  A    between atoms: N_3  and  C_4
REMARK    5  A    between atoms: C_4  and  C_5
REMARK    6  A    between atoms: C_9  and  C_10
REMARK    7  A    between atoms: C_10  and  N_11
REMARK    8  A    between atoms: C_12  and  C_14
REMARK                            x       y       z     vdW  Elec       q    Type
REMARK                         _______ _______ _______ _____ _____    ______ ____
ROOT
ATOM      1  C   UNL     1      45.761   7.349  12.554  0.00  0.00    +0.000 A 
ATOM      2  C   UNL     1      45.408   8.643  12.140  0.00  0.00    +0.000 A 
ATOM      3  C   UNL     1      46.381   9.630  11.998  0.00  0.00    +0.000 A 
ATOM      4  C   UNL     1      47.714   9.348  12.300  0.00  0.00    +0.000 A 
ATOM      5  C   UNL     1      48.085   8.076  12.756  0.00  0.00    +0.000 A 
ATOM      6  C   UNL     1      47.108   7.071  12.836  0.00  0.00    +0.000 A 
ENDROOT
BRANCH   1   7
ATOM      7  C   UNL     1      44.695   6.321  12.841  0.00  0.00    +0.000 C 
BRANCH   7   8
ATOM      8  N   UNL     1      45.098   4.963  12.485  0.00  0.00    +0.000 NA
ATOM      9  H   UNL     1      45.204   4.418  13.342  0.00  0.00    +0.000 HD
BRANCH   8  11
ATOM     10  C   UNL     1      42.880   5.167  11.338  0.00  0.00    +0.000 C 
ATOM     11  C   UNL     1      44.108   4.290  11.628  0.00  0.00    +0.000 C 
BRANCH  11  12
ATOM     12  C   UNL     1      44.751   3.862  10.316  0.00  0.00    +0.000 A 
ATOM     13  C   UNL     1      44.734   2.515   9.922  0.00  0.00    +0.000 A 
ATOM     14  C   UNL     1      45.272   2.125   8.693  0.00  0.00    +0.000 A 
ATOM     15  C   UNL     1      45.833   3.075   7.842  0.00  0.00    +0.000 A 
ATOM     16  C   UNL     1      45.873   4.414   8.226  0.00  0.00    +0.000 A 
ATOM     17  C   UNL     1      45.340   4.804   9.455  0.00  0.00    +0.000 A 
ENDBRANCH  11  12
ENDBRANCH   8  11
ENDBRANCH   7   8
ENDBRANCH   1   7
BRANCH   5  18
ATOM     18  C   UNL     1      49.498   7.800  13.197  0.00  0.00    +0.000 C 
BRANCH  18  19
ATOM     19  N   UNL     1      49.553   6.887  14.306  0.00  0.00    +0.000 N 
ATOM     20  C   UNL     1      49.379   7.332  15.592  0.00  0.00    +0.000 C 
ATOM     21  O   UNL     1      49.117   8.502  15.850  0.00  0.00    +0.000 OA
ATOM     22  H   UNL     1      50.023   6.001  14.145  0.00  0.00    +0.000 HD
BRANCH  20  23
ATOM     23  C   UNL     1      49.452   6.314  16.647  0.00  0.00    +0.000 A 
ATOM     24  C   UNL     1      50.397   6.430  17.657  0.00  0.00    +0.000 A 
ATOM     25  S   UNL     1      50.310   5.186  18.821  0.00  0.00    +0.000 S 
ATOM     26  C   UNL     1      49.041   4.419  17.985  0.00  0.00    +0.000 A 
ATOM     27  N   UNL     1      48.506   3.255  18.441  0.00  0.00    +0.000 NA
ATOM     28  C   UNL     1      47.571   2.770  17.695  0.00  0.00    +0.000 A 
ATOM     29  N   UNL     1      47.117   3.347  16.536  0.00  0.00    +0.000 N 
ATOM     30  C   UNL     1      47.605   4.538  16.053  0.00  0.00    +0.000 A 
ATOM     31  O   UNL     1      47.144   5.051  15.043  0.00  0.00    +0.000 OA
ATOM     32  C   UNL     1      48.673   5.116  16.849  0.00  0.00    +0.000 A 
ATOM     33  H   UNL     1      46.372   2.925  16.004  0.00  0.00    +0.000 HD
ENDBRANCH  20  23
ENDBRANCH  18  19
ENDBRANCH   5  18
TORSDOF 7
ENDMDL
MODEL 6
REMARK VINA RESULT:    -7.579      3.749     10.003
REMARK INTER + INTRA:         -11.750
REMARK INTER:                  -9.389
REMARK INTRA:                  -2.361
REMARK UNBOUND:                -1.071
REMARK  Name = 
REMARK  8 active torsions:
REMARK  status: ('A' for Active; 'I' for Inactive)
REMARK    1  A    between atoms: C_1  and  C_2
REMARK    2  A    between atoms: C_2  and  N_3
REMARK    3  A    between atoms: C_2  and  C_25
REMARK    4  A    between atoms: N_3  and  C_4
REMARK    5  A    between atoms: C_4  and  C_5
REMARK    6  A    between atoms: C_9  and  C_10
REMARK    7  A    between atoms: C_10  and  N_11
REMARK    8  A    between atoms: C_12  and  C_14
REMARK                            x       y       z     vdW  Elec       q    Type
REMARK                         _______ _______ _______ _____ _____    ______ ____
ROOT
ATOM      1  C   UNL     1      50.253   4.324  18.373  0.00  0.00    +0.000 A 
ATOM      2  C   UNL     1      49.168   3.464  18.602  0.00  0.00    +0.000 A 
ATOM      3  C   UNL     1      48.012   3.562  17.830  0.00  0.00    +0.000 A 
ATOM      4  C   UNL     1      47.912   4.543  16.842  0.00  0.00    +0.000 A 
ATOM      5  C   UNL     1      48.964   5.440  16.623  0.00  0.00    +0.000 A 
ATOM      6  C   UNL     1      50.148   5.293  17.363  0.00  0.00    +0.000 A 
ENDROOT
BRANCH   1   7
ATOM      7  C   UNL     1      51.447   4.311  19.295  0.00  0.00    +0.000 C 
BRANCH   7   8
ATOM      8  N   UNL     1      51.092   4.549  20.693  0.00  0.00    +0.000 NA
ATOM      9  H   UNL     1      51.754   4.047  21.287  0.00  0.00    +0.000 HD
BRANCH   8  11
ATOM     10  C   UNL     1      52.357   6.698  20.447  0.00  0.00    +0.000 C 
ATOM     11  C   UNL     1      51.141   5.977  21.049  0.00  0.00    +0.000 C 
BRANCH  11  12
ATOM     12  C   UNL     1      49.862   6.673  20.604  0.00  0.00    +0.000 A 
ATOM     13  C   UNL     1      49.921   7.821  19.798  0.00  0.00    +0.000 A 
ATOM     14  C   UNL     1      48.751   8.431  19.340  0.00  0.00    +0.000 A 
ATOM     15  C   UNL     1      47.507   7.903  19.680  0.00  0.00    +0.000 A 
ATOM     16  C   UNL     1      47.431   6.774  20.493  0.00  0.00    +0.000 A 
ATOM     17  C   UNL     1      48.599   6.167  20.956  0.00  0.00    +0.000 A 
ENDBRANCH  11  12
ENDBRANCH   8  11
ENDBRANCH   7   8
ENDBRANCH   1   7
BRANCH   5  18
ATOM     18  C   UNL     1      48.816   6.574  15.643  0.00  0.00    +0.000 C 
BRANCH  18  19
ATOM     19  N   UNL     1      47.649   6.428  14.816  0.00  0.00    +0.000 N 
ATOM     20  C   UNL     1      47.766   6.248  13.461  0.00  0.00    +0.000 C 
ATOM     21  O   UNL     1      48.856   6.149  12.906  0.00  0.00    +0.000 OA
ATOM     22  H   UNL     1      46.772   6.769  15.199  0.00  0.00    +0.000 HD
BRANCH  20  23
ATOM     23  C   UNL     1      46.511   6.108  12.713  0.00  0.00    +0.000 A 
ATOM     24  C   UNL     1      45.927   7.223  12.126  0.00  0.00    +0.000 A 
ATOM     25  S   UNL     1      44.500   6.870  11.261  0.00  0.00    +0.000 S 
ATOM     26  C   UNL     1      44.583   5.224  11.687  0.00  0.00    +0.000 A 
ATOM     27  N   UNL     1      43.625   4.347  11.284  0.00  0.00    +0.000 NA
ATOM     28  C   UNL     1      43.798   3.139  11.703  0.00  0.00    +0.000 A 
ATOM     29  N   UNL     1      44.848   2.725  12.483  0.00  0.00    +0.000 N 
ATOM     30  C   UNL     1      45.857   3.567  12.888  0.00  0.00    +0.000 A 
ATOM     31  O   UNL     1      46.804   3.155  13.541  0.00  0.00    +0.000 OA
ATOM     32  C   UNL     1      45.698   4.945  12.456  0.00  0.00    +0.000 A 
ATOM     33  H   UNL     1      44.935   1.761  12.765  0.00  0.00    +0.000 HD
ENDBRANCH  20  23
ENDBRANCH  18  19
ENDBRANCH   5  18
TORSDOF 7
ENDMDL
MODEL 7
REMARK VINA RESULT:    -7.492      3.612      8.830
REMARK INTER + INTRA:         -11.628
REMARK INTER:                 -10.214
REMARK INTRA:                  -1.415
REMARK UNBOUND:                -1.071
REMARK  Name = 
REMARK  8 active torsions:
REMARK  status: ('A' for Active; 'I' for Inactive)
REMARK    1  A    between atoms: C_1  and  C_2
REMARK    2  A    between atoms: C_2  and  N_3
REMARK    3  A    between atoms: C_2  and  C_25
REMARK    4  A    between atoms: N_3  and  C_4
REMARK    5  A    between atoms: C_4  and  C_5
REMARK    6  A    between atoms: C_9  and  C_10
REMARK    7  A    between atoms: C_10  and  N_11
REMARK    8  A    between atoms: C_12  and  C_14
REMARK                            x       y       z     vdW  Elec       q    Type
REMARK                         _______ _______ _______ _____ _____    ______ ____
ROOT
ATOM      1  C   UNL     1      48.877   6.423  15.484  0.00  0.00    +0.000 A 
ATOM      2  C   UNL     1      50.176   6.847  15.803  0.00  0.00    +0.000 A 
ATOM      3  C   UNL     1      50.869   7.705  14.951  0.00  0.00    +0.000 A 
ATOM      4  C   UNL     1      50.286   8.123  13.753  0.00  0.00    +0.000 A 
ATOM      5  C   UNL     1      49.008   7.679  13.393  0.00  0.00    +0.000 A 
ATOM      6  C   UNL     1      48.294   6.865  14.287  0.00  0.00    +0.000 A 
ENDROOT
BRANCH   1   7
ATOM      7  C   UNL     1      48.182   5.388  16.334  0.00  0.00    +0.000 C 
BRANCH   7   8
ATOM      8  N   UNL     1      48.966   4.981  17.498  0.00  0.00    +0.000 NA
ATOM      9  H   UNL     1      48.554   5.402  18.332  0.00  0.00    +0.000 HD
BRANCH   8  11
ATOM     10  C   UNL     1      48.192   2.776  16.595  0.00  0.00    +0.000 C 
ATOM     11  C   UNL     1      48.988   3.520  17.678  0.00  0.00    +0.000 C 
BRANCH  11  12
ATOM     12  C   UNL     1      50.424   3.014  17.694  0.00  0.00    +0.000 A 
ATOM     13  C   UNL     1      51.466   3.844  18.136  0.00  0.00    +0.000 A 
ATOM     14  C   UNL     1      52.777   3.367  18.207  0.00  0.00    +0.000 A 
ATOM     15  C   UNL     1      53.065   2.054  17.838  0.00  0.00    +0.000 A 
ATOM     16  C   UNL     1      52.044   1.222  17.381  0.00  0.00    +0.000 A 
ATOM     17  C   UNL     1      50.735   1.699  17.305  0.00  0.00    +0.000 A 
ENDBRANCH  11  12
ENDBRANCH   8  11
ENDBRANCH   7   8
ENDBRANCH   1   7
BRANCH   5  18
ATOM     18  C   UNL     1      48.423   8.028  12.050  0.00  0.00    +0.000 C 
BRANCH  18  19
ATOM     19  N   UNL     1      47.703   6.929  11.468  0.00  0.00    +0.000 N 
ATOM     20  C   UNL     1      46.333   6.945  11.398  0.00  0.00    +0.000 C 
ATOM     21  O   UNL     1      45.670   7.906  11.773  0.00  0.00    +0.000 OA
ATOM     22  H   UNL     1      48.195   6.042  11.407  0.00  0.00    +0.000 HD
BRANCH  20  23
ATOM     23  C   UNL     1      45.701   5.772  10.783  0.00  0.00    +0.000 A 
ATOM     24  C   UNL     1      45.845   5.542   9.421  0.00  0.00    +0.000 A 
ATOM     25  S   UNL     1      45.084   4.113   8.885  0.00  0.00    +0.000 S 
ATOM     26  C   UNL     1      44.490   3.779  10.445  0.00  0.00    +0.000 A 
ATOM     27  N   UNL     1      43.715   2.686  10.680  0.00  0.00    +0.000 NA
ATOM     28  C   UNL     1      43.311   2.573  11.900  0.00  0.00    +0.000 A 
ATOM     29  N   UNL     1      43.617   3.449  12.910  0.00  0.00    +0.000 N 
ATOM     30  C   UNL     1      44.421   4.549  12.727  0.00  0.00    +0.000 A 
ATOM     31  O   UNL     1      44.714   5.283  13.661  0.00  0.00    +0.000 OA
ATOM     32  C   UNL     1      44.888   4.732  11.365  0.00  0.00    +0.000 A 
ATOM     33  H   UNL     1      43.281   3.296  13.848  0.00  0.00    +0.000 HD
ENDBRANCH  20  23
ENDBRANCH  18  19
ENDBRANCH   5  18
TORSDOF 7
ENDMDL
MODEL 8
REMARK VINA RESULT:    -7.331      4.816      6.289
REMARK INTER + INTRA:         -11.401
REMARK INTER:                 -10.145
REMARK INTRA:                  -1.256
REMARK UNBOUND:                -1.071
REMARK  Name = 
REMARK  8 active torsions:
REMARK  status: ('A' for Active; 'I' for Inactive)
REMARK    1  A    between atoms: C_1  and  C_2
REMARK    2  A    between atoms: C_2  and  N_3
REMARK    3  A    between atoms: C_2  and  C_25
REMARK    4  A    between atoms: N_3  and  C_4
REMARK    5  A    between atoms: C_4  and  C_5
REMARK    6  A    between atoms: C_9  and  C_10
REMARK    7  A    between atoms: C_10  and  N_11
REMARK    8  A    between atoms: C_12  and  C_14
REMARK                            x       y       z     vdW  Elec       q    Type
REMARK                         _______ _______ _______ _____ _____    ______ ____
ROOT
ATOM      1  C   UNL     1      45.631   3.669   8.403  0.00  0.00    +0.000 A 
ATOM      2  C   UNL     1      45.108   2.404   8.713  0.00  0.00    +0.000 A 
ATOM      3  C   UNL     1      44.269   2.236   9.813  0.00  0.00    +0.000 A 
ATOM      4  C   UNL     1      43.969   3.322  10.637  0.00  0.00    +0.000 A 
ATOM      5  C   UNL     1      44.513   4.586  10.372  0.00  0.00    +0.000 A 
ATOM      6  C   UNL     1      45.307   4.758   9.227  0.00  0.00    +0.000 A 
ENDROOT
BRANCH   1   7
ATOM      7  C   UNL     1      46.647   3.825   7.299  0.00  0.00    +0.000 C 
BRANCH   7   8
ATOM      8  N   UNL     1      46.300   3.077   6.092  0.00  0.00    +0.000 NA
ATOM      9  H   UNL     1      46.100   3.742   5.343  0.00  0.00    +0.000 HD
BRANCH   8  11
ATOM     10  C   UNL     1      48.052   1.435   6.808  0.00  0.00    +0.000 C 
ATOM     11  C   UNL     1      47.390   2.193   5.647  0.00  0.00    +0.000 C 
BRANCH  11  12
ATOM     12  C   UNL     1      46.872   1.198   4.617  0.00  0.00    +0.000 A 
ATOM     13  C   UNL     1      46.120   1.640   3.517  0.00  0.00    +0.000 A 
ATOM     14  C   UNL     1      45.691   0.739   2.539  0.00  0.00    +0.000 A 
ATOM     15  C   UNL     1      46.007  -0.614   2.647  0.00  0.00    +0.000 A 
ATOM     16  C   UNL     1      46.738  -1.071   3.741  0.00  0.00    +0.000 A 
ATOM     17  C   UNL     1      47.164  -0.173   4.721  0.00  0.00    +0.000 A 
ENDBRANCH  11  12
ENDBRANCH   8  11
ENDBRANCH   7   8
ENDBRANCH   1   7
BRANCH   5  18
ATOM     18  C   UNL     1      44.291   5.733  11.323  0.00  0.00    +0.000 C 
BRANCH  18  19
ATOM     19  N   UNL     1      45.386   6.663  11.317  0.00  0.00    +0.000 N 
ATOM     20  C   UNL     1      46.409   6.550  12.224  0.00  0.00    +0.000 C 
ATOM     21  O   UNL     1      46.467   5.631  13.034  0.00  0.00    +0.000 OA
ATOM     22  H   UNL     1      45.225   7.554  10.855  0.00  0.00    +0.000 HD
BRANCH  20  23
ATOM     23  C   UNL     1      47.477   7.553  12.126  0.00  0.00    +0.000 A 
ATOM     24  C   UNL     1      48.799   7.146  12.008  0.00  0.00    +0.000 A 
ATOM     25  S   UNL     1      49.901   8.441  11.861  0.00  0.00    +0.000 S 
ATOM     26  C   UNL     1      48.653   9.591  12.003  0.00  0.00    +0.000 A 
ATOM     27  N   UNL     1      48.924  10.923  11.986  0.00  0.00    +0.000 NA
ATOM     28  C   UNL     1      47.888  11.679  12.132  0.00  0.00    +0.000 A 
ATOM     29  N   UNL     1      46.604  11.223  12.288  0.00  0.00    +0.000 N 
ATOM     30  C   UNL     1      46.278   9.888  12.280  0.00  0.00    +0.000 A 
ATOM     31  O   UNL     1      45.116   9.517  12.371  0.00  0.00    +0.000 OA
ATOM     32  C   UNL     1      47.413   8.994  12.136  0.00  0.00    +0.000 A 
ATOM     33  H   UNL     1      45.834  11.867  12.382  0.00  0.00    +0.000 HD
ENDBRANCH  20  23
ENDBRANCH  18  19
ENDBRANCH   5  18
TORSDOF 7
ENDMDL
MODEL 9
REMARK VINA RESULT:    -7.283      4.003      9.376
REMARK INTER + INTRA:         -11.333
REMARK INTER:                  -9.604
REMARK INTRA:                  -1.730
REMARK UNBOUND:                -1.071
REMARK  Name = 
REMARK  8 active torsions:
REMARK  status: ('A' for Active; 'I' for Inactive)
REMARK    1  A    between atoms: C_1  and  C_2
REMARK    2  A    between atoms: C_2  and  N_3
REMARK    3  A    between atoms: C_2  and  C_25
REMARK    4  A    between atoms: N_3  and  C_4
REMARK    5  A    between atoms: C_4  and  C_5
REMARK    6  A    between atoms: C_9  and  C_10
REMARK    7  A    between atoms: C_10  and  N_11
REMARK    8  A    between atoms: C_12  and  C_14
REMARK                            x       y       z     vdW  Elec       q    Type
REMARK                         _______ _______ _______ _____ _____    ______ ____
ROOT
ATOM      1  C   UNL     1      50.862   4.094  18.102  0.00  0.00    +0.000 A 
ATOM      2  C   UNL     1      51.503   2.899  17.742  0.00  0.00    +0.000 A 
ATOM      3  C   UNL     1      50.806   1.896  17.071  0.00  0.00    +0.000 A 
ATOM      4  C   UNL     1      49.450   2.061  16.781  0.00  0.00    +0.000 A 
ATOM      5  C   UNL     1      48.777   3.227  17.168  0.00  0.00    +0.000 A 
ATOM      6  C   UNL     1      49.504   4.256  17.788  0.00  0.00    +0.000 A 
ENDROOT
BRANCH   1   7
ATOM      7  C   UNL     1      51.576   5.118  18.949  0.00  0.00    +0.000 C 
BRANCH   7   8
ATOM      8  N   UNL     1      50.679   6.135  19.496  0.00  0.00    +0.000 NA
ATOM      9  H   UNL     1      50.716   6.087  20.515  0.00  0.00    +0.000 HD
BRANCH   8  11
ATOM     10  C   UNL     1      52.411   7.545  18.359  0.00  0.00    +0.000 C 
ATOM     11  C   UNL     1      51.055   7.497  19.082  0.00  0.00    +0.000 C 
BRANCH  11  12
ATOM     12  C   UNL     1      49.977   8.090  18.185  0.00  0.00    +0.000 A 
ATOM     13  C   UNL     1      48.859   8.729  18.744  0.00  0.00    +0.000 A 
ATOM     14  C   UNL     1      47.896   9.325  17.927  0.00  0.00    +0.000 A 
ATOM     15  C   UNL     1      48.036   9.291  16.541  0.00  0.00    +0.000 A 
ATOM     16  C   UNL     1      49.131   8.646  15.969  0.00  0.00    +0.000 A 
ATOM     17  C   UNL     1      50.092   8.046  16.785  0.00  0.00    +0.000 A 
ENDBRANCH  11  12
ENDBRANCH   8  11
ENDBRANCH   7   8
ENDBRANCH   1   7
BRANCH   5  18
ATOM     18  C   UNL     1      47.291   3.359  16.966  0.00  0.00    +0.000 C 
BRANCH  18  19
ATOM     19  N   UNL     1      46.962   4.381  16.010  0.00  0.00    +0.000 N 
ATOM     20  C   UNL     1      47.021   4.128  14.663  0.00  0.00    +0.000 C 
ATOM     21  O   UNL     1      47.299   3.020  14.217  0.00  0.00    +0.000 OA
ATOM     22  H   UNL     1      46.996   5.342  16.339  0.00  0.00    +0.000 HD
BRANCH  20  23
ATOM     23  C   UNL     1      46.661   5.242  13.778  0.00  0.00    +0.000 A 
ATOM     24  C   UNL     1      47.543   6.301  13.605  0.00  0.00    +0.000 A 
ATOM     25  S   UNL     1      46.984   7.483  12.508  0.00  0.00    +0.000 S 
ATOM     26  C   UNL     1      45.521   6.646  12.268  0.00  0.00    +0.000 A 
ATOM     27  N   UNL     1      44.558   7.143  11.446  0.00  0.00    +0.000 NA
ATOM     28  C   UNL     1      43.490   6.421  11.380  0.00  0.00    +0.000 A 
ATOM     29  N   UNL     1      43.300   5.242  12.056  0.00  0.00    +0.000 N 
ATOM     30  C   UNL     1      44.256   4.686  12.872  0.00  0.00    +0.000 A 
ATOM     31  O   UNL     1      44.073   3.609  13.421  0.00  0.00    +0.000 OA
ATOM     32  C   UNL     1      45.472   5.471  12.994  0.00  0.00    +0.000 A 
ATOM     33  H   UNL     1      42.447   4.716  11.950  0.00  0.00    +0.000 HD
ENDBRANCH  20  23
ENDBRANCH  18  19
ENDBRANCH   5  18
TORSDOF 7
ENDMDL
