MODEL 1
REMARK VINA RESULT:    -8.478      0.000      0.000
REMARK INTER + INTRA:         -12.602
REMARK INTER:                 -11.451
REMARK INTRA:                  -1.151
REMARK UNBOUND:                -1.151
REMARK  Name = 
REMARK  7 active torsions:
REMARK  status: ('A' for Active; 'I' for Inactive)
REMARK    1  A    between atoms: C_1  and  C_2
REMARK    2  A    between atoms: C_2  and  N_3
REMARK    3  A    between atoms: C_2  and  C_11
REMARK    4  A    between atoms: N_3  and  C_4
REMARK    5  A    between atoms: C_14  and  C_15
REMARK    6  A    between atoms: C_15  and  N_16
REMARK    7  A    between atoms: C_17  and  C_19
REMARK                            x       y       z     vdW  Elec       q    Type
REMARK                         _______ _______ _______ _____ _____    ______ ____
ROOT
ATOM      1  C   UNL     1      45.314   4.295  11.692  0.00  0.00    +0.000 A 
ATOM      2  C   UNL     1      45.519   5.527  11.045  0.00  0.00    +0.000 A 
ATOM      3  C   UNL     1      46.303   6.534  11.622  0.00  0.00    +0.000 A 
ATOM      4  C   UNL     1      46.910   6.339  12.867  0.00  0.00    +0.000 A 
ATOM      5  C   UNL     1      46.667   5.134  13.542  0.00  0.00    +0.000 A 
ATOM      6  C   UNL     1      45.896   4.117  12.956  0.00  0.00    +0.000 A 
ENDROOT
BRANCH   1   8
ATOM      7  C   UNL     1      43.188   2.983  11.622  0.00  0.00    +0.000 C 
ATOM      8  C   UNL     1      44.548   3.197  10.945  0.00  0.00    +0.000 C 
BRANCH   8   9
ATOM      9  N   UNL     1      44.376   3.509   9.515  0.00  0.00    +0.000 N 
ATOM     10  H   UNL     1      44.243   4.506   9.365  0.00  0.00    +0.000 HD
BRANCH   9  11
ATOM     11  C   UNL     1      45.305   3.004   8.585  0.00  0.00    +0.000 A 
ATOM     12  C   UNL     1      46.043   3.809   7.706  0.00  0.00    +0.000 A 
ATOM     13  C   UNL     1      46.967   3.266   6.807  0.00  0.00    +0.000 A 
ATOM     14  C   UNL     1      47.200   1.897   6.794  0.00  0.00    +0.000 A 
ATOM     15  C   UNL     1      46.531   1.088   7.706  0.00  0.00    +0.000 A 
ATOM     16 CL   UNL     1      46.842  -0.607   7.719  0.00  0.00    +0.000 Cl
ATOM     17  C   UNL     1      45.609   1.635   8.605  0.00  0.00    +0.000 A 
ENDBRANCH   9  11
ENDBRANCH   8   9
ENDBRANCH   1   8
BRANCH   4  18
ATOM     18  C   UNL     1      47.809   7.395  13.462  0.00  0.00    +0.000 C 
BRANCH  18  19
ATOM     19  N   UNL     1      47.826   7.341  14.901  0.00  0.00    +0.000 N 
ATOM     20  C   UNL     1      48.963   6.993  15.589  0.00  0.00    +0.000 C 
ATOM     21  O   UNL     1      50.025   6.758  15.019  0.00  0.00    +0.000 OA
ATOM     22  H   UNL     1      46.928   7.303  15.371  0.00  0.00    +0.000 HD
BRANCH  20  23
ATOM     23  C   UNL     1      48.861   6.977  17.055  0.00  0.00    +0.000 A 
ATOM     24  C   UNL     1      48.790   8.175  17.755  0.00  0.00    +0.000 A 
ATOM     25  S   UNL     1      48.635   7.972  19.441  0.00  0.00    +0.000 S 
ATOM     26  C   UNL     1      48.711   6.279  19.302  0.00  0.00    +0.000 A 
ATOM     27  N   UNL     1      48.659   5.482  20.404  0.00  0.00    +0.000 NA
ATOM     28  C   UNL     1      48.754   4.220  20.155  0.00  0.00    +0.000 A 
ATOM     29  N   UNL     1      48.878   3.679  18.902  0.00  0.00    +0.000 N 
ATOM     30  C   UNL     1      48.903   4.441  17.757  0.00  0.00    +0.000 A 
ATOM     31  O   UNL     1      48.973   3.917  16.648  0.00  0.00    +0.000 OA
ATOM     32  C   UNL     1      48.825   5.869  17.983  0.00  0.00    +0.000 A 
ATOM     33  H   UNL     1      48.931   2.680  18.777  0.00  0.00    +0.000 HD
ENDBRANCH  20  23
ENDBRANCH  18  19
ENDBRANCH   4  18
TORSDOF 6
ENDMDL
MODEL 2
REMARK VINA RESULT:    -8.282      1.305      1.820
REMARK INTER + INTRA:         -12.339
REMARK INTER:                 -11.200
REMARK INTRA:                  -1.139
REMARK UNBOUND:                -1.151
REMARK  Name = 
REMARK  7 active torsions:
REMARK  status: ('A' for Active; 'I' for Inactive)
REMARK    1  A    between atoms: C_1  and  C_2
REMARK    2  A    between atoms: C_2  and  N_3
REMARK    3  A    between atoms: C_2  and  C_11
REMARK    4  A    between atoms: N_3  and  C_4
REMARK    5  A    between atoms: C_14  and  C_15
REMARK    6  A    between atoms: C_15  and  N_16
REMARK    7  A    between atoms: C_17  and  C_19
REMARK                            x       y       z     vdW  Elec       q    Type
REMARK                         _______ _______ _______ _____ _____    ______ ____
ROOT
ATOM      1  C   UNL     1      45.093   5.238  11.724  0.00  0.00    +0.000 A 
ATOM      2  C   UNL     1      45.565   4.628  12.901  0.00  0.00    +0.000 A 
ATOM      3  C   UNL     1      46.694   5.115  13.574  0.00  0.00    +0.000 A 
ATOM      4  C   UNL     1      47.386   6.229  13.090  0.00  0.00    +0.000 A 
ATOM      5  C   UNL     1      46.954   6.809  11.888  0.00  0.00    +0.000 A 
ATOM      6  C   UNL     1      45.812   6.333  11.223  0.00  0.00    +0.000 A 
ENDROOT
BRANCH   1   8
ATOM      7  C   UNL     1      42.630   5.630  11.572  0.00  0.00    +0.000 C 
ATOM      8  C   UNL     1      43.783   4.728  11.114  0.00  0.00    +0.000 C 
BRANCH   8   9
ATOM      9  N   UNL     1      43.840   4.660   9.642  0.00  0.00    +0.000 N 
ATOM     10  H   UNL     1      44.043   5.570   9.235  0.00  0.00    +0.000 HD
BRANCH   9  11
ATOM     11  C   UNL     1      44.637   3.673   9.030  0.00  0.00    +0.000 A 
ATOM     12  C   UNL     1      44.663   2.332   9.435  0.00  0.00    +0.000 A 
ATOM     13  C   UNL     1      45.460   1.381   8.787  0.00  0.00    +0.000 A 
ATOM     14  C   UNL     1      46.226   1.750   7.690  0.00  0.00    +0.000 A 
ATOM     15  C   UNL     1      46.160   3.059   7.227  0.00  0.00    +0.000 A 
ATOM     16 CL   UNL     1      47.081   3.514   5.844  0.00  0.00    +0.000 Cl
ATOM     17  C   UNL     1      45.361   4.007   7.875  0.00  0.00    +0.000 A 
ENDBRANCH   9  11
ENDBRANCH   8   9
ENDBRANCH   1   8
BRANCH   4  18
ATOM     18  C   UNL     1      48.563   6.796  13.846  0.00  0.00    +0.000 C 
BRANCH  18  19
ATOM     19  N   UNL     1      48.279   6.948  15.250  0.00  0.00    +0.000 N 
ATOM     20  C   UNL     1      49.208   6.619  16.206  0.00  0.00    +0.000 C 
ATOM     21  O   UNL     1      50.335   6.226  15.914  0.00  0.00    +0.000 OA
ATOM     22  H   UNL     1      47.305   7.045  15.516  0.00  0.00    +0.000 HD
BRANCH  20  23
ATOM     23  C   UNL     1      48.808   6.820  17.605  0.00  0.00    +0.000 A 
ATOM     24  C   UNL     1      48.405   8.079  18.033  0.00  0.00    +0.000 A 
ATOM     25  S   UNL     1      47.936   8.126  19.672  0.00  0.00    +0.000 S 
ATOM     26  C   UNL     1      48.305   6.479  19.884  0.00  0.00    +0.000 A 
ATOM     27  N   UNL     1      48.152   5.877  21.094  0.00  0.00    +0.000 NA
ATOM     28  C   UNL     1      48.494   4.633  21.118  0.00  0.00    +0.000 A 
ATOM     29  N   UNL     1      48.960   3.931  20.037  0.00  0.00    +0.000 N 
ATOM     30  C   UNL     1      49.102   4.488  18.788  0.00  0.00    +0.000 A 
ATOM     31  O   UNL     1      49.483   3.815  17.834  0.00  0.00    +0.000 OA
ATOM     32  C   UNL     1      48.755   5.892  18.711  0.00  0.00    +0.000 A 
ATOM     33  H   UNL     1      49.195   2.954  20.122  0.00  0.00    +0.000 HD
ENDBRANCH  20  23
ENDBRANCH  18  19
ENDBRANCH   4  18
TORSDOF 6
ENDMDL
MODEL 3
REMARK VINA RESULT:    -8.177      1.555      2.336
REMARK INTER + INTRA:         -12.196
REMARK INTER:                 -10.858
REMARK INTRA:                  -1.338
REMARK UNBOUND:                -1.151
REMARK  Name = 
REMARK  7 active torsions:
REMARK  status: ('A' for Active; 'I' for Inactive)
REMARK    1  A    between atoms: C_1  and  C_2
REMARK    2  A    between atoms: C_2  and  N_3
REMARK    3  A    between atoms: C_2  and  C_11
REMARK    4  A    between atoms: N_3  and  C_4
REMARK    5  A    between atoms: C_14  and  C_15
REMARK    6  A    between atoms: C_15  and  N_16
REMARK    7  A    between atoms: C_17  and  C_19
REMARK                            x       y       z     vdW  Elec       q    Type
REMARK                         _______ _______ _______ _____ _____    ______ ____
ROOT
ATOM      1  C   UNL     1      45.550   4.209  12.150  0.00  0.00    +0.000 A 
ATOM      2  C   UNL     1      46.295   3.721  13.239  0.00  0.00    +0.000 A 
ATOM      3  C   UNL     1      47.173   4.546  13.953  0.00  0.00    +0.000 A 
ATOM      4  C   UNL     1      47.333   5.890  13.599  0.00  0.00    +0.000 A 
ATOM      5  C   UNL     1      46.635   6.371  12.482  0.00  0.00    +0.000 A 
ATOM      6  C   UNL     1      45.741   5.548  11.777  0.00  0.00    +0.000 A 
ENDROOT
BRANCH   1   8
ATOM      7  C   UNL     1      43.248   3.260  12.356  0.00  0.00    +0.000 C 
ATOM      8  C   UNL     1      44.519   3.282  11.497  0.00  0.00    +0.000 C 
BRANCH   8   9
ATOM      9  N   UNL     1      44.207   3.678  10.112  0.00  0.00    +0.000 N 
ATOM     10  H   UNL     1      43.981   4.669  10.050  0.00  0.00    +0.000 HD
BRANCH   9  11
ATOM     11  C   UNL     1      45.096   3.325   9.079  0.00  0.00    +0.000 A 
ATOM     12  C   UNL     1      45.749   4.256   8.261  0.00  0.00    +0.000 A 
ATOM     13  C   UNL     1      46.637   3.860   7.254  0.00  0.00    +0.000 A 
ATOM     14  C   UNL     1      46.918   2.513   7.068  0.00  0.00    +0.000 A 
ATOM     15  C   UNL     1      46.336   1.577   7.915  0.00  0.00    +0.000 A 
ATOM     16 CL   UNL     1      46.710  -0.093   7.713  0.00  0.00    +0.000 Cl
ATOM     17  C   UNL     1      45.451   1.976   8.922  0.00  0.00    +0.000 A 
ENDBRANCH   9  11
ENDBRANCH   8   9
ENDBRANCH   1   8
BRANCH   4  18
ATOM     18  C   UNL     1      48.228   6.800  14.406  0.00  0.00    +0.000 C 
BRANCH  18  19
ATOM     19  N   UNL     1      48.078   6.587  15.822  0.00  0.00    +0.000 N 
ATOM     20  C   UNL     1      49.135   6.182  16.599  0.00  0.00    +0.000 C 
ATOM     21  O   UNL     1      50.263   6.026  16.139  0.00  0.00    +0.000 OA
ATOM     22  H   UNL     1      47.132   6.485  16.175  0.00  0.00    +0.000 HD
BRANCH  20  23
ATOM     23  C   UNL     1      48.862   6.003  18.032  0.00  0.00    +0.000 A 
ATOM     24  C   UNL     1      49.135   4.783  18.638  0.00  0.00    +0.000 A 
ATOM     25  S   UNL     1      48.798   4.760  20.310  0.00  0.00    +0.000 S 
ATOM     26  C   UNL     1      48.226   6.361  20.274  0.00  0.00    +0.000 A 
ATOM     27  N   UNL     1      47.750   6.961  21.399  0.00  0.00    +0.000 NA
ATOM     28  C   UNL     1      47.325   8.166  21.222  0.00  0.00    +0.000 A 
ATOM     29  N   UNL     1      47.347   8.833  20.026  0.00  0.00    +0.000 N 
ATOM     30  C   UNL     1      47.848   8.281  18.871  0.00  0.00    +0.000 A 
ATOM     31  O   UNL     1      47.889   8.927  17.826  0.00  0.00    +0.000 OA
ATOM     32  C   UNL     1      48.316   6.918  19.008  0.00  0.00    +0.000 A 
ATOM     33  H   UNL     1      47.013   9.782  19.962  0.00  0.00    +0.000 HD
ENDBRANCH  20  23
ENDBRANCH  18  19
ENDBRANCH   4  18
TORSDOF 6
ENDMDL
MODEL 4
REMARK VINA RESULT:    -7.887      1.838      2.203
REMARK INTER + INTRA:         -11.805
REMARK INTER:                 -10.588
REMARK INTRA:                  -1.217
REMARK UNBOUND:                -1.151
REMARK  Name = 
REMARK  7 active torsions:
REMARK  status: ('A' for Active; 'I' for Inactive)
REMARK    1  A    between atoms: C_1  and  C_2
REMARK    2  A    between atoms: C_2  and  N_3
REMARK    3  A    between atoms: C_2  and  C_11
REMARK    4  A    between atoms: N_3  and  C_4
REMARK    5  A    between atoms: C_14  and  C_15
REMARK    6  A    between atoms: C_15  and  N_16
REMARK    7  A    between atoms: C_17  and  C_19
REMARK                            x       y       z     vdW  Elec       q    Type
REMARK                         _______ _______ _______ _____ _____    ______ ____
ROOT
ATOM      1  C   UNL     1      45.512   4.581  11.894  0.00  0.00    +0.000 A 
ATOM      2  C   UNL     1      46.242   4.297  13.063  0.00  0.00    +0.000 A 
ATOM      3  C   UNL     1      47.038   5.269  13.683  0.00  0.00    +0.000 A 
ATOM      4  C   UNL     1      47.127   6.560  13.151  0.00  0.00    +0.000 A 
ATOM      5  C   UNL     1      46.446   6.836  11.958  0.00  0.00    +0.000 A 
ATOM      6  C   UNL     1      45.633   5.867  11.346  0.00  0.00    +0.000 A 
ENDROOT
BRANCH   1   8
ATOM      7  C   UNL     1      43.298   3.465  12.205  0.00  0.00    +0.000 C 
ATOM      8  C   UNL     1      44.567   3.506  11.345  0.00  0.00    +0.000 C 
BRANCH   8   9
ATOM      9  N   UNL     1      44.230   3.729   9.927  0.00  0.00    +0.000 N 
ATOM     10  H   UNL     1      43.946   4.692   9.759  0.00  0.00    +0.000 HD
BRANCH   9  11
ATOM     11  C   UNL     1      45.136   3.316   8.932  0.00  0.00    +0.000 A 
ATOM     12  C   UNL     1      45.820   4.200   8.086  0.00  0.00    +0.000 A 
ATOM     13  C   UNL     1      46.724   3.746   7.120  0.00  0.00    +0.000 A 
ATOM     14  C   UNL     1      46.990   2.389   7.002  0.00  0.00    +0.000 A 
ATOM     15  C   UNL     1      46.376   1.500   7.877  0.00  0.00    +0.000 A 
ATOM     16 CL   UNL     1      46.730  -0.182   7.761  0.00  0.00    +0.000 Cl
ATOM     17  C   UNL     1      45.474   1.957   8.845  0.00  0.00    +0.000 A 
ENDBRANCH   9  11
ENDBRANCH   8   9
ENDBRANCH   1   8
BRANCH   4  18
ATOM     18  C   UNL     1      47.931   7.629  13.851  0.00  0.00    +0.000 C 
BRANCH  18  19
ATOM     19  N   UNL     1      49.120   7.096  14.464  0.00  0.00    +0.000 N 
ATOM     20  C   UNL     1      49.358   7.242  15.808  0.00  0.00    +0.000 C 
ATOM     21  O   UNL     1      48.554   7.790  16.558  0.00  0.00    +0.000 OA
ATOM     22  H   UNL     1      49.887   6.852  13.847  0.00  0.00    +0.000 HD
BRANCH  20  23
ATOM     23  C   UNL     1      50.602   6.652  16.321  0.00  0.00    +0.000 A 
ATOM     24  C   UNL     1      51.808   7.318  16.138  0.00  0.00    +0.000 A 
ATOM     25  S   UNL     1      53.144   6.515  16.830  0.00  0.00    +0.000 S 
ATOM     26  C   UNL     1      52.169   5.223  17.352  0.00  0.00    +0.000 A 
ATOM     27  N   UNL     1      52.708   4.158  18.006  0.00  0.00    +0.000 NA
ATOM     28  C   UNL     1      51.858   3.239  18.320  0.00  0.00    +0.000 A 
ATOM     29  N   UNL     1      50.515   3.295  18.055  0.00  0.00    +0.000 N 
ATOM     30  C   UNL     1      49.921   4.363  17.425  0.00  0.00    +0.000 A 
ATOM     31  O   UNL     1      48.706   4.395  17.242  0.00  0.00    +0.000 OA
ATOM     32  C   UNL     1      50.834   5.413  17.027  0.00  0.00    +0.000 A 
ATOM     33  H   UNL     1      49.904   2.547  18.343  0.00  0.00    +0.000 HD
ENDBRANCH  20  23
ENDBRANCH  18  19
ENDBRANCH   4  18
TORSDOF 6
ENDMDL
MODEL 5
REMARK VINA RESULT:    -7.263      3.600      8.723
REMARK INTER + INTRA:         -10.961
REMARK INTER:                  -9.251
REMARK INTRA:                  -1.710
REMARK UNBOUND:                -1.151
REMARK  Name = 
REMARK  7 active torsions:
REMARK  status: ('A' for Active; 'I' for Inactive)
REMARK    1  A    between atoms: C_1  and  C_2
REMARK    2  A    between atoms: C_2  and  N_3
REMARK    3  A    between atoms: C_2  and  C_11
REMARK    4  A    between atoms: N_3  and  C_4
REMARK    5  A    between atoms: C_14  and  C_15
REMARK    6  A    between atoms: C_15  and  N_16
REMARK    7  A    between atoms: C_17  and  C_19
REMARK                            x       y       z     vdW  Elec       q    Type
REMARK                         _______ _______ _______ _____ _____    ______ ____
ROOT
ATOM      1  C   UNL     1      49.563   7.846  16.174  0.00  0.00    +0.000 A 
ATOM      2  C   UNL     1      48.361   8.522  15.890  0.00  0.00    +0.000 A 
ATOM      3  C   UNL     1      47.831   8.557  14.594  0.00  0.00    +0.000 A 
ATOM      4  C   UNL     1      48.488   7.914  13.539  0.00  0.00    +0.000 A 
ATOM      5  C   UNL     1      49.712   7.284  13.803  0.00  0.00    +0.000 A 
ATOM      6  C   UNL     1      50.235   7.234  15.106  0.00  0.00    +0.000 A 
ENDROOT
BRANCH   1   8
ATOM      7  C   UNL     1      50.143   9.158  18.220  0.00  0.00    +0.000 C 
ATOM      8  C   UNL     1      50.015   7.746  17.635  0.00  0.00    +0.000 C 
BRANCH   8   9
ATOM      9  N   UNL     1      49.101   6.924  18.449  0.00  0.00    +0.000 N 
ATOM     10  H   UNL     1      48.227   7.411  18.633  0.00  0.00    +0.000 HD
BRANCH   9  11
ATOM     11  C   UNL     1      48.836   5.598  18.057  0.00  0.00    +0.000 A 
ATOM     12  C   UNL     1      47.565   5.132  17.692  0.00  0.00    +0.000 A 
ATOM     13  C   UNL     1      47.350   3.808  17.295  0.00  0.00    +0.000 A 
ATOM     14  C   UNL     1      48.418   2.924  17.220  0.00  0.00    +0.000 A 
ATOM     15  C   UNL     1      49.698   3.383  17.508  0.00  0.00    +0.000 A 
ATOM     16 CL   UNL     1      51.033   2.301  17.382  0.00  0.00    +0.000 Cl
ATOM     17  C   UNL     1      49.911   4.709  17.903  0.00  0.00    +0.000 A 
ENDBRANCH   9  11
ENDBRANCH   8   9
ENDBRANCH   1   8
BRANCH   4  18
ATOM     18  C   UNL     1      47.887   7.893  12.154  0.00  0.00    +0.000 C 
BRANCH  18  19
ATOM     19  N   UNL     1      47.121   6.698  11.916  0.00  0.00    +0.000 N 
ATOM     20  C   UNL     1      45.758   6.677  12.084  0.00  0.00    +0.000 C 
ATOM     21  O   UNL     1      45.123   7.681  12.397  0.00  0.00    +0.000 OA
ATOM     22  H   UNL     1      47.631   5.821  11.885  0.00  0.00    +0.000 HD
BRANCH  20  23
ATOM     23  C   UNL     1      45.083   5.402  11.807  0.00  0.00    +0.000 A 
ATOM     24  C   UNL     1      44.374   4.764  12.817  0.00  0.00    +0.000 A 
ATOM     25  S   UNL     1      43.621   3.318  12.315  0.00  0.00    +0.000 S 
ATOM     26  C   UNL     1      44.259   3.464  10.745  0.00  0.00    +0.000 A 
ATOM     27  N   UNL     1      44.013   2.519   9.798  0.00  0.00    +0.000 NA
ATOM     28  C   UNL     1      44.580   2.743   8.661  0.00  0.00    +0.000 A 
ATOM     29  N   UNL     1      45.359   3.834   8.379  0.00  0.00    +0.000 N 
ATOM     30  C   UNL     1      45.610   4.831   9.293  0.00  0.00    +0.000 A 
ATOM     31  O   UNL     1      46.278   5.816   8.990  0.00  0.00    +0.000 OA
ATOM     32  C   UNL     1      45.016   4.616  10.596  0.00  0.00    +0.000 A 
ATOM     33  H   UNL     1      45.760   3.956   7.462  0.00  0.00    +0.000 HD
ENDBRANCH  20  23
ENDBRANCH  18  19
ENDBRANCH   4  18
TORSDOF 6
ENDMDL
MODEL 6
REMARK VINA RESULT:    -7.219      5.278      9.388
REMARK INTER + INTRA:         -10.903
REMARK INTER:                  -9.858
REMARK INTRA:                  -1.045
REMARK UNBOUND:                -1.151
REMARK  Name = 
REMARK  7 active torsions:
REMARK  status: ('A' for Active; 'I' for Inactive)
REMARK    1  A    between atoms: C_1  and  C_2
REMARK    2  A    between atoms: C_2  and  N_3
REMARK    3  A    between atoms: C_2  and  C_11
REMARK    4  A    between atoms: N_3  and  C_4
REMARK    5  A    between atoms: C_14  and  C_15
REMARK    6  A    between atoms: C_15  and  N_16
REMARK    7  A    between atoms: C_17  and  C_19
REMARK                            x       y       z     vdW  Elec       q    Type
REMARK                         _______ _______ _______ _____ _____    ______ ____
ROOT
ATOM      1  C   UNL     1      51.870   2.796  17.756  0.00  0.00    +0.000 A 
ATOM      2  C   UNL     1      51.299   4.062  17.983  0.00  0.00    +0.000 A 
ATOM      3  C   UNL     1      49.934   4.297  17.771  0.00  0.00    +0.000 A 
ATOM      4  C   UNL     1      49.096   3.270  17.325  0.00  0.00    +0.000 A 
ATOM      5  C   UNL     1      49.667   2.020  17.046  0.00  0.00    +0.000 A 
ATOM      6  C   UNL     1      51.031   1.779  17.276  0.00  0.00    +0.000 A 
ENDROOT
BRANCH   1   8
ATOM      7  C   UNL     1      53.799   3.725  19.043  0.00  0.00    +0.000 C 
ATOM      8  C   UNL     1      53.341   2.583  18.129  0.00  0.00    +0.000 C 
BRANCH   8   9
ATOM      9  N   UNL     1      53.572   1.276  18.770  0.00  0.00    +0.000 N 
ATOM     10  H   UNL     1      52.747   0.957  19.272  0.00  0.00    +0.000 HD
BRANCH   9  11
ATOM     11  C   UNL     1      54.106   0.220  18.006  0.00  0.00    +0.000 A 
ATOM     12  C   UNL     1      54.572   0.367  16.692  0.00  0.00    +0.000 A 
ATOM     13  C   UNL     1      55.108  -0.708  15.975  0.00  0.00    +0.000 A 
ATOM     14  C   UNL     1      55.223  -1.955  16.576  0.00  0.00    +0.000 A 
ATOM     15  C   UNL     1      54.833  -2.106  17.901  0.00  0.00    +0.000 A 
ATOM     16 CL   UNL     1      55.007  -3.641  18.664  0.00  0.00    +0.000 Cl
ATOM     17  C   UNL     1      54.299  -1.028  18.617  0.00  0.00    +0.000 A 
ENDBRANCH   9  11
ENDBRANCH   8   9
ENDBRANCH   1   8
BRANCH   4  18
ATOM     18  C   UNL     1      47.613   3.500  17.158  0.00  0.00    +0.000 C 
BRANCH  18  19
ATOM     19  N   UNL     1      47.333   4.537  16.199  0.00  0.00    +0.000 N 
ATOM     20  C   UNL     1      47.233   4.260  14.857  0.00  0.00    +0.000 C 
ATOM     21  O   UNL     1      47.330   3.118  14.417  0.00  0.00    +0.000 OA
ATOM     22  H   UNL     1      47.477   5.495  16.500  0.00  0.00    +0.000 HD
BRANCH  20  23
ATOM     23  C   UNL     1      46.940   5.398  13.975  0.00  0.00    +0.000 A 
ATOM     24  C   UNL     1      47.835   6.457  13.894  0.00  0.00    +0.000 A 
ATOM     25  S   UNL     1      47.360   7.671  12.794  0.00  0.00    +0.000 S 
ATOM     26  C   UNL     1      45.916   6.852  12.426  0.00  0.00    +0.000 A 
ATOM     27  N   UNL     1      45.018   7.375  11.548  0.00  0.00    +0.000 NA
ATOM     28  C   UNL     1      43.955   6.662  11.383  0.00  0.00    +0.000 A 
ATOM     29  N   UNL     1      43.717   5.463  12.002  0.00  0.00    +0.000 N 
ATOM     30  C   UNL     1      44.608   4.879  12.871  0.00  0.00    +0.000 A 
ATOM     31  O   UNL     1      44.377   3.783  13.374  0.00  0.00    +0.000 OA
ATOM     32  C   UNL     1      45.808   5.652  13.112  0.00  0.00    +0.000 A 
ATOM     33  H   UNL     1      42.870   4.948  11.814  0.00  0.00    +0.000 HD
ENDBRANCH  20  23
ENDBRANCH  18  19
ENDBRANCH   4  18
TORSDOF 6
ENDMDL
MODEL 7
REMARK VINA RESULT:    -7.176      3.895      8.445
REMARK INTER + INTRA:         -10.844
REMARK INTER:                  -9.321
REMARK INTRA:                  -1.523
REMARK UNBOUND:                -1.151
REMARK  Name = 
REMARK  7 active torsions:
REMARK  status: ('A' for Active; 'I' for Inactive)
REMARK    1  A    between atoms: C_1  and  C_2
REMARK    2  A    between atoms: C_2  and  N_3
REMARK    3  A    between atoms: C_2  and  C_11
REMARK    4  A    between atoms: N_3  and  C_4
REMARK    5  A    between atoms: C_14  and  C_15
REMARK    6  A    between atoms: C_15  and  N_16
REMARK    7  A    between atoms: C_17  and  C_19
REMARK                            x       y       z     vdW  Elec       q    Type
REMARK                         _______ _______ _______ _____ _____    ______ ____
ROOT
ATOM      1  C   UNL     1      49.183   7.817  16.188  0.00  0.00    +0.000 A 
ATOM      2  C   UNL     1      49.857   7.096  15.184  0.00  0.00    +0.000 A 
ATOM      3  C   UNL     1      49.515   7.231  13.833  0.00  0.00    +0.000 A 
ATOM      4  C   UNL     1      48.487   8.094  13.441  0.00  0.00    +0.000 A 
ATOM      5  C   UNL     1      47.775   8.775  14.438  0.00  0.00    +0.000 A 
ATOM      6  C   UNL     1      48.129   8.655  15.792  0.00  0.00    +0.000 A 
ENDROOT
BRANCH   1   8
ATOM      7  C   UNL     1      49.774   9.118  18.237  0.00  0.00    +0.000 C 
ATOM      8  C   UNL     1      49.694   7.713  17.629  0.00  0.00    +0.000 C 
BRANCH   8   9
ATOM      9  N   UNL     1      48.851   6.832  18.459  0.00  0.00    +0.000 N 
ATOM     10  H   UNL     1      47.951   7.261  18.662  0.00  0.00    +0.000 HD
BRANCH   9  11
ATOM     11  C   UNL     1      48.666   5.492  18.070  0.00  0.00    +0.000 A 
ATOM     12  C   UNL     1      47.426   4.952  17.701  0.00  0.00    +0.000 A 
ATOM     13  C   UNL     1      47.290   3.617  17.306  0.00  0.00    +0.000 A 
ATOM     14  C   UNL     1      48.408   2.796  17.238  0.00  0.00    +0.000 A 
ATOM     15  C   UNL     1      49.658   3.330  17.531  0.00  0.00    +0.000 A 
ATOM     16 CL   UNL     1      51.053   2.327  17.413  0.00  0.00    +0.000 Cl
ATOM     17  C   UNL     1      49.791   4.666  17.923  0.00  0.00    +0.000 A 
ENDBRANCH   9  11
ENDBRANCH   8   9
ENDBRANCH   1   8
BRANCH   4  18
ATOM     18  C   UNL     1      48.159   8.292  11.981  0.00  0.00    +0.000 C 
BRANCH  18  19
ATOM     19  N   UNL     1      47.508   7.141  11.413  0.00  0.00    +0.000 N 
ATOM     20  C   UNL     1      46.139   7.021  11.416  0.00  0.00    +0.000 C 
ATOM     21  O   UNL     1      45.407   7.903  11.858  0.00  0.00    +0.000 OA
ATOM     22  H   UNL     1      48.079   6.317  11.258  0.00  0.00    +0.000 HD
BRANCH  20  23
ATOM     23  C   UNL     1      45.588   5.804  10.805  0.00  0.00    +0.000 A 
ATOM     24  C   UNL     1      45.780   5.564   9.450  0.00  0.00    +0.000 A 
ATOM     25  S   UNL     1      45.110   4.090   8.915  0.00  0.00    +0.000 S 
ATOM     26  C   UNL     1      44.492   3.744  10.462  0.00  0.00    +0.000 A 
ATOM     27  N   UNL     1      43.772   2.613  10.691  0.00  0.00    +0.000 NA
ATOM     28  C   UNL     1      43.342   2.491  11.902  0.00  0.00    +0.000 A 
ATOM     29  N   UNL     1      43.581   3.388  12.909  0.00  0.00    +0.000 N 
ATOM     30  C   UNL     1      44.330   4.528  12.733  0.00  0.00    +0.000 A 
ATOM     31  O   UNL     1      44.558   5.288  13.671  0.00  0.00    +0.000 OA
ATOM     32  C   UNL     1      44.816   4.728  11.384  0.00  0.00    +0.000 A 
ATOM     33  H   UNL     1      43.228   3.222  13.839  0.00  0.00    +0.000 HD
ENDBRANCH  20  23
ENDBRANCH  18  19
ENDBRANCH   4  18
TORSDOF 6
ENDMDL
MODEL 8
REMARK VINA RESULT:    -6.897      3.243      4.441
REMARK INTER + INTRA:         -10.468
REMARK INTER:                  -9.268
REMARK INTRA:                  -1.199
REMARK UNBOUND:                -1.151
REMARK  Name = 
REMARK  7 active torsions:
REMARK  status: ('A' for Active; 'I' for Inactive)
REMARK    1  A    between atoms: C_1  and  C_2
REMARK    2  A    between atoms: C_2  and  N_3
REMARK    3  A    between atoms: C_2  and  C_11
REMARK    4  A    between atoms: N_3  and  C_4
REMARK    5  A    between atoms: C_14  and  C_15
REMARK    6  A    between atoms: C_15  and  N_16
REMARK    7  A    between atoms: C_17  and  C_19
REMARK                            x       y       z     vdW  Elec       q    Type
REMARK                         _______ _______ _______ _____ _____    ______ ____
ROOT
ATOM      1  C   UNL     1      45.202   4.548  11.556  0.00  0.00    +0.000 A 
ATOM      2  C   UNL     1      45.370   5.760  10.861  0.00  0.00    +0.000 A 
ATOM      3  C   UNL     1      45.911   6.891  11.485  0.00  0.00    +0.000 A 
ATOM      4  C   UNL     1      46.302   6.845  12.827  0.00  0.00    +0.000 A 
ATOM      5  C   UNL     1      46.089   5.658  13.542  0.00  0.00    +0.000 A 
ATOM      6  C   UNL     1      45.563   4.517  12.911  0.00  0.00    +0.000 A 
ENDROOT
BRANCH   1   8
ATOM      7  C   UNL     1      43.385   2.843  11.359  0.00  0.00    +0.000 C 
ATOM      8  C   UNL     1      44.721   3.319  10.775  0.00  0.00    +0.000 C 
BRANCH   8   9
ATOM      9  N   UNL     1      44.593   3.589   9.331  0.00  0.00    +0.000 N 
ATOM     10  H   UNL     1      44.515   4.587   9.145  0.00  0.00    +0.000 HD
BRANCH   9  11
ATOM     11  C   UNL     1      45.512   3.005   8.439  0.00  0.00    +0.000 A 
ATOM     12  C   UNL     1      46.315   3.740   7.556  0.00  0.00    +0.000 A 
ATOM     13  C   UNL     1      47.226   3.118   6.696  0.00  0.00    +0.000 A 
ATOM     14  C   UNL     1      47.378   1.738   6.726  0.00  0.00    +0.000 A 
ATOM     15  C   UNL     1      46.643   0.996   7.643  0.00  0.00    +0.000 A 
ATOM     16 CL   UNL     1      46.854  -0.712   7.711  0.00  0.00    +0.000 Cl
ATOM     17  C   UNL     1      45.734   1.621   8.504  0.00  0.00    +0.000 A 
ENDBRANCH   9  11
ENDBRANCH   8   9
ENDBRANCH   1   8
BRANCH   4  18
ATOM     18  C   UNL     1      46.946   8.041  13.485  0.00  0.00    +0.000 C 
BRANCH  18  19
ATOM     19  N   UNL     1      48.377   7.907  13.568  0.00  0.00    +0.000 N 
ATOM     20  C   UNL     1      49.126   8.725  14.377  0.00  0.00    +0.000 C 
ATOM     21  O   UNL     1      48.613   9.576  15.100  0.00  0.00    +0.000 OA
ATOM     22  H   UNL     1      48.835   7.385  12.828  0.00  0.00    +0.000 HD
BRANCH  20  23
ATOM     23  C   UNL     1      50.577   8.492  14.382  0.00  0.00    +0.000 A 
ATOM     24  C   UNL     1      51.214   8.135  15.564  0.00  0.00    +0.000 A 
ATOM     25  S   UNL     1      52.888   7.863  15.383  0.00  0.00    +0.000 S 
ATOM     26  C   UNL     1      52.832   8.263  13.731  0.00  0.00    +0.000 A 
ATOM     27  N   UNL     1      53.960   8.257  12.970  0.00  0.00    +0.000 NA
ATOM     28  C   UNL     1      53.776   8.606  11.741  0.00  0.00    +0.000 A 
ATOM     29  N   UNL     1      52.564   8.945  11.199  0.00  0.00    +0.000 N 
ATOM     30  C   UNL     1      51.393   8.935  11.920  0.00  0.00    +0.000 A 
ATOM     31  O   UNL     1      50.319   9.205  11.388  0.00  0.00    +0.000 OA
ATOM     32  C   UNL     1      51.547   8.575  13.314  0.00  0.00    +0.000 A 
ATOM     33  H   UNL     1      52.489   9.193  10.225  0.00  0.00    +0.000 HD
ENDBRANCH  20  23
ENDBRANCH  18  19
ENDBRANCH   4  18
TORSDOF 6
ENDMDL
MODEL 9
REMARK VINA RESULT:    -6.765      5.224      8.439
REMARK INTER + INTRA:         -10.289
REMARK INTER:                  -9.097
REMARK INTRA:                  -1.191
REMARK UNBOUND:                -1.151
REMARK  Name = 
REMARK  7 active torsions:
REMARK  status: ('A' for Active; 'I' for Inactive)
REMARK    1  A    between atoms: C_1  and  C_2
REMARK    2  A    between atoms: C_2  and  N_3
REMARK    3  A    between atoms: C_2  and  C_11
REMARK    4  A    between atoms: N_3  and  C_4
REMARK    5  A    between atoms: C_14  and  C_15
REMARK    6  A    between atoms: C_15  and  N_16
REMARK    7  A    between atoms: C_17  and  C_19
REMARK                            x       y       z     vdW  Elec       q    Type
REMARK                         _______ _______ _______ _____ _____    ______ ____
ROOT
ATOM      1  C   UNL     1      50.343   8.957  11.460  0.00  0.00    +0.000 A 
ATOM      2  C   UNL     1      49.361   9.964  11.515  0.00  0.00    +0.000 A 
ATOM      3  C   UNL     1      48.047   9.682  11.909  0.00  0.00    +0.000 A 
ATOM      4  C   UNL     1      47.673   8.382  12.263  0.00  0.00    +0.000 A 
ATOM      5  C   UNL     1      48.631   7.364  12.160  0.00  0.00    +0.000 A 
ATOM      6  C   UNL     1      49.954   7.648  11.782  0.00  0.00    +0.000 A 
ENDROOT
BRANCH   1   8
ATOM      7  C   UNL     1      52.236  10.444  12.130  0.00  0.00    +0.000 C 
ATOM      8  C   UNL     1      51.786   9.362  11.140  0.00  0.00    +0.000 C 
BRANCH   8   9
ATOM      9  N   UNL     1      52.709   8.213  11.168  0.00  0.00    +0.000 N 
ATOM     10  H   UNL     1      52.445   7.541  11.884  0.00  0.00    +0.000 HD
BRANCH   9  11
ATOM     11  C   UNL     1      53.007   7.541   9.966  0.00  0.00    +0.000 A 
ATOM     12  C   UNL     1      53.439   6.210   9.906  0.00  0.00    +0.000 A 
ATOM     13  C   UNL     1      53.710   5.576   8.688  0.00  0.00    +0.000 A 
ATOM     14  C   UNL     1      53.517   6.258   7.493  0.00  0.00    +0.000 A 
ATOM     15  C   UNL     1      53.020   7.556   7.527  0.00  0.00    +0.000 A 
ATOM     16 CL   UNL     1      52.744   8.395   6.048  0.00  0.00    +0.000 Cl
ATOM     17  C   UNL     1      52.749   8.186   8.747  0.00  0.00    +0.000 A 
ENDBRANCH   9  11
ENDBRANCH   8   9
ENDBRANCH   1   8
BRANCH   4  18
ATOM     18  C   UNL     1      46.276   8.086  12.752  0.00  0.00    +0.000 C 
BRANCH  18  19
ATOM     19  N   UNL     1      45.852   6.755  12.403  0.00  0.00    +0.000 N 
ATOM     20  C   UNL     1      44.723   6.539  11.651  0.00  0.00    +0.000 C 
ATOM     21  O   UNL     1      44.049   7.464  11.205  0.00  0.00    +0.000 OA
ATOM     22  H   UNL     1      46.247   5.990  12.939  0.00  0.00    +0.000 HD
BRANCH  20  23
ATOM     23  C   UNL     1      44.393   5.139  11.354  0.00  0.00    +0.000 A 
ATOM     24  C   UNL     1      43.598   4.416  12.234  0.00  0.00    +0.000 A 
ATOM     25  S   UNL     1      43.280   2.822  11.716  0.00  0.00    +0.000 S 
ATOM     26  C   UNL     1      44.236   3.023  10.324  0.00  0.00    +0.000 A 
ATOM     27  N   UNL     1      44.411   2.003   9.441  0.00  0.00    +0.000 NA
ATOM     28  C   UNL     1      45.181   2.286   8.445  0.00  0.00    +0.000 A 
ATOM     29  N   UNL     1      45.779   3.502   8.242  0.00  0.00    +0.000 N 
ATOM     30  C   UNL     1      45.607   4.571   9.089  0.00  0.00    +0.000 A 
ATOM     31  O   UNL     1      46.126   5.659   8.851  0.00  0.00    +0.000 OA
ATOM     32  C   UNL     1      44.771   4.300  10.239  0.00  0.00    +0.000 A 
ATOM     33  H   UNL     1      46.357   3.660   7.431  0.00  0.00    +0.000 HD
ENDBRANCH  20  23
ENDBRANCH  18  19
ENDBRANCH   4  18
TORSDOF 6
ENDMDL
