MODEL 1
REMARK VINA RESULT:    -8.481      0.000      0.000
REMARK INTER + INTRA:         -12.243
REMARK INTER:                 -11.209
REMARK INTRA:                  -1.035
REMARK UNBOUND:                -1.035
REMARK  Name = 
REMARK  7 active torsions:
REMARK  status: ('A' for Active; 'I' for Inactive)
REMARK    1  A    between atoms: C_1  and  C_2
REMARK    2  A    between atoms: C_2  and  O_3
REMARK    3  A    between atoms: C_2  and  C_4
REMARK    4  A    between atoms: C_2  and  C_15
REMARK    5  A    between atoms: C_4  and  N_5
REMARK    6  A    between atoms: C_9  and  C_10
REMARK    7  A    between atoms: C_19  and  C_20
REMARK                            x       y       z     vdW  Elec       q    Type
REMARK                         _______ _______ _______ _____ _____    ______ ____
ROOT
ATOM      1  C   UNL     1      42.764   5.378  12.926  0.00  0.00    +0.000 C 
ATOM      2  C   UNL     1      43.816   4.391  12.406  0.00  0.00    +0.000 C 
ENDROOT
BRANCH   2   3
ATOM      3  C   UNL     1      45.224   4.929  12.677  0.00  0.00    +0.000 A 
ATOM      4  C   UNL     1      45.839   5.869  11.841  0.00  0.00    +0.000 A 
ATOM      5  C   UNL     1      47.093   6.390  12.158  0.00  0.00    +0.000 A 
ATOM      6  C   UNL     1      47.737   6.010  13.337  0.00  0.00    +0.000 A 
ATOM      7  C   UNL     1      47.146   5.098  14.226  0.00  0.00    +0.000 A 
ATOM      8  C   UNL     1      45.916   4.534  13.845  0.00  0.00    +0.000 A 
BRANCH   7   9
ATOM      9  C   UNL     1      47.715   4.842  15.572  0.00  0.00    +0.000 A 
ATOM     10  C   UNL     1      47.568   3.581  16.172  0.00  0.00    +0.000 A 
ATOM     11  C   UNL     1      48.185   3.267  17.384  0.00  0.00    +0.000 A 
ATOM     12  C   UNL     1      48.977   4.213  18.024  0.00  0.00    +0.000 A 
ATOM     13  C   UNL     1      49.132   5.478  17.461  0.00  0.00    +0.000 A 
ATOM     14  C   UNL     1      48.498   5.792  16.253  0.00  0.00    +0.000 A 
ENDBRANCH   7   9
ENDBRANCH   2   3
BRANCH   2  15
ATOM     15  O   UNL     1      43.600   3.155  13.111  0.00  0.00    +0.000 OA
ATOM     16  H   UNL     1      44.023   2.468  12.561  0.00  0.00    +0.000 HD
ENDBRANCH   2  15
BRANCH   2  17
ATOM     17  C   UNL     1      43.649   4.109  10.879  0.00  0.00    +0.000 C 
BRANCH  17  18
ATOM     18  N   UNL     1      44.045   2.726  10.523  0.00  0.00    +0.000 N 
ATOM     19  C   UNL     1      44.912   2.703   9.405  0.00  0.00    +0.000 A 
ATOM     20  C   UNL     1      45.341   1.473   8.918  0.00  0.00    +0.000 A 
ATOM     21  C   UNL     1      46.178   1.427   7.799  0.00  0.00    +0.000 A 
ATOM     22  C   UNL     1      46.578   2.616   7.185  0.00  0.00    +0.000 A 
ATOM     23  C   UNL     1      46.118   3.794   7.745  0.00  0.00    +0.000 A 
ATOM     24  N   UNL     1      45.305   3.857   8.830  0.00  0.00    +0.000 NA
ATOM     25  H   UNL     1      43.237   2.159  10.270  0.00  0.00    +0.000 HD
BRANCH  22  26
ATOM     26  C   UNL     1      47.444   2.566   5.985  0.00  0.00    +0.000 C 
ATOM     27  N   UNL     1      48.801   2.589   6.139  0.00  0.00    +0.000 N 
ATOM     28  O   UNL     1      46.961   2.513   4.860  0.00  0.00    +0.000 OA
ATOM     29  H   UNL     1      49.300   2.635   7.012  0.00  0.00    +0.000 HD
ATOM     30  H   UNL     1      49.353   2.558   5.292  0.00  0.00    +0.000 HD
ENDBRANCH  22  26
ENDBRANCH  17  18
ENDBRANCH   2  17
TORSDOF 6
ENDMDL
MODEL 2
REMARK VINA RESULT:    -8.341      2.222      4.020
REMARK INTER + INTRA:         -12.057
REMARK INTER:                 -10.965
REMARK INTRA:                  -1.092
REMARK UNBOUND:                -1.035
REMARK  Name = 
REMARK  7 active torsions:
REMARK  status: ('A' for Active; 'I' for Inactive)
REMARK    1  A    between atoms: C_1  and  C_2
REMARK    2  A    between atoms: C_2  and  O_3
REMARK    3  A    between atoms: C_2  and  C_4
REMARK    4  A    between atoms: C_2  and  C_15
REMARK    5  A    between atoms: C_4  and  N_5
REMARK    6  A    between atoms: C_9  and  C_10
REMARK    7  A    between atoms: C_19  and  C_20
REMARK                            x       y       z     vdW  Elec       q    Type
REMARK                         _______ _______ _______ _____ _____    ______ ____
ROOT
ATOM      1  C   UNL     1      42.567   6.713  11.809  0.00  0.00    +0.000 C 
ATOM      2  C   UNL     1      43.247   5.396  12.206  0.00  0.00    +0.000 C 
ENDROOT
BRANCH   2   3
ATOM      3  C   UNL     1      44.687   5.660  12.655  0.00  0.00    +0.000 A 
ATOM      4  C   UNL     1      45.479   4.668  13.246  0.00  0.00    +0.000 A 
ATOM      5  C   UNL     1      46.809   4.923  13.577  0.00  0.00    +0.000 A 
ATOM      6  C   UNL     1      47.383   6.163  13.286  0.00  0.00    +0.000 A 
ATOM      7  C   UNL     1      46.641   7.177  12.661  0.00  0.00    +0.000 A 
ATOM      8  C   UNL     1      45.283   6.918  12.406  0.00  0.00    +0.000 A 
BRANCH   7   9
ATOM      9  C   UNL     1      47.284   8.417  12.160  0.00  0.00    +0.000 A 
ATOM     10  C   UNL     1      46.569   9.625  12.142  0.00  0.00    +0.000 A 
ATOM     11  C   UNL     1      47.173  10.832  11.786  0.00  0.00    +0.000 A 
ATOM     12  C   UNL     1      48.521  10.858  11.447  0.00  0.00    +0.000 A 
ATOM     13  C   UNL     1      49.254   9.674  11.442  0.00  0.00    +0.000 A 
ATOM     14  C   UNL     1      48.639   8.465  11.785  0.00  0.00    +0.000 A 
ENDBRANCH   7   9
ENDBRANCH   2   3
BRANCH   2  15
ATOM     15  O   UNL     1      42.471   4.846  13.286  0.00  0.00    +0.000 OA
ATOM     16  H   UNL     1      42.896   3.993  13.499  0.00  0.00    +0.000 HD
ENDBRANCH   2  15
BRANCH   2  17
ATOM     17  C   UNL     1      43.245   4.361  11.037  0.00  0.00    +0.000 C 
BRANCH  17  18
ATOM     18  N   UNL     1      43.939   4.879   9.835  0.00  0.00    +0.000 N 
ATOM     19  C   UNL     1      44.696   3.869   9.195  0.00  0.00    +0.000 A 
ATOM     20  C   UNL     1      45.443   4.208   8.071  0.00  0.00    +0.000 A 
ATOM     21  C   UNL     1      46.218   3.231   7.438  0.00  0.00    +0.000 A 
ATOM     22  C   UNL     1      46.232   1.927   7.938  0.00  0.00    +0.000 A 
ATOM     23  C   UNL     1      45.447   1.676   9.049  0.00  0.00    +0.000 A 
ATOM     24  N   UNL     1      44.690   2.611   9.675  0.00  0.00    +0.000 NA
ATOM     25  H   UNL     1      44.595   5.622  10.072  0.00  0.00    +0.000 HD
BRANCH  22  26
ATOM     26  C   UNL     1      47.073   0.900   7.283  0.00  0.00    +0.000 C 
ATOM     27  N   UNL     1      47.969   1.282   6.324  0.00  0.00    +0.000 N 
ATOM     28  O   UNL     1      46.970  -0.284   7.581  0.00  0.00    +0.000 OA
ATOM     29  H   UNL     1      48.130   2.221   6.001  0.00  0.00    +0.000 HD
ATOM     30  H   UNL     1      48.518   0.546   5.900  0.00  0.00    +0.000 HD
ENDBRANCH  22  26
ENDBRANCH  17  18
ENDBRANCH   2  17
TORSDOF 6
ENDMDL
MODEL 3
REMARK VINA RESULT:    -7.294      3.630      8.385
REMARK INTER + INTRA:         -10.674
REMARK INTER:                  -9.884
REMARK INTRA:                  -0.790
REMARK UNBOUND:                -1.035
REMARK  Name = 
REMARK  7 active torsions:
REMARK  status: ('A' for Active; 'I' for Inactive)
REMARK    1  A    between atoms: C_1  and  C_2
REMARK    2  A    between atoms: C_2  and  O_3
REMARK    3  A    between atoms: C_2  and  C_4
REMARK    4  A    between atoms: C_2  and  C_15
REMARK    5  A    between atoms: C_4  and  N_5
REMARK    6  A    between atoms: C_9  and  C_10
REMARK    7  A    between atoms: C_19  and  C_20
REMARK                            x       y       z     vdW  Elec       q    Type
REMARK                         _______ _______ _______ _____ _____    ______ ____
ROOT
ATOM      1  C   UNL     1      45.791   8.240  13.220  0.00  0.00    +0.000 C 
ATOM      2  C   UNL     1      46.506   7.175  12.380  0.00  0.00    +0.000 C 
ENDROOT
BRANCH   2   3
ATOM      3  C   UNL     1      45.480   6.266  11.697  0.00  0.00    +0.000 A 
ATOM      4  C   UNL     1      44.100   6.453  11.845  0.00  0.00    +0.000 A 
ATOM      5  C   UNL     1      43.195   5.651  11.152  0.00  0.00    +0.000 A 
ATOM      6  C   UNL     1      43.653   4.672  10.267  0.00  0.00    +0.000 A 
ATOM      7  C   UNL     1      45.027   4.470  10.056  0.00  0.00    +0.000 A 
ATOM      8  C   UNL     1      45.916   5.243  10.823  0.00  0.00    +0.000 A 
BRANCH   7   9
ATOM      9  C   UNL     1      45.527   3.586   8.976  0.00  0.00    +0.000 A 
ATOM     10  C   UNL     1      46.135   4.137   7.837  0.00  0.00    +0.000 A 
ATOM     11  C   UNL     1      46.719   3.336   6.854  0.00  0.00    +0.000 A 
ATOM     12  C   UNL     1      46.715   1.953   6.995  0.00  0.00    +0.000 A 
ATOM     13  C   UNL     1      46.108   1.375   8.107  0.00  0.00    +0.000 A 
ATOM     14  C   UNL     1      45.511   2.182   9.081  0.00  0.00    +0.000 A 
ENDBRANCH   7   9
ENDBRANCH   2   3
BRANCH   2  15
ATOM     15  O   UNL     1      47.287   7.884  11.401  0.00  0.00    +0.000 OA
ATOM     16  H   UNL     1      48.211   7.611  11.562  0.00  0.00    +0.000 HD
ENDBRANCH   2  15
BRANCH   2  17
ATOM     17  C   UNL     1      47.482   6.310  13.238  0.00  0.00    +0.000 C 
BRANCH  17  18
ATOM     18  N   UNL     1      46.765   5.283  14.030  0.00  0.00    +0.000 N 
ATOM     19  C   UNL     1      47.392   5.055  15.278  0.00  0.00    +0.000 A 
ATOM     20  C   UNL     1      46.862   4.085  16.123  0.00  0.00    +0.000 A 
ATOM     21  C   UNL     1      47.481   3.827  17.350  0.00  0.00    +0.000 A 
ATOM     22  C   UNL     1      48.621   4.546  17.715  0.00  0.00    +0.000 A 
ATOM     23  C   UNL     1      49.069   5.502  16.822  0.00  0.00    +0.000 A 
ATOM     24  N   UNL     1      48.481   5.766  15.628  0.00  0.00    +0.000 NA
ATOM     25  H   UNL     1      46.747   4.384  13.550  0.00  0.00    +0.000 HD
BRANCH  22  26
ATOM     26  C   UNL     1      49.290   4.254  19.003  0.00  0.00    +0.000 C 
ATOM     27  N   UNL     1      48.608   3.573  19.972  0.00  0.00    +0.000 N 
ATOM     28  O   UNL     1      50.441   4.620  19.214  0.00  0.00    +0.000 OA
ATOM     29  H   UNL     1      47.663   3.232  19.906  0.00  0.00    +0.000 HD
ATOM     30  H   UNL     1      49.102   3.401  20.837  0.00  0.00    +0.000 HD
ENDBRANCH  22  26
ENDBRANCH  17  18
ENDBRANCH   2  17
TORSDOF 6
ENDMDL
MODEL 4
REMARK VINA RESULT:    -6.970      4.281      8.479
REMARK INTER + INTRA:         -10.246
REMARK INTER:                  -9.255
REMARK INTRA:                  -0.991
REMARK UNBOUND:                -1.035
REMARK  Name = 
REMARK  7 active torsions:
REMARK  status: ('A' for Active; 'I' for Inactive)
REMARK    1  A    between atoms: C_1  and  C_2
REMARK    2  A    between atoms: C_2  and  O_3
REMARK    3  A    between atoms: C_2  and  C_4
REMARK    4  A    between atoms: C_2  and  C_15
REMARK    5  A    between atoms: C_4  and  N_5
REMARK    6  A    between atoms: C_9  and  C_10
REMARK    7  A    between atoms: C_19  and  C_20
REMARK                            x       y       z     vdW  Elec       q    Type
REMARK                         _______ _______ _______ _____ _____    ______ ____
ROOT
ATOM      1  C   UNL     1      49.500   8.799  11.985  0.00  0.00    +0.000 C 
ATOM      2  C   UNL     1      48.754   7.752  12.822  0.00  0.00    +0.000 C 
ENDROOT
BRANCH   2   3
ATOM      3  C   UNL     1      47.302   7.636  12.350  0.00  0.00    +0.000 A 
ATOM      4  C   UNL     1      46.418   8.722  12.376  0.00  0.00    +0.000 A 
ATOM      5  C   UNL     1      45.124   8.599  11.871  0.00  0.00    +0.000 A 
ATOM      6  C   UNL     1      44.703   7.398  11.296  0.00  0.00    +0.000 A 
ATOM      7  C   UNL     1      45.564   6.292  11.212  0.00  0.00    +0.000 A 
ATOM      8  C   UNL     1      46.837   6.422  11.795  0.00  0.00    +0.000 A 
BRANCH   7   9
ATOM      9  C   UNL     1      45.208   5.086  10.426  0.00  0.00    +0.000 A 
ATOM     10  C   UNL     1      45.569   4.995   9.072  0.00  0.00    +0.000 A 
ATOM     11  C   UNL     1      45.353   3.832   8.329  0.00  0.00    +0.000 A 
ATOM     12  C   UNL     1      44.775   2.722   8.934  0.00  0.00    +0.000 A 
ATOM     13  C   UNL     1      44.393   2.786  10.272  0.00  0.00    +0.000 A 
ATOM     14  C   UNL     1      44.598   3.959  11.006  0.00  0.00    +0.000 A 
ENDBRANCH   7   9
ENDBRANCH   2   3
BRANCH   2  15
ATOM     15  O   UNL     1      49.450   6.508  12.633  0.00  0.00    +0.000 OA
ATOM     16  H   UNL     1      50.248   6.735  12.117  0.00  0.00    +0.000 HD
ENDBRANCH   2  15
BRANCH   2  17
ATOM     17  C   UNL     1      48.783   8.093  14.346  0.00  0.00    +0.000 C 
BRANCH  17  18
ATOM     18  N   UNL     1      48.039   7.096  15.152  0.00  0.00    +0.000 N 
ATOM     19  C   UNL     1      48.909   6.318  15.952  0.00  0.00    +0.000 A 
ATOM     20  C   UNL     1      48.367   5.307  16.737  0.00  0.00    +0.000 A 
ATOM     21  C   UNL     1      49.212   4.510  17.517  0.00  0.00    +0.000 A 
ATOM     22  C   UNL     1      50.589   4.740  17.500  0.00  0.00    +0.000 A 
ATOM     23  C   UNL     1      51.040   5.777  16.703  0.00  0.00    +0.000 A 
ATOM     24  N   UNL     1      50.235   6.559  15.941  0.00  0.00    +0.000 NA
ATOM     25  H   UNL     1      47.531   6.440  14.561  0.00  0.00    +0.000 HD
BRANCH  22  26
ATOM     26  C   UNL     1      51.486   3.880  18.306  0.00  0.00    +0.000 C 
ATOM     27  N   UNL     1      51.499   2.532  18.079  0.00  0.00    +0.000 N 
ATOM     28  O   UNL     1      52.206   4.358  19.175  0.00  0.00    +0.000 OA
ATOM     29  H   UNL     1      50.948   2.038  17.397  0.00  0.00    +0.000 HD
ATOM     30  H   UNL     1      52.123   1.984  18.656  0.00  0.00    +0.000 HD
ENDBRANCH  22  26
ENDBRANCH  17  18
ENDBRANCH   2  17
TORSDOF 6
ENDMDL
MODEL 5
REMARK VINA RESULT:    -6.880      3.576      6.092
REMARK INTER + INTRA:         -10.127
REMARK INTER:                  -9.081
REMARK INTRA:                  -1.046
REMARK UNBOUND:                -1.035
REMARK  Name = 
REMARK  7 active torsions:
REMARK  status: ('A' for Active; 'I' for Inactive)
REMARK    1  A    between atoms: C_1  and  C_2
REMARK    2  A    between atoms: C_2  and  O_3
REMARK    3  A    between atoms: C_2  and  C_4
REMARK    4  A    between atoms: C_2  and  C_15
REMARK    5  A    between atoms: C_4  and  N_5
REMARK    6  A    between atoms: C_9  and  C_10
REMARK    7  A    between atoms: C_19  and  C_20
REMARK                            x       y       z     vdW  Elec       q    Type
REMARK                         _______ _______ _______ _____ _____    ______ ____
ROOT
ATOM      1  C   UNL     1      50.329   7.656  16.137  0.00  0.00    +0.000 C 
ATOM      2  C   UNL     1      48.975   6.999  15.840  0.00  0.00    +0.000 C 
ENDROOT
BRANCH   2   3
ATOM      3  C   UNL     1      48.868   5.657  16.569  0.00  0.00    +0.000 A 
ATOM      4  C   UNL     1      47.644   5.002  16.751  0.00  0.00    +0.000 A 
ATOM      5  C   UNL     1      47.593   3.747  17.358  0.00  0.00    +0.000 A 
ATOM      6  C   UNL     1      48.768   3.108  17.756  0.00  0.00    +0.000 A 
ATOM      7  C   UNL     1      50.023   3.707  17.562  0.00  0.00    +0.000 A 
ATOM      8  C   UNL     1      50.039   5.003  17.016  0.00  0.00    +0.000 A 
BRANCH   7   9
ATOM      9  C   UNL     1      51.285   2.963  17.787  0.00  0.00    +0.000 A 
ATOM     10  C   UNL     1      51.378   1.607  17.433  0.00  0.00    +0.000 A 
ATOM     11  C   UNL     1      52.580   0.903  17.524  0.00  0.00    +0.000 A 
ATOM     12  C   UNL     1      53.729   1.549  17.965  0.00  0.00    +0.000 A 
ATOM     13  C   UNL     1      53.667   2.890  18.337  0.00  0.00    +0.000 A 
ATOM     14  C   UNL     1      52.456   3.586  18.258  0.00  0.00    +0.000 A 
ENDBRANCH   7   9
ENDBRANCH   2   3
BRANCH   2  15
ATOM     15  O   UNL     1      47.967   7.913  16.308  0.00  0.00    +0.000 OA
ATOM     16  H   UNL     1      48.079   7.945  17.277  0.00  0.00    +0.000 HD
ENDBRANCH   2  15
BRANCH   2  17
ATOM     17  C   UNL     1      48.754   6.782  14.309  0.00  0.00    +0.000 C 
BRANCH  17  18
ATOM     18  N   UNL     1      47.502   7.415  13.833  0.00  0.00    +0.000 N 
ATOM     19  C   UNL     1      46.560   6.449  13.405  0.00  0.00    +0.000 A 
ATOM     20  C   UNL     1      45.345   6.886  12.888  0.00  0.00    +0.000 A 
ATOM     21  C   UNL     1      44.410   5.949  12.436  0.00  0.00    +0.000 A 
ATOM     22  C   UNL     1      44.704   4.586  12.512  0.00  0.00    +0.000 A 
ATOM     23  C   UNL     1      45.929   4.240  13.055  0.00  0.00    +0.000 A 
ATOM     24  N   UNL     1      46.847   5.136  13.498  0.00  0.00    +0.000 NA
ATOM     25  H   UNL     1      47.670   8.024  13.034  0.00  0.00    +0.000 HD
BRANCH  22  26
ATOM     26  C   UNL     1      43.725   3.595  12.010  0.00  0.00    +0.000 C 
ATOM     27  N   UNL     1      43.835   2.290  12.399  0.00  0.00    +0.000 N 
ATOM     28  O   UNL     1      42.826   3.928  11.247  0.00  0.00    +0.000 OA
ATOM     29  H   UNL     1      44.534   1.911  13.016  0.00  0.00    +0.000 HD
ATOM     30  H   UNL     1      43.148   1.648  12.028  0.00  0.00    +0.000 HD
ENDBRANCH  22  26
ENDBRANCH  17  18
ENDBRANCH   2  17
TORSDOF 6
ENDMDL
MODEL 6
REMARK VINA RESULT:    -6.597      4.370      9.084
REMARK INTER + INTRA:          -9.753
REMARK INTER:                  -8.911
REMARK INTRA:                  -0.842
REMARK UNBOUND:                -1.035
REMARK  Name = 
REMARK  7 active torsions:
REMARK  status: ('A' for Active; 'I' for Inactive)
REMARK    1  A    between atoms: C_1  and  C_2
REMARK    2  A    between atoms: C_2  and  O_3
REMARK    3  A    between atoms: C_2  and  C_4
REMARK    4  A    between atoms: C_2  and  C_15
REMARK    5  A    between atoms: C_4  and  N_5
REMARK    6  A    between atoms: C_9  and  C_10
REMARK    7  A    between atoms: C_19  and  C_20
REMARK                            x       y       z     vdW  Elec       q    Type
REMARK                         _______ _______ _______ _____ _____    ______ ____
ROOT
ATOM      1  C   UNL     1      49.335   8.746  12.763  0.00  0.00    +0.000 C 
ATOM      2  C   UNL     1      48.629   7.462  13.216  0.00  0.00    +0.000 C 
ENDROOT
BRANCH   2   3
ATOM      3  C   UNL     1      47.206   7.415  12.652  0.00  0.00    +0.000 A 
ATOM      4  C   UNL     1      46.347   8.520  12.699  0.00  0.00    +0.000 A 
ATOM      5  C   UNL     1      45.083   8.464  12.112  0.00  0.00    +0.000 A 
ATOM      6  C   UNL     1      44.671   7.315  11.433  0.00  0.00    +0.000 A 
ATOM      7  C   UNL     1      45.510   6.194  11.327  0.00  0.00    +0.000 A 
ATOM      8  C   UNL     1      46.748   6.252  11.991  0.00  0.00    +0.000 A 
BRANCH   7   9
ATOM      9  C   UNL     1      45.175   5.052  10.442  0.00  0.00    +0.000 A 
ATOM     10  C   UNL     1      45.612   5.041   9.108  0.00  0.00    +0.000 A 
ATOM     11  C   UNL     1      45.416   3.936   8.278  0.00  0.00    +0.000 A 
ATOM     12  C   UNL     1      44.780   2.803   8.773  0.00  0.00    +0.000 A 
ATOM     13  C   UNL     1      44.322   2.788  10.088  0.00  0.00    +0.000 A 
ATOM     14  C   UNL     1      44.509   3.905  10.910  0.00  0.00    +0.000 A 
ENDBRANCH   7   9
ENDBRANCH   2   3
BRANCH   2  15
ATOM     15  O   UNL     1      49.412   6.366  12.709  0.00  0.00    +0.000 OA
ATOM     16  H   UNL     1      50.247   6.768  12.401  0.00  0.00    +0.000 HD
ENDBRANCH   2  15
BRANCH   2  17
ATOM     17  C   UNL     1      48.579   7.338  14.772  0.00  0.00    +0.000 C 
BRANCH  17  18
ATOM     18  N   UNL     1      48.170   5.983  15.209  0.00  0.00    +0.000 N 
ATOM     19  C   UNL     1      48.253   5.841  16.615  0.00  0.00    +0.000 A 
ATOM     20  C   UNL     1      47.942   4.609  17.180  0.00  0.00    +0.000 A 
ATOM     21  C   UNL     1      48.040   4.441  18.565  0.00  0.00    +0.000 A 
ATOM     22  C   UNL     1      48.447   5.511  19.365  0.00  0.00    +0.000 A 
ATOM     23  C   UNL     1      48.720   6.704  18.721  0.00  0.00    +0.000 A 
ATOM     24  N   UNL     1      48.630   6.885  17.379  0.00  0.00    +0.000 NA
ATOM     25  H   UNL     1      48.774   5.263  14.813  0.00  0.00    +0.000 HD
BRANCH  22  26
ATOM     26  C   UNL     1      48.576   5.324  20.828  0.00  0.00    +0.000 C 
ATOM     27  N   UNL     1      48.709   6.421  21.632  0.00  0.00    +0.000 N 
ATOM     28  O   UNL     1      48.574   4.204  21.324  0.00  0.00    +0.000 OA
ATOM     29  H   UNL     1      48.728   7.381  21.330  0.00  0.00    +0.000 HD
ATOM     30  H   UNL     1      48.799   6.246  22.624  0.00  0.00    +0.000 HD
ENDBRANCH  22  26
ENDBRANCH  17  18
ENDBRANCH   2  17
TORSDOF 6
ENDMDL
MODEL 7
REMARK VINA RESULT:    -6.364      4.642      8.104
REMARK INTER + INTRA:          -9.445
REMARK INTER:                  -8.227
REMARK INTRA:                  -1.218
REMARK UNBOUND:                -1.035
REMARK  Name = 
REMARK  7 active torsions:
REMARK  status: ('A' for Active; 'I' for Inactive)
REMARK    1  A    between atoms: C_1  and  C_2
REMARK    2  A    between atoms: C_2  and  O_3
REMARK    3  A    between atoms: C_2  and  C_4
REMARK    4  A    between atoms: C_2  and  C_15
REMARK    5  A    between atoms: C_4  and  N_5
REMARK    6  A    between atoms: C_9  and  C_10
REMARK    7  A    between atoms: C_19  and  C_20
REMARK                            x       y       z     vdW  Elec       q    Type
REMARK                         _______ _______ _______ _____ _____    ______ ____
ROOT
ATOM      1  C   UNL     1      48.837   9.956  14.943  0.00  0.00    +0.000 C 
ATOM      2  C   UNL     1      48.853   9.253  13.580  0.00  0.00    +0.000 C 
ENDROOT
BRANCH   2   3
ATOM      3  C   UNL     1      47.439   9.211  12.992  0.00  0.00    +0.000 A 
ATOM      4  C   UNL     1      46.870  10.308  12.334  0.00  0.00    +0.000 A 
ATOM      5  C   UNL     1      45.609  10.211  11.748  0.00  0.00    +0.000 A 
ATOM      6  C   UNL     1      44.910   9.002  11.775  0.00  0.00    +0.000 A 
ATOM      7  C   UNL     1      45.454   7.863  12.390  0.00  0.00    +0.000 A 
ATOM      8  C   UNL     1      46.694   8.010  13.036  0.00  0.00    +0.000 A 
BRANCH   7   9
ATOM      9  C   UNL     1      44.825   6.527  12.249  0.00  0.00    +0.000 A 
ATOM     10  C   UNL     1      45.322   5.433  12.975  0.00  0.00    +0.000 A 
ATOM     11  C   UNL     1      44.689   4.189  12.957  0.00  0.00    +0.000 A 
ATOM     12  C   UNL     1      43.528   4.014  12.213  0.00  0.00    +0.000 A 
ATOM     13  C   UNL     1      43.017   5.076  11.471  0.00  0.00    +0.000 A 
ATOM     14  C   UNL     1      43.665   6.316  11.481  0.00  0.00    +0.000 A 
ENDBRANCH   7   9
ENDBRANCH   2   3
BRANCH   2  15
ATOM     15  O   UNL     1      49.731  10.020  12.736  0.00  0.00    +0.000 OA
ATOM     16  H   UNL     1      49.520  10.955  12.928  0.00  0.00    +0.000 HD
ENDBRANCH   2  15
BRANCH   2  17
ATOM     17  C   UNL     1      49.423   7.803  13.676  0.00  0.00    +0.000 C 
BRANCH  17  18
ATOM     18  N   UNL     1      50.107   7.559  14.967  0.00  0.00    +0.000 N 
ATOM     19  C   UNL     1      49.497   6.506  15.689  0.00  0.00    +0.000 A 
ATOM     20  C   UNL     1      49.997   6.182  16.946  0.00  0.00    +0.000 A 
ATOM     21  C   UNL     1      49.394   5.160  17.687  0.00  0.00    +0.000 A 
ATOM     22  C   UNL     1      48.299   4.476  17.156  0.00  0.00    +0.000 A 
ATOM     23  C   UNL     1      47.878   4.852  15.893  0.00  0.00    +0.000 A 
ATOM     24  N   UNL     1      48.451   5.840  15.162  0.00  0.00    +0.000 NA
ATOM     25  H   UNL     1      50.070   8.379  15.572  0.00  0.00    +0.000 HD
BRANCH  22  26
ATOM     26  C   UNL     1      47.644   3.412  17.952  0.00  0.00    +0.000 C 
ATOM     27  N   UNL     1      48.194   3.036  19.145  0.00  0.00    +0.000 N 
ATOM     28  O   UNL     1      46.626   2.860  17.551  0.00  0.00    +0.000 OA
ATOM     29  H   UNL     1      49.026   3.418  19.563  0.00  0.00    +0.000 HD
ATOM     30  H   UNL     1      47.716   2.302  19.651  0.00  0.00    +0.000 HD
ENDBRANCH  22  26
ENDBRANCH  17  18
ENDBRANCH   2  17
TORSDOF 6
ENDMDL
MODEL 8
REMARK VINA RESULT:    -6.355      4.427      8.014
REMARK INTER + INTRA:          -9.433
REMARK INTER:                  -8.518
REMARK INTRA:                  -0.914
REMARK UNBOUND:                -1.035
REMARK  Name = 
REMARK  7 active torsions:
REMARK  status: ('A' for Active; 'I' for Inactive)
REMARK    1  A    between atoms: C_1  and  C_2
REMARK    2  A    between atoms: C_2  and  O_3
REMARK    3  A    between atoms: C_2  and  C_4
REMARK    4  A    between atoms: C_2  and  C_15
REMARK    5  A    between atoms: C_4  and  N_5
REMARK    6  A    between atoms: C_9  and  C_10
REMARK    7  A    between atoms: C_19  and  C_20
REMARK                            x       y       z     vdW  Elec       q    Type
REMARK                         _______ _______ _______ _____ _____    ______ ____
ROOT
ATOM      1  C   UNL     1      45.523   5.014  11.523  0.00  0.00    +0.000 C 
ATOM      2  C   UNL     1      45.910   5.750  12.812  0.00  0.00    +0.000 C 
ENDROOT
BRANCH   2   3
ATOM      3  C   UNL     1      46.327   7.189  12.493  0.00  0.00    +0.000 A 
ATOM      4  C   UNL     1      45.497   8.284  12.760  0.00  0.00    +0.000 A 
ATOM      5  C   UNL     1      45.938   9.586  12.523  0.00  0.00    +0.000 A 
ATOM      6  C   UNL     1      47.231   9.817  12.052  0.00  0.00    +0.000 A 
ATOM      7  C   UNL     1      48.114   8.754  11.803  0.00  0.00    +0.000 A 
ATOM      8  C   UNL     1      47.619   7.451  11.981  0.00  0.00    +0.000 A 
BRANCH   7   9
ATOM      9  C   UNL     1      49.548   8.987  11.503  0.00  0.00    +0.000 A 
ATOM     10  C   UNL     1      50.442   7.906  11.448  0.00  0.00    +0.000 A 
ATOM     11  C   UNL     1      51.772   8.070  11.058  0.00  0.00    +0.000 A 
ATOM     12  C   UNL     1      52.239   9.330  10.702  0.00  0.00    +0.000 A 
ATOM     13  C   UNL     1      51.380  10.425  10.759  0.00  0.00    +0.000 A 
ATOM     14  C   UNL     1      50.052  10.257  11.166  0.00  0.00    +0.000 A 
ENDBRANCH   7   9
ENDBRANCH   2   3
BRANCH   2  15
ATOM     15  O   UNL     1      44.744   5.735  13.655  0.00  0.00    +0.000 OA
ATOM     16  H   UNL     1      44.479   6.671  13.745  0.00  0.00    +0.000 HD
ENDBRANCH   2  15
BRANCH   2  17
ATOM     17  C   UNL     1      47.064   5.028  13.575  0.00  0.00    +0.000 C 
BRANCH  17  18
ATOM     18  N   UNL     1      46.555   4.171  14.671  0.00  0.00    +0.000 N 
ATOM     19  C   UNL     1      47.347   4.293  15.839  0.00  0.00    +0.000 A 
ATOM     20  C   UNL     1      47.023   3.517  16.947  0.00  0.00    +0.000 A 
ATOM     21  C   UNL     1      47.807   3.604  18.102  0.00  0.00    +0.000 A 
ATOM     22  C   UNL     1      48.903   4.469  18.131  0.00  0.00    +0.000 A 
ATOM     23  C   UNL     1      49.141   5.214  16.990  0.00  0.00    +0.000 A 
ATOM     24  N   UNL     1      48.392   5.143  15.862  0.00  0.00    +0.000 NA
ATOM     25  H   UNL     1      46.573   3.185  14.415  0.00  0.00    +0.000 HD
BRANCH  22  26
ATOM     26  C   UNL     1      49.747   4.542  19.345  0.00  0.00    +0.000 C 
ATOM     27  N   UNL     1      49.194   4.258  20.562  0.00  0.00    +0.000 N 
ATOM     28  O   UNL     1      50.929   4.860  19.274  0.00  0.00    +0.000 OA
ATOM     29  H   UNL     1      48.238   3.992  20.733  0.00  0.00    +0.000 HD
ATOM     30  H   UNL     1      49.806   4.325  21.364  0.00  0.00    +0.000 HD
ENDBRANCH  22  26
ENDBRANCH  17  18
ENDBRANCH   2  17
TORSDOF 6
ENDMDL
MODEL 9
REMARK VINA RESULT:    -6.254      4.669      8.599
REMARK INTER + INTRA:          -9.300
REMARK INTER:                  -8.314
REMARK INTRA:                  -0.986
REMARK UNBOUND:                -1.035
REMARK  Name = 
REMARK  7 active torsions:
REMARK  status: ('A' for Active; 'I' for Inactive)
REMARK    1  A    between atoms: C_1  and  C_2
REMARK    2  A    between atoms: C_2  and  O_3
REMARK    3  A    between atoms: C_2  and  C_4
REMARK    4  A    between atoms: C_2  and  C_15
REMARK    5  A    between atoms: C_4  and  N_5
REMARK    6  A    between atoms: C_9  and  C_10
REMARK    7  A    between atoms: C_19  and  C_20
REMARK                            x       y       z     vdW  Elec       q    Type
REMARK                         _______ _______ _______ _____ _____    ______ ____
ROOT
ATOM      1  C   UNL     1      45.359   5.156  11.340  0.00  0.00    +0.000 C 
ATOM      2  C   UNL     1      45.766   5.719  12.707  0.00  0.00    +0.000 C 
ENDROOT
BRANCH   2   3
ATOM      3  C   UNL     1      46.100   7.209  12.586  0.00  0.00    +0.000 A 
ATOM      4  C   UNL     1      47.389   7.706  12.814  0.00  0.00    +0.000 A 
ATOM      5  C   UNL     1      47.673   9.059  12.625  0.00  0.00    +0.000 A 
ATOM      6  C   UNL     1      46.683   9.930  12.166  0.00  0.00    +0.000 A 
ATOM      7  C   UNL     1      45.385   9.472  11.888  0.00  0.00    +0.000 A 
ATOM      8  C   UNL     1      45.108   8.120  12.158  0.00  0.00    +0.000 A 
BRANCH   7   9
ATOM      9  C   UNL     1      44.385  10.331  11.208  0.00  0.00    +0.000 A 
ATOM     10  C   UNL     1      43.216   9.767  10.673  0.00  0.00    +0.000 A 
ATOM     11  C   UNL     1      42.201  10.554  10.129  0.00  0.00    +0.000 A 
ATOM     12  C   UNL     1      42.330  11.938  10.116  0.00  0.00    +0.000 A 
ATOM     13  C   UNL     1      43.483  12.529  10.627  0.00  0.00    +0.000 A 
ATOM     14  C   UNL     1      44.504  11.733  11.157  0.00  0.00    +0.000 A 
ENDBRANCH   7   9
ENDBRANCH   2   3
BRANCH   2  15
ATOM     15  O   UNL     1      44.641   5.521  13.582  0.00  0.00    +0.000 OA
ATOM     16  H   UNL     1      43.853   5.620  13.014  0.00  0.00    +0.000 HD
ENDBRANCH   2  15
BRANCH   2  17
ATOM     17  C   UNL     1      46.987   4.957  13.313  0.00  0.00    +0.000 C 
BRANCH  17  18
ATOM     18  N   UNL     1      46.588   4.065  14.428  0.00  0.00    +0.000 N 
ATOM     19  C   UNL     1      47.321   4.343  15.606  0.00  0.00    +0.000 A 
ATOM     20  C   UNL     1      47.093   3.560  16.733  0.00  0.00    +0.000 A 
ATOM     21  C   UNL     1      47.824   3.802  17.900  0.00  0.00    +0.000 A 
ATOM     22  C   UNL     1      48.772   4.826  17.923  0.00  0.00    +0.000 A 
ATOM     23  C   UNL     1      48.923   5.565  16.763  0.00  0.00    +0.000 A 
ATOM     24  N   UNL     1      48.222   5.344  15.622  0.00  0.00    +0.000 NA
ATOM     25  H   UNL     1      46.764   3.087  14.205  0.00  0.00    +0.000 HD
BRANCH  22  26
ATOM     26  C   UNL     1      49.565   5.065  19.151  0.00  0.00    +0.000 C 
ATOM     27  N   UNL     1      49.314   4.312  20.264  0.00  0.00    +0.000 N 
ATOM     28  O   UNL     1      50.432   5.930  19.185  0.00  0.00    +0.000 OA
ATOM     29  H   UNL     1      48.626   3.583  20.346  0.00  0.00    +0.000 HD
ATOM     30  H   UNL     1      49.876   4.513  21.081  0.00  0.00    +0.000 HD
ENDBRANCH  22  26
ENDBRANCH  17  18
ENDBRANCH   2  17
TORSDOF 6
ENDMDL
