MODEL 1
REMARK VINA RESULT:    -8.464      0.000      0.000
REMARK INTER + INTRA:         -14.983
REMARK INTER:                 -13.413
REMARK INTRA:                  -1.570
REMARK UNBOUND:                -1.570
REMARK  Name = 
REMARK  10 active torsions:
REMARK  status: ('A' for Active; 'I' for Inactive)
REMARK    1  A    between atoms: C_2  and  C_4
REMARK    2  A    between atoms: C_4  and  C_5
REMARK    3  A    between atoms: C_5  and  N_6
REMARK    4  A    between atoms: N_6  and  C_7
REMARK    5  A    between atoms: N_6  and  C_14
REMARK    6  A    between atoms: C_7  and  C_8
REMARK    7  A    between atoms: C_14  and  C_15
REMARK    8  A    between atoms: C_18  and  C_19
REMARK    9  A    between atoms: C_19  and  N_20
REMARK   10  A    between atoms: C_21  and  C_23
REMARK                            x       y       z     vdW  Elec       q    Type
REMARK                         _______ _______ _______ _____ _____    ______ ____
ROOT
ATOM      1  C   UNL     1      44.892   6.057  10.956  0.00  0.00    +0.000 A 
ATOM      2  C   UNL     1      44.314   7.008  11.808  0.00  0.00    +0.000 A 
ATOM      3  C   UNL     1      45.112   7.782  12.654  0.00  0.00    +0.000 A 
ATOM      4  C   UNL     1      46.503   7.618  12.665  0.00  0.00    +0.000 A 
ATOM      5  C   UNL     1      47.078   6.659  11.823  0.00  0.00    +0.000 A 
ATOM      6  C   UNL     1      46.282   5.890  10.972  0.00  0.00    +0.000 A 
ENDROOT
BRANCH   1   7
ATOM      7  C   UNL     1      44.031   5.160  10.090  0.00  0.00    +0.000 C 
BRANCH   7   8
ATOM      8  N   UNL     1      44.710   3.927   9.620  0.00  0.00    +0.000 NA
BRANCH   8   9
ATOM      9  C   UNL     1      44.054   2.733  10.216  0.00  0.00    +0.000 C 
BRANCH   9  10
ATOM     10  C   UNL     1      43.325   2.938  11.551  0.00  0.00    +0.000 C 
BRANCH  10  12
ATOM     11  N   UNL     1      45.485   2.812  12.690  0.00  0.00    +0.000 N 
ATOM     12  C   UNL     1      44.208   3.274  12.736  0.00  0.00    +0.000 C 
ATOM     13  O   UNL     1      43.783   3.846  13.736  0.00  0.00    +0.000 OA
ATOM     14  H   UNL     1      46.116   3.050  13.442  0.00  0.00    +0.000 HD
ATOM     15  H   UNL     1      45.862   2.475  11.806  0.00  0.00    +0.000 HD
ENDBRANCH  10  12
ENDBRANCH   9  10
ENDBRANCH   8   9
BRANCH   8  16
ATOM     16  C   UNL     1      44.695   3.878   8.135  0.00  0.00    +0.000 C 
BRANCH  16  17
ATOM     17  C   UNL     1      45.764   2.965   7.561  0.00  0.00    +0.000 A 
ATOM     18  C   UNL     1      45.989   1.688   8.102  0.00  0.00    +0.000 A 
ATOM     19  C   UNL     1      47.045   0.900   7.645  0.00  0.00    +0.000 A 
ATOM     20  C   UNL     1      47.876   1.367   6.628  0.00  0.00    +0.000 A 
ATOM     21  C   UNL     1      47.642   2.617   6.058  0.00  0.00    +0.000 A 
ATOM     22  C   UNL     1      46.591   3.412   6.519  0.00  0.00    +0.000 A 
ENDBRANCH  16  17
ENDBRANCH   8  16
ENDBRANCH   7   8
ENDBRANCH   1   7
BRANCH   4  23
ATOM     23  C   UNL     1      47.367   8.413  13.607  0.00  0.00    +0.000 C 
BRANCH  23  24
ATOM     24  N   UNL     1      47.677   7.651  14.792  0.00  0.00    +0.000 N 
ATOM     25  C   UNL     1      48.857   6.964  14.905  0.00  0.00    +0.000 C 
ATOM     26  O   UNL     1      49.716   6.997  14.027  0.00  0.00    +0.000 OA
ATOM     27  H   UNL     1      46.907   7.434  15.417  0.00  0.00    +0.000 HD
BRANCH  25  28
ATOM     28  C   UNL     1      49.073   6.232  16.159  0.00  0.00    +0.000 A 
ATOM     29  C   UNL     1      50.057   6.657  17.041  0.00  0.00    +0.000 A 
ATOM     30  S   UNL     1      50.144   5.727  18.468  0.00  0.00    +0.000 S 
ATOM     31  C   UNL     1      48.904   4.693  17.933  0.00  0.00    +0.000 A 
ATOM     32  N   UNL     1      48.496   3.640  18.693  0.00  0.00    +0.000 NA
ATOM     33  C   UNL     1      47.569   2.923  18.153  0.00  0.00    +0.000 A 
ATOM     34  N   UNL     1      47.004   3.163  16.931  0.00  0.00    +0.000 N 
ATOM     35  C   UNL     1      47.366   4.231  16.138  0.00  0.00    +0.000 A 
ATOM     36  O   UNL     1      46.811   4.444  15.064  0.00  0.00    +0.000 OA
ATOM     37  C   UNL     1      48.414   5.064  16.693  0.00  0.00    +0.000 A 
ATOM     38  H   UNL     1      46.275   2.571  16.568  0.00  0.00    +0.000 HD
ENDBRANCH  25  28
ENDBRANCH  23  24
ENDBRANCH   4  23
TORSDOF 10
ENDMDL
MODEL 2
REMARK VINA RESULT:    -8.220      1.921      2.509
REMARK INTER + INTRA:         -14.595
REMARK INTER:                 -12.696
REMARK INTRA:                  -1.899
REMARK UNBOUND:                -1.570
REMARK  Name = 
REMARK  10 active torsions:
REMARK  status: ('A' for Active; 'I' for Inactive)
REMARK    1  A    between atoms: C_2  and  C_4
REMARK    2  A    between atoms: C_4  and  C_5
REMARK    3  A    between atoms: C_5  and  N_6
REMARK    4  A    between atoms: N_6  and  C_7
REMARK    5  A    between atoms: N_6  and  C_14
REMARK    6  A    between atoms: C_7  and  C_8
REMARK    7  A    between atoms: C_14  and  C_15
REMARK    8  A    between atoms: C_18  and  C_19
REMARK    9  A    between atoms: C_19  and  N_20
REMARK   10  A    between atoms: C_21  and  C_23
REMARK                            x       y       z     vdW  Elec       q    Type
REMARK                         _______ _______ _______ _____ _____    ______ ____
ROOT
ATOM      1  C   UNL     1      46.475   6.564  11.754  0.00  0.00    +0.000 A 
ATOM      2  C   UNL     1      47.235   5.692  12.546  0.00  0.00    +0.000 A 
ATOM      3  C   UNL     1      47.833   6.143  13.725  0.00  0.00    +0.000 A 
ATOM      4  C   UNL     1      47.684   7.474  14.133  0.00  0.00    +0.000 A 
ATOM      5  C   UNL     1      46.935   8.347  13.335  0.00  0.00    +0.000 A 
ATOM      6  C   UNL     1      46.331   7.896  12.160  0.00  0.00    +0.000 A 
ENDROOT
BRANCH   1   7
ATOM      7  C   UNL     1      45.885   6.106  10.436  0.00  0.00    +0.000 C 
BRANCH   7   8
ATOM      8  N   UNL     1      44.906   4.996  10.555  0.00  0.00    +0.000 NA
BRANCH   8   9
ATOM      9  C   UNL     1      43.761   5.426  11.401  0.00  0.00    +0.000 C 
BRANCH   9  10
ATOM     10  C   UNL     1      43.224   4.404  12.412  0.00  0.00    +0.000 C 
BRANCH  10  12
ATOM     11  N   UNL     1      44.958   2.683  12.529  0.00  0.00    +0.000 N 
ATOM     12  C   UNL     1      43.671   2.972  12.199  0.00  0.00    +0.000 C 
ATOM     13  O   UNL     1      42.956   2.128  11.666  0.00  0.00    +0.000 OA
ATOM     14  H   UNL     1      45.281   1.731  12.440  0.00  0.00    +0.000 HD
ATOM     15  H   UNL     1      45.486   3.341  13.100  0.00  0.00    +0.000 HD
ENDBRANCH  10  12
ENDBRANCH   9  10
ENDBRANCH   8   9
BRANCH   8  16
ATOM     16  C   UNL     1      44.461   4.569   9.204  0.00  0.00    +0.000 C 
BRANCH  16  17
ATOM     17  C   UNL     1      45.405   3.569   8.558  0.00  0.00    +0.000 A 
ATOM     18  C   UNL     1      46.322   3.973   7.575  0.00  0.00    +0.000 A 
ATOM     19  C   UNL     1      47.106   3.033   6.906  0.00  0.00    +0.000 A 
ATOM     20  C   UNL     1      47.000   1.681   7.227  0.00  0.00    +0.000 A 
ATOM     21  C   UNL     1      46.120   1.270   8.225  0.00  0.00    +0.000 A 
ATOM     22  C   UNL     1      45.327   2.207   8.891  0.00  0.00    +0.000 A 
ENDBRANCH  16  17
ENDBRANCH   8  16
ENDBRANCH   7   8
ENDBRANCH   1   7
BRANCH   4  23
ATOM     23  C   UNL     1      48.364   7.982  15.377  0.00  0.00    +0.000 C 
BRANCH  23  24
ATOM     24  N   UNL     1      49.401   7.076  15.806  0.00  0.00    +0.000 N 
ATOM     25  C   UNL     1      49.315   6.414  17.001  0.00  0.00    +0.000 C 
ATOM     26  O   UNL     1      48.338   6.528  17.739  0.00  0.00    +0.000 OA
ATOM     27  H   UNL     1      50.295   7.138  15.329  0.00  0.00    +0.000 HD
BRANCH  25  28
ATOM     28  C   UNL     1      50.421   5.508  17.333  0.00  0.00    +0.000 A 
ATOM     29  C   UNL     1      51.629   6.032  17.770  0.00  0.00    +0.000 A 
ATOM     30  S   UNL     1      52.790   4.845  18.157  0.00  0.00    +0.000 S 
ATOM     31  C   UNL     1      51.735   3.590  17.703  0.00  0.00    +0.000 A 
ATOM     32  N   UNL     1      52.129   2.288  17.770  0.00  0.00    +0.000 NA
ATOM     33  C   UNL     1      51.239   1.444  17.367  0.00  0.00    +0.000 A 
ATOM     34  N   UNL     1      49.992   1.776  16.914  0.00  0.00    +0.000 N 
ATOM     35  C   UNL     1      49.541   3.077  16.853  0.00  0.00    +0.000 A 
ATOM     36  O   UNL     1      48.402   3.339  16.480  0.00  0.00    +0.000 OA
ATOM     37  C   UNL     1      50.507   4.069  17.283  0.00  0.00    +0.000 A 
ATOM     38  H   UNL     1      49.338   1.067  16.623  0.00  0.00    +0.000 HD
ENDBRANCH  25  28
ENDBRANCH  23  24
ENDBRANCH   4  23
TORSDOF 10
ENDMDL
MODEL 3
REMARK VINA RESULT:    -7.971      1.911      2.662
REMARK INTER + INTRA:         -14.202
REMARK INTER:                 -12.275
REMARK INTRA:                  -1.927
REMARK UNBOUND:                -1.570
REMARK  Name = 
REMARK  10 active torsions:
REMARK  status: ('A' for Active; 'I' for Inactive)
REMARK    1  A    between atoms: C_2  and  C_4
REMARK    2  A    between atoms: C_4  and  C_5
REMARK    3  A    between atoms: C_5  and  N_6
REMARK    4  A    between atoms: N_6  and  C_7
REMARK    5  A    between atoms: N_6  and  C_14
REMARK    6  A    between atoms: C_7  and  C_8
REMARK    7  A    between atoms: C_14  and  C_15
REMARK    8  A    between atoms: C_18  and  C_19
REMARK    9  A    between atoms: C_19  and  N_20
REMARK   10  A    between atoms: C_21  and  C_23
REMARK                            x       y       z     vdW  Elec       q    Type
REMARK                         _______ _______ _______ _____ _____    ______ ____
ROOT
ATOM      1  C   UNL     1      46.236   6.538  11.413  0.00  0.00    +0.000 A 
ATOM      2  C   UNL     1      47.039   5.680  12.177  0.00  0.00    +0.000 A 
ATOM      3  C   UNL     1      47.680   6.145  13.328  0.00  0.00    +0.000 A 
ATOM      4  C   UNL     1      47.531   7.476  13.735  0.00  0.00    +0.000 A 
ATOM      5  C   UNL     1      46.739   8.336  12.965  0.00  0.00    +0.000 A 
ATOM      6  C   UNL     1      46.092   7.870  11.818  0.00  0.00    +0.000 A 
ENDROOT
BRANCH   1   7
ATOM      7  C   UNL     1      45.597   6.065  10.123  0.00  0.00    +0.000 C 
BRANCH   7   8
ATOM      8  N   UNL     1      44.713   4.882  10.274  0.00  0.00    +0.000 NA
BRANCH   8   9
ATOM      9  C   UNL     1      43.503   5.255  11.054  0.00  0.00    +0.000 C 
BRANCH   9  10
ATOM     10  C   UNL     1      43.149   4.364  12.253  0.00  0.00    +0.000 C 
BRANCH  10  12
ATOM     11  N   UNL     1      44.920   2.698  12.513  0.00  0.00    +0.000 N 
ATOM     12  C   UNL     1      43.626   2.928  12.167  0.00  0.00    +0.000 C 
ATOM     13  O   UNL     1      42.926   2.025  11.720  0.00  0.00    +0.000 OA
ATOM     14  H   UNL     1      45.263   1.749  12.508  0.00  0.00    +0.000 HD
ATOM     15  H   UNL     1      45.437   3.417  13.017  0.00  0.00    +0.000 HD
ENDBRANCH  10  12
ENDBRANCH   9  10
ENDBRANCH   8   9
BRANCH   8  16
ATOM     16  C   UNL     1      44.361   4.342   8.936  0.00  0.00    +0.000 C 
BRANCH  16  17
ATOM     17  C   UNL     1      45.407   3.389   8.386  0.00  0.00    +0.000 A 
ATOM     18  C   UNL     1      46.362   3.827   7.454  0.00  0.00    +0.000 A 
ATOM     19  C   UNL     1      47.249   2.922   6.869  0.00  0.00    +0.000 A 
ATOM     20  C   UNL     1      47.207   1.575   7.223  0.00  0.00    +0.000 A 
ATOM     21  C   UNL     1      46.288   1.134   8.173  0.00  0.00    +0.000 A 
ATOM     22  C   UNL     1      45.394   2.035   8.755  0.00  0.00    +0.000 A 
ENDBRANCH  16  17
ENDBRANCH   8  16
ENDBRANCH   7   8
ENDBRANCH   1   7
BRANCH   4  23
ATOM     23  C   UNL     1      48.256   8.000  14.947  0.00  0.00    +0.000 C 
BRANCH  23  24
ATOM     24  N   UNL     1      48.151   7.078  16.051  0.00  0.00    +0.000 N 
ATOM     25  C   UNL     1      49.203   6.279  16.411  0.00  0.00    +0.000 C 
ATOM     26  O   UNL     1      50.291   6.340  15.841  0.00  0.00    +0.000 OA
ATOM     27  H   UNL     1      47.216   6.858  16.382  0.00  0.00    +0.000 HD
BRANCH  25  28
ATOM     28  C   UNL     1      48.989   5.387  17.557  0.00  0.00    +0.000 A 
ATOM     29  C   UNL     1      48.931   4.015  17.357  0.00  0.00    +0.000 A 
ATOM     30  S   UNL     1      48.725   3.122  18.795  0.00  0.00    +0.000 S 
ATOM     31  C   UNL     1      48.655   4.542  19.729  0.00  0.00    +0.000 A 
ATOM     32  N   UNL     1      48.464   4.483  21.075  0.00  0.00    +0.000 NA
ATOM     33  C   UNL     1      48.402   5.636  21.653  0.00  0.00    +0.000 A 
ATOM     34  N   UNL     1      48.522   6.840  21.015  0.00  0.00    +0.000 N 
ATOM     35  C   UNL     1      48.742   6.948  19.659  0.00  0.00    +0.000 A 
ATOM     36  O   UNL     1      48.886   8.042  19.122  0.00  0.00    +0.000 OA
ATOM     37  C   UNL     1      48.808   5.681  18.958  0.00  0.00    +0.000 A 
ATOM     38  H   UNL     1      48.475   7.706  21.526  0.00  0.00    +0.000 HD
ENDBRANCH  25  28
ENDBRANCH  23  24
ENDBRANCH   4  23
TORSDOF 10
ENDMDL
MODEL 4
REMARK VINA RESULT:    -7.892      1.667      2.359
REMARK INTER + INTRA:         -14.075
REMARK INTER:                 -11.589
REMARK INTRA:                  -2.486
REMARK UNBOUND:                -1.570
REMARK  Name = 
REMARK  10 active torsions:
REMARK  status: ('A' for Active; 'I' for Inactive)
REMARK    1  A    between atoms: C_2  and  C_4
REMARK    2  A    between atoms: C_4  and  C_5
REMARK    3  A    between atoms: C_5  and  N_6
REMARK    4  A    between atoms: N_6  and  C_7
REMARK    5  A    between atoms: N_6  and  C_14
REMARK    6  A    between atoms: C_7  and  C_8
REMARK    7  A    between atoms: C_14  and  C_15
REMARK    8  A    between atoms: C_18  and  C_19
REMARK    9  A    between atoms: C_19  and  N_20
REMARK   10  A    between atoms: C_21  and  C_23
REMARK                            x       y       z     vdW  Elec       q    Type
REMARK                         _______ _______ _______ _____ _____    ______ ____
ROOT
ATOM      1  C   UNL     1      45.901   6.969  11.637  0.00  0.00    +0.000 A 
ATOM      2  C   UNL     1      47.275   6.749  11.468  0.00  0.00    +0.000 A 
ATOM      3  C   UNL     1      48.208   7.467  12.220  0.00  0.00    +0.000 A 
ATOM      4  C   UNL     1      47.785   8.420  13.154  0.00  0.00    +0.000 A 
ATOM      5  C   UNL     1      46.412   8.649  13.314  0.00  0.00    +0.000 A 
ATOM      6  C   UNL     1      45.479   7.926  12.568  0.00  0.00    +0.000 A 
ENDROOT
BRANCH   1   7
ATOM      7  C   UNL     1      44.884   6.251  10.775  0.00  0.00    +0.000 C 
BRANCH   7   8
ATOM      8  N   UNL     1      45.116   4.791  10.640  0.00  0.00    +0.000 NA
BRANCH   8   9
ATOM      9  C   UNL     1      44.537   4.080  11.811  0.00  0.00    +0.000 C 
BRANCH   9  10
ATOM     10  C   UNL     1      45.461   3.108  12.557  0.00  0.00    +0.000 C 
BRANCH  10  12
ATOM     11  N   UNL     1      45.944   4.721  14.330  0.00  0.00    +0.000 N 
ATOM     12  C   UNL     1      46.438   3.743  13.525  0.00  0.00    +0.000 C 
ATOM     13  O   UNL     1      47.635   3.473  13.530  0.00  0.00    +0.000 OA
ATOM     14  H   UNL     1      46.554   5.140  15.017  0.00  0.00    +0.000 HD
ATOM     15  H   UNL     1      44.935   4.830  14.421  0.00  0.00    +0.000 HD
ENDBRANCH  10  12
ENDBRANCH   9  10
ENDBRANCH   8   9
BRANCH   8  16
ATOM     16  C   UNL     1      44.539   4.305   9.361  0.00  0.00    +0.000 C 
BRANCH  16  17
ATOM     17  C   UNL     1      45.486   3.405   8.587  0.00  0.00    +0.000 A 
ATOM     18  C   UNL     1      46.305   3.924   7.571  0.00  0.00    +0.000 A 
ATOM     19  C   UNL     1      47.089   3.076   6.789  0.00  0.00    +0.000 A 
ATOM     20  C   UNL     1      47.081   1.703   7.026  0.00  0.00    +0.000 A 
ATOM     21  C   UNL     1      46.301   1.178   8.054  0.00  0.00    +0.000 A 
ATOM     22  C   UNL     1      45.509   2.024   8.833  0.00  0.00    +0.000 A 
ENDBRANCH  16  17
ENDBRANCH   8  16
ENDBRANCH   7   8
ENDBRANCH   1   7
BRANCH   4  23
ATOM     23  C   UNL     1      48.783   9.234  13.934  0.00  0.00    +0.000 C 
BRANCH  23  24
ATOM     24  N   UNL     1      49.221   8.524  15.111  0.00  0.00    +0.000 N 
ATOM     25  C   UNL     1      48.694   8.801  16.344  0.00  0.00    +0.000 C 
ATOM     26  O   UNL     1      47.801   9.632  16.498  0.00  0.00    +0.000 OA
ATOM     27  H   UNL     1      50.092   8.007  15.041  0.00  0.00    +0.000 HD
BRANCH  25  28
ATOM     28  C   UNL     1      49.206   8.011  17.470  0.00  0.00    +0.000 A 
ATOM     29  C   UNL     1      49.718   8.657  18.586  0.00  0.00    +0.000 A 
ATOM     30  S   UNL     1      50.225   7.594  19.819  0.00  0.00    +0.000 S 
ATOM     31  C   UNL     1      49.824   6.232  18.883  0.00  0.00    +0.000 A 
ATOM     32  N   UNL     1      50.037   4.973  19.356  0.00  0.00    +0.000 NA
ATOM     33  C   UNL     1      49.715   4.035  18.529  0.00  0.00    +0.000 A 
ATOM     34  N   UNL     1      49.193   4.235  17.281  0.00  0.00    +0.000 N 
ATOM     35  C   UNL     1      48.937   5.489  16.771  0.00  0.00    +0.000 A 
ATOM     36  O   UNL     1      48.429   5.635  15.663  0.00  0.00    +0.000 OA
ATOM     37  C   UNL     1      49.292   6.582  17.655  0.00  0.00    +0.000 A 
ATOM     38  H   UNL     1      48.952   3.459  16.687  0.00  0.00    +0.000 HD
ENDBRANCH  25  28
ENDBRANCH  23  24
ENDBRANCH   4  23
TORSDOF 10
ENDMDL
MODEL 5
REMARK VINA RESULT:    -7.242      3.204      9.053
REMARK INTER + INTRA:         -13.045
REMARK INTER:                 -11.188
REMARK INTRA:                  -1.857
REMARK UNBOUND:                -1.570
REMARK  Name = 
REMARK  10 active torsions:
REMARK  status: ('A' for Active; 'I' for Inactive)
REMARK    1  A    between atoms: C_2  and  C_4
REMARK    2  A    between atoms: C_4  and  C_5
REMARK    3  A    between atoms: C_5  and  N_6
REMARK    4  A    between atoms: N_6  and  C_7
REMARK    5  A    between atoms: N_6  and  C_14
REMARK    6  A    between atoms: C_7  and  C_8
REMARK    7  A    between atoms: C_14  and  C_15
REMARK    8  A    between atoms: C_18  and  C_19
REMARK    9  A    between atoms: C_19  and  N_20
REMARK   10  A    between atoms: C_21  and  C_23
REMARK                            x       y       z     vdW  Elec       q    Type
REMARK                         _______ _______ _______ _____ _____    ______ ____
ROOT
ATOM      1  C   UNL     1      49.803   6.487  16.202  0.00  0.00    +0.000 A 
ATOM      2  C   UNL     1      50.590   7.329  15.405  0.00  0.00    +0.000 A 
ATOM      3  C   UNL     1      50.127   7.771  14.163  0.00  0.00    +0.000 A 
ATOM      4  C   UNL     1      48.867   7.376  13.695  0.00  0.00    +0.000 A 
ATOM      5  C   UNL     1      48.086   6.525  14.486  0.00  0.00    +0.000 A 
ATOM      6  C   UNL     1      48.546   6.090  15.730  0.00  0.00    +0.000 A 
ENDROOT
BRANCH   1   7
ATOM      7  C   UNL     1      50.326   5.943  17.515  0.00  0.00    +0.000 C 
BRANCH   7   8
ATOM      8  N   UNL     1      49.279   5.696  18.538  0.00  0.00    +0.000 NA
BRANCH   8   9
ATOM      9  C   UNL     1      49.198   4.241  18.834  0.00  0.00    +0.000 C 
BRANCH   9  10
ATOM     10  C   UNL     1      49.807   3.288  17.797  0.00  0.00    +0.000 C 
BRANCH  10  12
ATOM     11  N   UNL     1      47.503   2.859  17.100  0.00  0.00    +0.000 N 
ATOM     12  C   UNL     1      48.819   2.612  16.867  0.00  0.00    +0.000 C 
ATOM     13  O   UNL     1      49.164   1.807  16.007  0.00  0.00    +0.000 OA
ATOM     14  H   UNL     1      46.816   2.460  16.477  0.00  0.00    +0.000 HD
ATOM     15  H   UNL     1      47.240   3.633  17.708  0.00  0.00    +0.000 HD
ENDBRANCH  10  12
ENDBRANCH   9  10
ENDBRANCH   8   9
BRANCH   8  16
ATOM     16  C   UNL     1      49.569   6.491  19.758  0.00  0.00    +0.000 C 
BRANCH  16  17
ATOM     17  C   UNL     1      48.543   7.581  20.014  0.00  0.00    +0.000 A 
ATOM     18  C   UNL     1      48.197   8.496  19.007  0.00  0.00    +0.000 A 
ATOM     19  C   UNL     1      47.339   9.562  19.280  0.00  0.00    +0.000 A 
ATOM     20  C   UNL     1      46.800   9.714  20.556  0.00  0.00    +0.000 A 
ATOM     21  C   UNL     1      47.107   8.793  21.555  0.00  0.00    +0.000 A 
ATOM     22  C   UNL     1      47.971   7.729  21.287  0.00  0.00    +0.000 A 
ENDBRANCH  16  17
ENDBRANCH   8  16
ENDBRANCH   7   8
ENDBRANCH   1   7
BRANCH   4  23
ATOM     23  C   UNL     1      48.378   7.807  12.337  0.00  0.00    +0.000 C 
BRANCH  23  24
ATOM     24  N   UNL     1      47.645   6.746  11.691  0.00  0.00    +0.000 N 
ATOM     25  C   UNL     1      46.288   6.823  11.522  0.00  0.00    +0.000 C 
ATOM     26  O   UNL     1      45.644   7.809  11.872  0.00  0.00    +0.000 OA
ATOM     27  H   UNL     1      48.113   5.850  11.599  0.00  0.00    +0.000 HD
BRANCH  25  28
ATOM     28  C   UNL     1      45.646   5.692  10.841  0.00  0.00    +0.000 A 
ATOM     29  C   UNL     1      45.760   5.566   9.464  0.00  0.00    +0.000 A 
ATOM     30  S   UNL     1      44.997   4.174   8.840  0.00  0.00    +0.000 S 
ATOM     31  C   UNL     1      44.444   3.721  10.384  0.00  0.00    +0.000 A 
ATOM     32  N   UNL     1      43.687   2.601  10.553  0.00  0.00    +0.000 NA
ATOM     33  C   UNL     1      43.312   2.394  11.771  0.00  0.00    +0.000 A 
ATOM     34  N   UNL     1      43.630   3.192  12.835  0.00  0.00    +0.000 N 
ATOM     35  C   UNL     1      44.414   4.319  12.716  0.00  0.00    +0.000 A 
ATOM     36  O   UNL     1      44.716   4.991  13.697  0.00  0.00    +0.000 OA
ATOM     37  C   UNL     1      44.853   4.606  11.365  0.00  0.00    +0.000 A 
ATOM     38  H   UNL     1      43.315   2.969  13.765  0.00  0.00    +0.000 HD
ENDBRANCH  25  28
ENDBRANCH  23  24
ENDBRANCH   4  23
TORSDOF 10
ENDMDL
MODEL 6
REMARK VINA RESULT:    -7.095      3.663      8.789
REMARK INTER + INTRA:         -12.813
REMARK INTER:                  -9.804
REMARK INTRA:                  -3.008
REMARK UNBOUND:                -1.570
REMARK  Name = 
REMARK  10 active torsions:
REMARK  status: ('A' for Active; 'I' for Inactive)
REMARK    1  A    between atoms: C_2  and  C_4
REMARK    2  A    between atoms: C_4  and  C_5
REMARK    3  A    between atoms: C_5  and  N_6
REMARK    4  A    between atoms: N_6  and  C_7
REMARK    5  A    between atoms: N_6  and  C_14
REMARK    6  A    between atoms: C_7  and  C_8
REMARK    7  A    between atoms: C_14  and  C_15
REMARK    8  A    between atoms: C_18  and  C_19
REMARK    9  A    between atoms: C_19  and  N_20
REMARK   10  A    between atoms: C_21  and  C_23
REMARK                            x       y       z     vdW  Elec       q    Type
REMARK                         _______ _______ _______ _____ _____    ______ ____
ROOT
ATOM      1  C   UNL     1      49.922   7.179  18.535  0.00  0.00    +0.000 A 
ATOM      2  C   UNL     1      50.533   6.660  17.386  0.00  0.00    +0.000 A 
ATOM      3  C   UNL     1      50.104   7.048  16.114  0.00  0.00    +0.000 A 
ATOM      4  C   UNL     1      49.053   7.963  15.969  0.00  0.00    +0.000 A 
ATOM      5  C   UNL     1      48.434   8.472  17.117  0.00  0.00    +0.000 A 
ATOM      6  C   UNL     1      48.868   8.090  18.388  0.00  0.00    +0.000 A 
ENDROOT
BRANCH   1   7
ATOM      7  C   UNL     1      50.328   6.708  19.916  0.00  0.00    +0.000 C 
BRANCH   7   8
ATOM      8  N   UNL     1      50.408   5.233  20.061  0.00  0.00    +0.000 NA
BRANCH   8   9
ATOM      9  C   UNL     1      51.198   4.889  21.274  0.00  0.00    +0.000 C 
BRANCH   9  10
ATOM     10  C   UNL     1      52.610   4.334  21.046  0.00  0.00    +0.000 C 
BRANCH  10  12
ATOM     11  N   UNL     1      52.710   2.824  19.125  0.00  0.00    +0.000 N 
ATOM     12  C   UNL     1      52.986   4.067  19.603  0.00  0.00    +0.000 C 
ATOM     13  O   UNL     1      53.594   4.882  18.916  0.00  0.00    +0.000 OA
ATOM     14  H   UNL     1      52.908   2.621  18.156  0.00  0.00    +0.000 HD
ATOM     15  H   UNL     1      52.081   2.217  19.647  0.00  0.00    +0.000 HD
ENDBRANCH  10  12
ENDBRANCH   9  10
ENDBRANCH   8   9
BRANCH   8  16
ATOM     16  C   UNL     1      49.040   4.658  20.116  0.00  0.00    +0.000 C 
BRANCH  16  17
ATOM     17  C   UNL     1      48.582   4.090  18.783  0.00  0.00    +0.000 A 
ATOM     18  C   UNL     1      49.302   3.064  18.151  0.00  0.00    +0.000 A 
ATOM     19  C   UNL     1      48.942   2.625  16.877  0.00  0.00    +0.000 A 
ATOM     20  C   UNL     1      47.845   3.190  16.229  0.00  0.00    +0.000 A 
ATOM     21  C   UNL     1      47.100   4.184  16.859  0.00  0.00    +0.000 A 
ATOM     22  C   UNL     1      47.463   4.631  18.131  0.00  0.00    +0.000 A 
ENDBRANCH  16  17
ENDBRANCH   8  16
ENDBRANCH   7   8
ENDBRANCH   1   7
BRANCH   4  23
ATOM     23  C   UNL     1      48.551   8.352  14.604  0.00  0.00    +0.000 C 
BRANCH  23  24
ATOM     24  N   UNL     1      47.498   7.468  14.169  0.00  0.00    +0.000 N 
ATOM     25  C   UNL     1      47.747   6.444  13.294  0.00  0.00    +0.000 C 
ATOM     26  O   UNL     1      48.877   6.207  12.875  0.00  0.00    +0.000 OA
ATOM     27  H   UNL     1      46.543   7.776  14.324  0.00  0.00    +0.000 HD
BRANCH  25  28
ATOM     28  C   UNL     1      46.603   5.600  12.928  0.00  0.00    +0.000 A 
ATOM     29  C   UNL     1      46.662   4.231  13.150  0.00  0.00    +0.000 A 
ATOM     30  S   UNL     1      45.234   3.406  12.713  0.00  0.00    +0.000 S 
ATOM     31  C   UNL     1      44.509   4.843  12.165  0.00  0.00    +0.000 A 
ATOM     32  N   UNL     1      43.256   4.833  11.631  0.00  0.00    +0.000 NA
ATOM     33  C   UNL     1      42.841   5.988  11.230  0.00  0.00    +0.000 A 
ATOM     34  N   UNL     1      43.554   7.151  11.319  0.00  0.00    +0.000 N 
ATOM     35  C   UNL     1      44.814   7.214  11.874  0.00  0.00    +0.000 A 
ATOM     36  O   UNL     1      45.412   8.281  11.977  0.00  0.00    +0.000 OA
ATOM     37  C   UNL     1      45.334   5.941  12.332  0.00  0.00    +0.000 A 
ATOM     38  H   UNL     1      43.169   8.024  10.996  0.00  0.00    +0.000 HD
ENDBRANCH  25  28
ENDBRANCH  23  24
ENDBRANCH   4  23
TORSDOF 10
ENDMDL
MODEL 7
REMARK VINA RESULT:    -6.989      2.798      4.001
REMARK INTER + INTRA:         -12.645
REMARK INTER:                 -11.319
REMARK INTRA:                  -1.326
REMARK UNBOUND:                -1.570
REMARK  Name = 
REMARK  10 active torsions:
REMARK  status: ('A' for Active; 'I' for Inactive)
REMARK    1  A    between atoms: C_2  and  C_4
REMARK    2  A    between atoms: C_4  and  C_5
REMARK    3  A    between atoms: C_5  and  N_6
REMARK    4  A    between atoms: N_6  and  C_7
REMARK    5  A    between atoms: N_6  and  C_14
REMARK    6  A    between atoms: C_7  and  C_8
REMARK    7  A    between atoms: C_14  and  C_15
REMARK    8  A    between atoms: C_18  and  C_19
REMARK    9  A    between atoms: C_19  and  N_20
REMARK   10  A    between atoms: C_21  and  C_23
REMARK                            x       y       z     vdW  Elec       q    Type
REMARK                         _______ _______ _______ _____ _____    ______ ____
ROOT
ATOM      1  C   UNL     1      46.879   5.950  12.782  0.00  0.00    +0.000 A 
ATOM      2  C   UNL     1      46.439   4.790  13.433  0.00  0.00    +0.000 A 
ATOM      3  C   UNL     1      46.964   4.429  14.677  0.00  0.00    +0.000 A 
ATOM      4  C   UNL     1      47.942   5.222  15.291  0.00  0.00    +0.000 A 
ATOM      5  C   UNL     1      48.391   6.374  14.634  0.00  0.00    +0.000 A 
ATOM      6  C   UNL     1      47.861   6.738  13.395  0.00  0.00    +0.000 A 
ENDROOT
BRANCH   1   7
ATOM      7  C   UNL     1      46.372   6.309  11.401  0.00  0.00    +0.000 C 
BRANCH   7   8
ATOM      8  N   UNL     1      45.412   5.333  10.827  0.00  0.00    +0.000 NA
BRANCH   8   9
ATOM      9  C   UNL     1      44.052   5.587  11.371  0.00  0.00    +0.000 C 
BRANCH   9  10
ATOM     10  C   UNL     1      43.069   4.408  11.359  0.00  0.00    +0.000 C 
BRANCH  10  12
ATOM     11  N   UNL     1      43.423   2.046  11.884  0.00  0.00    +0.000 N 
ATOM     12  C   UNL     1      43.345   3.314  12.370  0.00  0.00    +0.000 C 
ATOM     13  O   UNL     1      43.400   3.527  13.577  0.00  0.00    +0.000 OA
ATOM     14  H   UNL     1      43.645   1.295  12.520  0.00  0.00    +0.000 HD
ATOM     15  H   UNL     1      43.524   1.902  10.881  0.00  0.00    +0.000 HD
ENDBRANCH  10  12
ENDBRANCH   9  10
ENDBRANCH   8   9
BRANCH   8  16
ATOM     16  C   UNL     1      45.435   5.416   9.344  0.00  0.00    +0.000 C 
BRANCH  16  17
ATOM     17  C   UNL     1      45.783   4.094   8.682  0.00  0.00    +0.000 A 
ATOM     18  C   UNL     1      45.317   2.879   9.209  0.00  0.00    +0.000 A 
ATOM     19  C   UNL     1      45.731   1.663   8.664  0.00  0.00    +0.000 A 
ATOM     20  C   UNL     1      46.599   1.647   7.574  0.00  0.00    +0.000 A 
ATOM     21  C   UNL     1      47.041   2.846   7.019  0.00  0.00    +0.000 A 
ATOM     22  C   UNL     1      46.635   4.064   7.567  0.00  0.00    +0.000 A 
ENDBRANCH  16  17
ENDBRANCH   8  16
ENDBRANCH   7   8
ENDBRANCH   1   7
BRANCH   4  23
ATOM     23  C   UNL     1      48.549   4.817  16.608  0.00  0.00    +0.000 C 
BRANCH  23  24
ATOM     24  N   UNL     1      48.497   5.902  17.557  0.00  0.00    +0.000 N 
ATOM     25  C   UNL     1      47.457   6.021  18.440  0.00  0.00    +0.000 C 
ATOM     26  O   UNL     1      46.550   5.195  18.493  0.00  0.00    +0.000 OA
ATOM     27  H   UNL     1      49.104   6.697  17.384  0.00  0.00    +0.000 HD
BRANCH  25  28
ATOM     28  C   UNL     1      47.512   7.157  19.369  0.00  0.00    +0.000 A 
ATOM     29  C   UNL     1      47.347   6.940  20.729  0.00  0.00    +0.000 A 
ATOM     30  S   UNL     1      47.486   8.356  21.670  0.00  0.00    +0.000 S 
ATOM     31  C   UNL     1      47.718   9.316  20.285  0.00  0.00    +0.000 A 
ATOM     32  N   UNL     1      47.882  10.664  20.390  0.00  0.00    +0.000 NA
ATOM     33  C   UNL     1      48.019  11.271  19.258  0.00  0.00    +0.000 A 
ATOM     34  N   UNL     1      48.018  10.658  18.036  0.00  0.00    +0.000 N 
ATOM     35  C   UNL     1      47.882   9.296  17.883  0.00  0.00    +0.000 A 
ATOM     36  O   UNL     1      47.927   8.771  16.774  0.00  0.00    +0.000 OA
ATOM     37  C   UNL     1      47.712   8.565  19.123  0.00  0.00    +0.000 A 
ATOM     38  H   UNL     1      48.140  11.188  17.188  0.00  0.00    +0.000 HD
ENDBRANCH  25  28
ENDBRANCH  23  24
ENDBRANCH   4  23
TORSDOF 10
ENDMDL
MODEL 8
REMARK VINA RESULT:    -6.839      3.420      8.241
REMARK INTER + INTRA:         -12.407
REMARK INTER:                 -10.542
REMARK INTRA:                  -1.865
REMARK UNBOUND:                -1.570
REMARK  Name = 
REMARK  10 active torsions:
REMARK  status: ('A' for Active; 'I' for Inactive)
REMARK    1  A    between atoms: C_2  and  C_4
REMARK    2  A    between atoms: C_4  and  C_5
REMARK    3  A    between atoms: C_5  and  N_6
REMARK    4  A    between atoms: N_6  and  C_7
REMARK    5  A    between atoms: N_6  and  C_14
REMARK    6  A    between atoms: C_7  and  C_8
REMARK    7  A    between atoms: C_14  and  C_15
REMARK    8  A    between atoms: C_18  and  C_19
REMARK    9  A    between atoms: C_19  and  N_20
REMARK   10  A    between atoms: C_21  and  C_23
REMARK                            x       y       z     vdW  Elec       q    Type
REMARK                         _______ _______ _______ _____ _____    ______ ____
ROOT
ATOM      1  C   UNL     1      50.162   6.709  17.537  0.00  0.00    +0.000 A 
ATOM      2  C   UNL     1      49.086   7.556  17.835  0.00  0.00    +0.000 A 
ATOM      3  C   UNL     1      48.408   8.231  16.817  0.00  0.00    +0.000 A 
ATOM      4  C   UNL     1      48.795   8.072  15.480  0.00  0.00    +0.000 A 
ATOM      5  C   UNL     1      49.878   7.235  15.184  0.00  0.00    +0.000 A 
ATOM      6  C   UNL     1      50.551   6.555  16.201  0.00  0.00    +0.000 A 
ENDROOT
BRANCH   1   7
ATOM      7  C   UNL     1      50.951   6.033  18.639  0.00  0.00    +0.000 C 
BRANCH   7   8
ATOM      8  N   UNL     1      50.788   4.558  18.692  0.00  0.00    +0.000 NA
BRANCH   8   9
ATOM      9  C   UNL     1      49.342   4.212  18.686  0.00  0.00    +0.000 C 
BRANCH   9  10
ATOM     10  C   UNL     1      48.827   3.407  17.485  0.00  0.00    +0.000 C 
BRANCH  10  12
ATOM     11  N   UNL     1      47.221   4.840  16.324  0.00  0.00    +0.000 N 
ATOM     12  C   UNL     1      47.406   3.708  17.053  0.00  0.00    +0.000 C 
ATOM     13  O   UNL     1      46.448   3.031  17.415  0.00  0.00    +0.000 OA
ATOM     14  H   UNL     1      46.295   5.053  15.983  0.00  0.00    +0.000 HD
ATOM     15  H   UNL     1      48.028   5.304  15.909  0.00  0.00    +0.000 HD
ENDBRANCH  10  12
ENDBRANCH   9  10
ENDBRANCH   8   9
BRANCH   8  16
ATOM     16  C   UNL     1      51.508   3.930  17.556  0.00  0.00    +0.000 C 
BRANCH  16  17
ATOM     17  C   UNL     1      52.402   2.779  17.985  0.00  0.00    +0.000 A 
ATOM     18  C   UNL     1      53.548   3.008  18.764  0.00  0.00    +0.000 A 
ATOM     19  C   UNL     1      54.425   1.964  19.060  0.00  0.00    +0.000 A 
ATOM     20  C   UNL     1      54.158   0.677  18.599  0.00  0.00    +0.000 A 
ATOM     21  C   UNL     1      53.007   0.429  17.854  0.00  0.00    +0.000 A 
ATOM     22  C   UNL     1      52.131   1.473  17.550  0.00  0.00    +0.000 A 
ENDBRANCH  16  17
ENDBRANCH   8  16
ENDBRANCH   7   8
ENDBRANCH   1   7
BRANCH   4  23
ATOM     23  C   UNL     1      48.103   8.831  14.380  0.00  0.00    +0.000 C 
BRANCH  23  24
ATOM     24  N   UNL     1      46.958   8.103  13.890  0.00  0.00    +0.000 N 
ATOM     25  C   UNL     1      47.014   7.402  12.715  0.00  0.00    +0.000 C 
ATOM     26  O   UNL     1      48.045   7.328  12.049  0.00  0.00    +0.000 OA
ATOM     27  H   UNL     1      46.057   8.330  14.298  0.00  0.00    +0.000 HD
BRANCH  25  28
ATOM     28  C   UNL     1      45.794   6.688  12.317  0.00  0.00    +0.000 A 
ATOM     29  C   UNL     1      44.735   7.395  11.766  0.00  0.00    +0.000 A 
ATOM     30  S   UNL     1      43.416   6.411  11.317  0.00  0.00    +0.000 S 
ATOM     31  C   UNL     1      44.197   5.013  11.892  0.00  0.00    +0.000 A 
ATOM     32  N   UNL     1      43.587   3.797  11.827  0.00  0.00    +0.000 NA
ATOM     33  C   UNL     1      44.281   2.829  12.325  0.00  0.00    +0.000 A 
ATOM     34  N   UNL     1      45.527   2.958  12.872  0.00  0.00    +0.000 N 
ATOM     35  C   UNL     1      46.194   4.163  12.935  0.00  0.00    +0.000 A 
ATOM     36  O   UNL     1      47.329   4.240  13.394  0.00  0.00    +0.000 OA
ATOM     37  C   UNL     1      45.454   5.288  12.399  0.00  0.00    +0.000 A 
ATOM     38  H   UNL     1      46.022   2.160  13.235  0.00  0.00    +0.000 HD
ENDBRANCH  25  28
ENDBRANCH  23  24
ENDBRANCH   4  23
TORSDOF 10
ENDMDL
MODEL 9
REMARK VINA RESULT:    -6.824      3.026      8.685
REMARK INTER + INTRA:         -12.383
REMARK INTER:                  -9.831
REMARK INTRA:                  -2.552
REMARK UNBOUND:                -1.570
REMARK  Name = 
REMARK  10 active torsions:
REMARK  status: ('A' for Active; 'I' for Inactive)
REMARK    1  A    between atoms: C_2  and  C_4
REMARK    2  A    between atoms: C_4  and  C_5
REMARK    3  A    between atoms: C_5  and  N_6
REMARK    4  A    between atoms: N_6  and  C_7
REMARK    5  A    between atoms: N_6  and  C_14
REMARK    6  A    between atoms: C_7  and  C_8
REMARK    7  A    between atoms: C_14  and  C_15
REMARK    8  A    between atoms: C_18  and  C_19
REMARK    9  A    between atoms: C_19  and  N_20
REMARK   10  A    between atoms: C_21  and  C_23
REMARK                            x       y       z     vdW  Elec       q    Type
REMARK                         _______ _______ _______ _____ _____    ______ ____
ROOT
ATOM      1  C   UNL     1      49.198   8.139  16.040  0.00  0.00    +0.000 A 
ATOM      2  C   UNL     1      48.138   8.936  15.587  0.00  0.00    +0.000 A 
ATOM      3  C   UNL     1      47.667   8.816  14.277  0.00  0.00    +0.000 A 
ATOM      4  C   UNL     1      48.250   7.898  13.395  0.00  0.00    +0.000 A 
ATOM      5  C   UNL     1      49.317   7.110  13.844  0.00  0.00    +0.000 A 
ATOM      6  C   UNL     1      49.783   7.224  15.155  0.00  0.00    +0.000 A 
ENDROOT
BRANCH   1   7
ATOM      7  C   UNL     1      49.766   8.313  17.433  0.00  0.00    +0.000 C 
BRANCH   7   8
ATOM      8  N   UNL     1      50.563   7.159  17.919  0.00  0.00    +0.000 NA
BRANCH   8   9
ATOM      9  C   UNL     1      51.782   7.648  18.617  0.00  0.00    +0.000 C 
BRANCH   9  10
ATOM     10  C   UNL     1      53.006   6.723  18.603  0.00  0.00    +0.000 C 
BRANCH  10  12
ATOM     11  N   UNL     1      53.078   6.471  16.172  0.00  0.00    +0.000 N 
ATOM     12  C   UNL     1      53.152   5.846  17.377  0.00  0.00    +0.000 C 
ATOM     13  O   UNL     1      53.236   4.623  17.444  0.00  0.00    +0.000 OA
ATOM     14  H   UNL     1      53.211   5.927  15.332  0.00  0.00    +0.000 HD
ATOM     15  H   UNL     1      53.158   7.486  16.131  0.00  0.00    +0.000 HD
ENDBRANCH  10  12
ENDBRANCH   9  10
ENDBRANCH   8   9
BRANCH   8  16
ATOM     16  C   UNL     1      49.728   6.307  18.804  0.00  0.00    +0.000 C 
BRANCH  16  17
ATOM     17  C   UNL     1      49.143   5.103  18.087  0.00  0.00    +0.000 A 
ATOM     18  C   UNL     1      47.809   5.101  17.650  0.00  0.00    +0.000 A 
ATOM     19  C   UNL     1      47.245   3.953  17.094  0.00  0.00    +0.000 A 
ATOM     20  C   UNL     1      48.013   2.799  16.948  0.00  0.00    +0.000 A 
ATOM     21  C   UNL     1      49.348   2.798  17.345  0.00  0.00    +0.000 A 
ATOM     22  C   UNL     1      49.913   3.943  17.909  0.00  0.00    +0.000 A 
ENDBRANCH  16  17
ENDBRANCH   8  16
ENDBRANCH   7   8
ENDBRANCH   1   7
BRANCH   4  23
ATOM     23  C   UNL     1      47.782   7.794  11.967  0.00  0.00    +0.000 C 
BRANCH  23  24
ATOM     24  N   UNL     1      47.055   6.568  11.749  0.00  0.00    +0.000 N 
ATOM     25  C   UNL     1      45.688   6.532  11.819  0.00  0.00    +0.000 C 
ATOM     26  O   UNL     1      45.021   7.542  12.030  0.00  0.00    +0.000 OA
ATOM     27  H   UNL     1      47.585   5.703  11.794  0.00  0.00    +0.000 HD
BRANCH  25  28
ATOM     28  C   UNL     1      45.052   5.233  11.568  0.00  0.00    +0.000 A 
ATOM     29  C   UNL     1      44.351   4.604  12.588  0.00  0.00    +0.000 A 
ATOM     30  S   UNL     1      43.635   3.130  12.116  0.00  0.00    +0.000 S 
ATOM     31  C   UNL     1      44.280   3.257  10.548  0.00  0.00    +0.000 A 
ATOM     32  N   UNL     1      44.059   2.284   9.621  0.00  0.00    +0.000 NA
ATOM     33  C   UNL     1      44.631   2.495   8.483  0.00  0.00    +0.000 A 
ATOM     34  N   UNL     1      45.395   3.588   8.182  0.00  0.00    +0.000 N 
ATOM     35  C   UNL     1      45.625   4.610   9.078  0.00  0.00    +0.000 A 
ATOM     36  O   UNL     1      46.281   5.598   8.764  0.00  0.00    +0.000 OA
ATOM     37  C   UNL     1      45.014   4.417  10.378  0.00  0.00    +0.000 A 
ATOM     38  H   UNL     1      45.807   3.700   7.270  0.00  0.00    +0.000 HD
ENDBRANCH  25  28
ENDBRANCH  23  24
ENDBRANCH   4  23
TORSDOF 10
ENDMDL
