MODEL 1
REMARK VINA RESULT:    -8.938      0.000      0.000
REMARK INTER + INTRA:         -12.791
REMARK INTER:                 -11.812
REMARK INTRA:                  -0.980
REMARK UNBOUND:                -0.980
REMARK  Name = 
REMARK  6 active torsions:
REMARK  status: ('A' for Active; 'I' for Inactive)
REMARK    1  A    between atoms: C_2  and  C_4
REMARK    2  A    between atoms: N_8  and  C_9
REMARK    3  A    between atoms: C_9  and  C_10
REMARK    4  A    between atoms: C_10  and  O_11
REMARK    5  A    between atoms: C_10  and  C_12
REMARK    6  A    between atoms: C_16  and  C_17
REMARK                            x       y       z     vdW  Elec       q    Type
REMARK                         _______ _______ _______ _____ _____    ______ ____
ROOT
ATOM      1  C   UNL     1      43.418   5.664  12.128  0.00  0.00    +0.000 C 
ENDROOT
BRANCH   1   2
ATOM      2  C   UNL     1      44.856   5.731  12.613  0.00  0.00    +0.000 A 
ATOM      3  C   UNL     1      45.382   4.677  13.368  0.00  0.00    +0.000 A 
ATOM      4  C   UNL     1      46.705   4.712  13.805  0.00  0.00    +0.000 A 
ATOM      5  C   UNL     1      47.530   5.790  13.471  0.00  0.00    +0.000 A 
ATOM      6  C   UNL     1      47.064   6.842  12.669  0.00  0.00    +0.000 A 
ATOM      7  C   UNL     1      45.715   6.794  12.269  0.00  0.00    +0.000 A 
BRANCH   6   8
ATOM      8  C   UNL     1      47.961   7.912  12.172  0.00  0.00    +0.000 A 
ATOM      9  C   UNL     1      47.525   9.250  12.128  0.00  0.00    +0.000 A 
ATOM     10  C   UNL     1      48.386  10.290  11.769  0.00  0.00    +0.000 A 
ATOM     11  C   UNL     1      49.714  10.019  11.450  0.00  0.00    +0.000 A 
ATOM     12  C   UNL     1      50.168   8.704  11.463  0.00  0.00    +0.000 A 
ATOM     13  C   UNL     1      49.299   7.662  11.809  0.00  0.00    +0.000 A 
ENDBRANCH   6   8
ENDBRANCH   1   2
BRANCH   1  14
ATOM     14  O   UNL     1      42.590   5.247  13.219  0.00  0.00    +0.000 OA
ATOM     15  H   UNL     1      41.847   5.873  13.276  0.00  0.00    +0.000 HD
ENDBRANCH   1  14
BRANCH   1  16
ATOM     16  C   UNL     1      43.223   4.708  10.929  0.00  0.00    +0.000 C 
BRANCH  16  21
ATOM     17  C   UNL     1      46.404   2.296   7.737  0.00  0.00    +0.000 A 
ATOM     18  C   UNL     1      45.677   1.845   8.830  0.00  0.00    +0.000 A 
ATOM     19  C   UNL     1      44.883   2.748   9.533  0.00  0.00    +0.000 A 
ATOM     20  C   UNL     1      44.806   4.082   9.126  0.00  0.00    +0.000 A 
ATOM     21  N   UNL     1      44.087   5.030   9.811  0.00  0.00    +0.000 N 
ATOM     22  N   UNL     1      45.494   4.522   8.056  0.00  0.00    +0.000 NA
ATOM     23  C   UNL     1      46.288   3.637   7.398  0.00  0.00    +0.000 A 
ATOM     24  H   UNL     1      43.976   5.911   9.319  0.00  0.00    +0.000 HD
BRANCH  17  26
ATOM     25  N   UNL     1      48.478   1.970   6.510  0.00  0.00    +0.000 N 
ATOM     26  C   UNL     1      47.310   1.419   6.964  0.00  0.00    +0.000 C 
ATOM     27  O   UNL     1      47.040   0.245   6.763  0.00  0.00    +0.000 OA
ATOM     28  H   UNL     1      49.122   1.336   6.058  0.00  0.00    +0.000 HD
ATOM     29  H   UNL     1      48.839   2.846   6.850  0.00  0.00    +0.000 HD
ENDBRANCH  17  26
ENDBRANCH  16  21
ENDBRANCH   1  16
TORSDOF 6
ENDMDL
MODEL 2
REMARK VINA RESULT:    -8.453      2.095      3.812
REMARK INTER + INTRA:         -12.151
REMARK INTER:                 -11.147
REMARK INTRA:                  -1.004
REMARK UNBOUND:                -0.980
REMARK  Name = 
REMARK  6 active torsions:
REMARK  status: ('A' for Active; 'I' for Inactive)
REMARK    1  A    between atoms: C_2  and  C_4
REMARK    2  A    between atoms: N_8  and  C_9
REMARK    3  A    between atoms: C_9  and  C_10
REMARK    4  A    between atoms: C_10  and  O_11
REMARK    5  A    between atoms: C_10  and  C_12
REMARK    6  A    between atoms: C_16  and  C_17
REMARK                            x       y       z     vdW  Elec       q    Type
REMARK                         _______ _______ _______ _____ _____    ______ ____
ROOT
ATOM      1  C   UNL     1      43.726   4.540  12.368  0.00  0.00    +0.000 C 
ENDROOT
BRANCH   1   2
ATOM      2  C   UNL     1      45.125   5.026  12.707  0.00  0.00    +0.000 A 
ATOM      3  C   UNL     1      45.759   5.949  11.868  0.00  0.00    +0.000 A 
ATOM      4  C   UNL     1      47.035   6.420  12.172  0.00  0.00    +0.000 A 
ATOM      5  C   UNL     1      47.685   5.996  13.334  0.00  0.00    +0.000 A 
ATOM      6  C   UNL     1      47.066   5.116  14.235  0.00  0.00    +0.000 A 
ATOM      7  C   UNL     1      45.790   4.633  13.885  0.00  0.00    +0.000 A 
BRANCH   6   8
ATOM      8  C   UNL     1      47.667   4.777  15.547  0.00  0.00    +0.000 A 
ATOM      9  C   UNL     1      48.499   5.697  16.212  0.00  0.00    +0.000 A 
ATOM     10  C   UNL     1      48.988   5.447  17.497  0.00  0.00    +0.000 A 
ATOM     11  C   UNL     1      48.650   4.268  18.156  0.00  0.00    +0.000 A 
ATOM     12  C   UNL     1      47.848   3.329  17.515  0.00  0.00    +0.000 A 
ATOM     13  C   UNL     1      47.371   3.576  16.222  0.00  0.00    +0.000 A 
ENDBRANCH   6   8
ENDBRANCH   1   2
BRANCH   1  14
ATOM     14  O   UNL     1      43.490   3.313  13.066  0.00  0.00    +0.000 OA
ATOM     15  H   UNL     1      44.128   3.268  13.799  0.00  0.00    +0.000 HD
ENDBRANCH   1  14
BRANCH   1  16
ATOM     16  C   UNL     1      43.504   4.330  10.852  0.00  0.00    +0.000 C 
BRANCH  16  21
ATOM     17  C   UNL     1      46.643   2.547   7.234  0.00  0.00    +0.000 A 
ATOM     18  C   UNL     1      46.201   3.832   7.520  0.00  0.00    +0.000 A 
ATOM     19  C   UNL     1      45.323   4.022   8.584  0.00  0.00    +0.000 A 
ATOM     20  C   UNL     1      44.914   2.936   9.361  0.00  0.00    +0.000 A 
ATOM     21  N   UNL     1      44.006   3.053  10.386  0.00  0.00    +0.000 N 
ATOM     22  N   UNL     1      45.352   1.691   9.100  0.00  0.00    +0.000 NA
ATOM     23  C   UNL     1      46.185   1.515   8.040  0.00  0.00    +0.000 A 
ATOM     24  H   UNL     1      43.926   2.229  10.973  0.00  0.00    +0.000 HD
BRANCH  17  26
ATOM     25  N   UNL     1      48.863   2.542   6.242  0.00  0.00    +0.000 N 
ATOM     26  C   UNL     1      47.536   2.245   6.093  0.00  0.00    +0.000 C 
ATOM     27  O   UNL     1      47.110   1.726   5.073  0.00  0.00    +0.000 OA
ATOM     28  H   UNL     1      49.471   2.253   5.488  0.00  0.00    +0.000 HD
ATOM     29  H   UNL     1      49.283   2.745   7.135  0.00  0.00    +0.000 HD
ENDBRANCH  17  26
ENDBRANCH  16  21
ENDBRANCH   1  16
TORSDOF 6
ENDMDL
MODEL 3
REMARK VINA RESULT:    -8.377      1.264      1.662
REMARK INTER + INTRA:         -12.051
REMARK INTER:                 -11.517
REMARK INTRA:                  -0.534
REMARK UNBOUND:                -0.980
REMARK  Name = 
REMARK  6 active torsions:
REMARK  status: ('A' for Active; 'I' for Inactive)
REMARK    1  A    between atoms: C_2  and  C_4
REMARK    2  A    between atoms: N_8  and  C_9
REMARK    3  A    between atoms: C_9  and  C_10
REMARK    4  A    between atoms: C_10  and  O_11
REMARK    5  A    between atoms: C_10  and  C_12
REMARK    6  A    between atoms: C_16  and  C_17
REMARK                            x       y       z     vdW  Elec       q    Type
REMARK                         _______ _______ _______ _____ _____    ______ ____
ROOT
ATOM      1  C   UNL     1      43.762   4.099  12.416  0.00  0.00    +0.000 C 
ENDROOT
BRANCH   1   2
ATOM      2  C   UNL     1      44.988   4.938  12.737  0.00  0.00    +0.000 A 
ATOM      3  C   UNL     1      46.136   4.319  13.243  0.00  0.00    +0.000 A 
ATOM      4  C   UNL     1      47.277   5.070  13.526  0.00  0.00    +0.000 A 
ATOM      5  C   UNL     1      47.294   6.446  13.282  0.00  0.00    +0.000 A 
ATOM      6  C   UNL     1      46.185   7.100  12.721  0.00  0.00    +0.000 A 
ATOM      7  C   UNL     1      45.038   6.321  12.476  0.00  0.00    +0.000 A 
BRANCH   6   8
ATOM      8  C   UNL     1      46.235   8.523  12.307  0.00  0.00    +0.000 A 
ATOM      9  C   UNL     1      45.049   9.253  12.109  0.00  0.00    +0.000 A 
ATOM     10  C   UNL     1      45.069  10.621  11.827  0.00  0.00    +0.000 A 
ATOM     11  C   UNL     1      46.281  11.300  11.742  0.00  0.00    +0.000 A 
ATOM     12  C   UNL     1      47.472  10.600  11.912  0.00  0.00    +0.000 A 
ATOM     13  C   UNL     1      47.450   9.226  12.180  0.00  0.00    +0.000 A 
ENDBRANCH   6   8
ENDBRANCH   1   2
BRANCH   1  14
ATOM     14  O   UNL     1      44.103   2.718  12.572  0.00  0.00    +0.000 OA
ATOM     15  H   UNL     1      44.610   2.635  13.399  0.00  0.00    +0.000 HD
ENDBRANCH   1  14
BRANCH   1  16
ATOM     16  C   UNL     1      43.212   4.344  10.992  0.00  0.00    +0.000 C 
BRANCH  16  21
ATOM     17  C   UNL     1      46.566   2.552   7.577  0.00  0.00    +0.000 A 
ATOM     18  C   UNL     1      45.690   1.904   8.437  0.00  0.00    +0.000 A 
ATOM     19  C   UNL     1      44.885   2.665   9.280  0.00  0.00    +0.000 A 
ATOM     20  C   UNL     1      44.944   4.060   9.240  0.00  0.00    +0.000 A 
ATOM     21  N   UNL     1      44.218   4.862  10.086  0.00  0.00    +0.000 N 
ATOM     22  N   UNL     1      45.778   4.695   8.396  0.00  0.00    +0.000 NA
ATOM     23  C   UNL     1      46.581   3.939   7.601  0.00  0.00    +0.000 A 
ATOM     24  H   UNL     1      44.224   5.847   9.841  0.00  0.00    +0.000 HD
BRANCH  17  26
ATOM     25  N   UNL     1      48.564   2.519   6.192  0.00  0.00    +0.000 N 
ATOM     26  C   UNL     1      47.493   1.824   6.683  0.00  0.00    +0.000 C 
ATOM     27  O   UNL     1      47.324   0.644   6.418  0.00  0.00    +0.000 OA
ATOM     28  H   UNL     1      49.232   1.985   5.653  0.00  0.00    +0.000 HD
ATOM     29  H   UNL     1      48.863   3.404   6.569  0.00  0.00    +0.000 HD
ENDBRANCH  17  26
ENDBRANCH  16  21
ENDBRANCH   1  16
TORSDOF 6
ENDMDL
MODEL 4
REMARK VINA RESULT:    -7.787      1.425      1.900
REMARK INTER + INTRA:         -11.270
REMARK INTER:                 -11.265
REMARK INTRA:                  -0.005
REMARK UNBOUND:                -0.980
REMARK  Name = 
REMARK  6 active torsions:
REMARK  status: ('A' for Active; 'I' for Inactive)
REMARK    1  A    between atoms: C_2  and  C_4
REMARK    2  A    between atoms: N_8  and  C_9
REMARK    3  A    between atoms: C_9  and  C_10
REMARK    4  A    between atoms: C_10  and  O_11
REMARK    5  A    between atoms: C_10  and  C_12
REMARK    6  A    between atoms: C_16  and  C_17
REMARK                            x       y       z     vdW  Elec       q    Type
REMARK                         _______ _______ _______ _____ _____    ______ ____
ROOT
ATOM      1  C   UNL     1      44.263   4.729  10.553  0.00  0.00    +0.000 C 
ENDROOT
BRANCH   1   2
ATOM      2  C   UNL     1      45.246   5.160  11.629  0.00  0.00    +0.000 A 
ATOM      3  C   UNL     1      45.353   4.411  12.806  0.00  0.00    +0.000 A 
ATOM      4  C   UNL     1      46.262   4.780  13.797  0.00  0.00    +0.000 A 
ATOM      5  C   UNL     1      47.095   5.888  13.614  0.00  0.00    +0.000 A 
ATOM      6  C   UNL     1      47.062   6.634  12.425  0.00  0.00    +0.000 A 
ATOM      7  C   UNL     1      46.113   6.256  11.457  0.00  0.00    +0.000 A 
BRANCH   6   8
ATOM      8  C   UNL     1      48.042   7.711  12.143  0.00  0.00    +0.000 A 
ATOM      9  C   UNL     1      49.377   7.400  11.828  0.00  0.00    +0.000 A 
ATOM     10  C   UNL     1      50.291   8.388  11.451  0.00  0.00    +0.000 A 
ATOM     11  C   UNL     1      49.888   9.718  11.372  0.00  0.00    +0.000 A 
ATOM     12  C   UNL     1      48.579  10.059  11.699  0.00  0.00    +0.000 A 
ATOM     13  C   UNL     1      47.670   9.069  12.090  0.00  0.00    +0.000 A 
ENDBRANCH   6   8
ENDBRANCH   1   2
BRANCH   1  14
ATOM     14  O   UNL     1      43.248   5.731  10.437  0.00  0.00    +0.000 OA
ATOM     15  H   UNL     1      43.108   6.106  11.324  0.00  0.00    +0.000 HD
ENDBRANCH   1  14
BRANCH   1  16
ATOM     16  C   UNL     1      43.612   3.356  10.836  0.00  0.00    +0.000 C 
BRANCH  16  21
ATOM     17  C   UNL     1      46.543   2.350   6.772  0.00  0.00    +0.000 A 
ATOM     18  C   UNL     1      45.800   3.470   7.118  0.00  0.00    +0.000 A 
ATOM     19  C   UNL     1      45.076   3.458   8.308  0.00  0.00    +0.000 A 
ATOM     20  C   UNL     1      45.119   2.343   9.147  0.00  0.00    +0.000 A 
ATOM     21  N   UNL     1      44.383   2.250  10.303  0.00  0.00    +0.000 N 
ATOM     22  N   UNL     1      45.852   1.261   8.826  0.00  0.00    +0.000 NA
ATOM     23  C   UNL     1      46.529   1.274   7.647  0.00  0.00    +0.000 A 
ATOM     24  H   UNL     1      44.633   1.469  10.900  0.00  0.00    +0.000 HD
BRANCH  17  26
ATOM     25  N   UNL     1      48.597   2.696   5.516  0.00  0.00    +0.000 N 
ATOM     26  C   UNL     1      47.302   2.255   5.505  0.00  0.00    +0.000 C 
ATOM     27  O   UNL     1      46.801   1.776   4.499  0.00  0.00    +0.000 OA
ATOM     28  H   UNL     1      49.125   2.546   4.668  0.00  0.00    +0.000 HD
ATOM     29  H   UNL     1      49.109   2.872   6.365  0.00  0.00    +0.000 HD
ENDBRANCH  17  26
ENDBRANCH  16  21
ENDBRANCH   1  16
TORSDOF 6
ENDMDL
MODEL 5
REMARK VINA RESULT:    -7.638      3.606      6.936
REMARK INTER + INTRA:         -11.074
REMARK INTER:                 -10.317
REMARK INTRA:                  -0.756
REMARK UNBOUND:                -0.980
REMARK  Name = 
REMARK  6 active torsions:
REMARK  status: ('A' for Active; 'I' for Inactive)
REMARK    1  A    between atoms: C_2  and  C_4
REMARK    2  A    between atoms: N_8  and  C_9
REMARK    3  A    between atoms: C_9  and  C_10
REMARK    4  A    between atoms: C_10  and  O_11
REMARK    5  A    between atoms: C_10  and  C_12
REMARK    6  A    between atoms: C_16  and  C_17
REMARK                            x       y       z     vdW  Elec       q    Type
REMARK                         _______ _______ _______ _____ _____    ______ ____
ROOT
ATOM      1  C   UNL     1      45.415   7.470  12.193  0.00  0.00    +0.000 C 
ENDROOT
BRANCH   1   2
ATOM      2  C   UNL     1      44.763   6.208  11.653  0.00  0.00    +0.000 A 
ATOM      3  C   UNL     1      43.474   5.862  12.072  0.00  0.00    +0.000 A 
ATOM      4  C   UNL     1      42.853   4.717  11.573  0.00  0.00    +0.000 A 
ATOM      5  C   UNL     1      43.501   3.917  10.629  0.00  0.00    +0.000 A 
ATOM      6  C   UNL     1      44.772   4.256  10.137  0.00  0.00    +0.000 A 
ATOM      7  C   UNL     1      45.386   5.399  10.682  0.00  0.00    +0.000 A 
BRANCH   6   8
ATOM      8  C   UNL     1      45.410   3.514   9.023  0.00  0.00    +0.000 A 
ATOM      9  C   UNL     1      46.043   4.204   7.973  0.00  0.00    +0.000 A 
ATOM     10  C   UNL     1      46.746   3.529   6.971  0.00  0.00    +0.000 A 
ATOM     11  C   UNL     1      46.840   2.141   6.998  0.00  0.00    +0.000 A 
ATOM     12  C   UNL     1      46.205   1.429   8.012  0.00  0.00    +0.000 A 
ATOM     13  C   UNL     1      45.490   2.107   9.006  0.00  0.00    +0.000 A 
ENDBRANCH   6   8
ENDBRANCH   1   2
BRANCH   1  14
ATOM     14  O   UNL     1      44.917   8.590  11.454  0.00  0.00    +0.000 OA
ATOM     15  H   UNL     1      45.349   8.578  10.582  0.00  0.00    +0.000 HD
ENDBRANCH   1  14
BRANCH   1  16
ATOM     16  C   UNL     1      46.959   7.439  12.116  0.00  0.00    +0.000 C 
BRANCH  16  21
ATOM     17  C   UNL     1      47.697   4.115  15.928  0.00  0.00    +0.000 A 
ATOM     18  C   UNL     1      47.003   4.006  14.731  0.00  0.00    +0.000 A 
ATOM     19  C   UNL     1      46.963   5.101  13.871  0.00  0.00    +0.000 A 
ATOM     20  C   UNL     1      47.633   6.281  14.203  0.00  0.00    +0.000 A 
ATOM     21  N   UNL     1      47.583   7.411  13.424  0.00  0.00    +0.000 N 
ATOM     22  N   UNL     1      48.322   6.387  15.354  0.00  0.00    +0.000 NA
ATOM     23  C   UNL     1      48.327   5.322  16.198  0.00  0.00    +0.000 A 
ATOM     24  H   UNL     1      48.244   8.134  13.689  0.00  0.00    +0.000 HD
BRANCH  17  26
ATOM     25  N   UNL     1      48.941   2.363  17.067  0.00  0.00    +0.000 N 
ATOM     26  C   UNL     1      47.750   3.022  16.923  0.00  0.00    +0.000 C 
ATOM     27  O   UNL     1      46.779   2.738  17.608  0.00  0.00    +0.000 OA
ATOM     28  H   UNL     1      48.983   1.678  17.808  0.00  0.00    +0.000 HD
ATOM     29  H   UNL     1      49.810   2.716  16.701  0.00  0.00    +0.000 HD
ENDBRANCH  17  26
ENDBRANCH  16  21
ENDBRANCH   1  16
TORSDOF 6
ENDMDL
MODEL 6
REMARK VINA RESULT:    -7.563      2.357      3.023
REMARK INTER + INTRA:         -10.974
REMARK INTER:                 -10.304
REMARK INTRA:                  -0.670
REMARK UNBOUND:                -0.980
REMARK  Name = 
REMARK  6 active torsions:
REMARK  status: ('A' for Active; 'I' for Inactive)
REMARK    1  A    between atoms: C_2  and  C_4
REMARK    2  A    between atoms: N_8  and  C_9
REMARK    3  A    between atoms: C_9  and  C_10
REMARK    4  A    between atoms: C_10  and  O_11
REMARK    5  A    between atoms: C_10  and  C_12
REMARK    6  A    between atoms: C_16  and  C_17
REMARK                            x       y       z     vdW  Elec       q    Type
REMARK                         _______ _______ _______ _____ _____    ______ ____
ROOT
ATOM      1  C   UNL     1      42.883   5.656  11.833  0.00  0.00    +0.000 C 
ENDROOT
BRANCH   1   2
ATOM      2  C   UNL     1      43.933   6.742  11.999  0.00  0.00    +0.000 A 
ATOM      3  C   UNL     1      45.097   6.473  12.727  0.00  0.00    +0.000 A 
ATOM      4  C   UNL     1      46.081   7.450  12.873  0.00  0.00    +0.000 A 
ATOM      5  C   UNL     1      45.926   8.702  12.272  0.00  0.00    +0.000 A 
ATOM      6  C   UNL     1      44.801   8.999  11.486  0.00  0.00    +0.000 A 
ATOM      7  C   UNL     1      43.812   8.003  11.382  0.00  0.00    +0.000 A 
BRANCH   6   8
ATOM      8  C   UNL     1      44.690  10.258  10.711  0.00  0.00    +0.000 A 
ATOM      9  C   UNL     1      43.662  10.428   9.766  0.00  0.00    +0.000 A 
ATOM     10  C   UNL     1      43.469  11.644   9.104  0.00  0.00    +0.000 A 
ATOM     11  C   UNL     1      44.299  12.727   9.377  0.00  0.00    +0.000 A 
ATOM     12  C   UNL     1      45.338  12.583  10.292  0.00  0.00    +0.000 A 
ATOM     13  C   UNL     1      45.538  11.359  10.943  0.00  0.00    +0.000 A 
ENDBRANCH   6   8
ENDBRANCH   1   2
BRANCH   1  14
ATOM     14  O   UNL     1      42.566   5.130  13.126  0.00  0.00    +0.000 OA
ATOM     15  H   UNL     1      41.798   4.542  13.020  0.00  0.00    +0.000 HD
ENDBRANCH   1  14
BRANCH   1  16
ATOM     16  C   UNL     1      43.333   4.510  10.899  0.00  0.00    +0.000 C 
BRANCH  16  21
ATOM     17  C   UNL     1      46.565   2.468   7.507  0.00  0.00    +0.000 A 
ATOM     18  C   UNL     1      45.788   1.892   8.502  0.00  0.00    +0.000 A 
ATOM     19  C   UNL     1      44.993   2.713   9.298  0.00  0.00    +0.000 A 
ATOM     20  C   UNL     1      44.964   4.092   9.078  0.00  0.00    +0.000 A 
ATOM     21  N   UNL     1      44.245   4.958   9.865  0.00  0.00    +0.000 N 
ATOM     22  N   UNL     1      45.702   4.654   8.103  0.00  0.00    +0.000 NA
ATOM     23  C   UNL     1      46.497   3.845   7.354  0.00  0.00    +0.000 A 
ATOM     24  H   UNL     1      44.175   5.901   9.498  0.00  0.00    +0.000 HD
BRANCH  17  26
ATOM     25  N   UNL     1      48.576   2.321   6.148  0.00  0.00    +0.000 N 
ATOM     26  C   UNL     1      47.477   1.679   6.648  0.00  0.00    +0.000 C 
ATOM     27  O   UNL     1      47.270   0.497   6.420  0.00  0.00    +0.000 OA
ATOM     28  H   UNL     1      49.231   1.747   5.634  0.00  0.00    +0.000 HD
ATOM     29  H   UNL     1      48.901   3.207   6.498  0.00  0.00    +0.000 HD
ENDBRANCH  17  26
ENDBRANCH  16  21
ENDBRANCH   1  16
TORSDOF 6
ENDMDL
MODEL 7
REMARK VINA RESULT:    -7.412      3.768      7.674
REMARK INTER + INTRA:         -10.775
REMARK INTER:                 -10.107
REMARK INTRA:                  -0.669
REMARK UNBOUND:                -0.980
REMARK  Name = 
REMARK  6 active torsions:
REMARK  status: ('A' for Active; 'I' for Inactive)
REMARK    1  A    between atoms: C_2  and  C_4
REMARK    2  A    between atoms: N_8  and  C_9
REMARK    3  A    between atoms: C_9  and  C_10
REMARK    4  A    between atoms: C_10  and  O_11
REMARK    5  A    between atoms: C_10  and  C_12
REMARK    6  A    between atoms: C_16  and  C_17
REMARK                            x       y       z     vdW  Elec       q    Type
REMARK                         _______ _______ _______ _____ _____    ______ ____
ROOT
ATOM      1  C   UNL     1      44.924   6.067  11.833  0.00  0.00    +0.000 C 
ENDROOT
BRANCH   1   2
ATOM      2  C   UNL     1      44.672   4.702  11.216  0.00  0.00    +0.000 A 
ATOM      3  C   UNL     1      43.647   3.893  11.718  0.00  0.00    +0.000 A 
ATOM      4  C   UNL     1      43.389   2.645  11.153  0.00  0.00    +0.000 A 
ATOM      5  C   UNL     1      44.137   2.199  10.060  0.00  0.00    +0.000 A 
ATOM      6  C   UNL     1      45.137   2.999   9.486  0.00  0.00    +0.000 A 
ATOM      7  C   UNL     1      45.395   4.240  10.098  0.00  0.00    +0.000 A 
BRANCH   6   8
ATOM      8  C   UNL     1      45.832   2.615   8.234  0.00  0.00    +0.000 A 
ATOM      9  C   UNL     1      46.008   3.550   7.197  0.00  0.00    +0.000 A 
ATOM     10  C   UNL     1      46.754   3.248   6.055  0.00  0.00    +0.000 A 
ATOM     11  C   UNL     1      47.353   1.998   5.923  0.00  0.00    +0.000 A 
ATOM     12  C   UNL     1      47.179   1.045   6.922  0.00  0.00    +0.000 A 
ATOM     13  C   UNL     1      46.419   1.346   8.058  0.00  0.00    +0.000 A 
ENDBRANCH   6   8
ENDBRANCH   1   2
BRANCH   1  14
ATOM     14  O   UNL     1      45.069   7.023  10.778  0.00  0.00    +0.000 OA
ATOM     15  H   UNL     1      44.185   7.382  10.587  0.00  0.00    +0.000 HD
ENDBRANCH   1  14
BRANCH   1  16
ATOM     16  C   UNL     1      46.171   6.103  12.746  0.00  0.00    +0.000 C 
BRANCH  16  21
ATOM     17  C   UNL     1      48.606   4.597  16.980  0.00  0.00    +0.000 A 
ATOM     18  C   UNL     1      48.623   5.798  16.285  0.00  0.00    +0.000 A 
ATOM     19  C   UNL     1      47.849   5.923  15.133  0.00  0.00    +0.000 A 
ATOM     20  C   UNL     1      47.052   4.860  14.703  0.00  0.00    +0.000 A 
ATOM     21  N   UNL     1      46.312   4.903  13.547  0.00  0.00    +0.000 N 
ATOM     22  N   UNL     1      47.017   3.699  15.383  0.00  0.00    +0.000 NA
ATOM     23  C   UNL     1      47.801   3.581  16.487  0.00  0.00    +0.000 A 
ATOM     24  H   UNL     1      45.653   4.139  13.439  0.00  0.00    +0.000 HD
BRANCH  17  26
ATOM     25  N   UNL     1      49.313   3.142  18.796  0.00  0.00    +0.000 N 
ATOM     26  C   UNL     1      49.434   4.359  18.183  0.00  0.00    +0.000 C 
ATOM     27  O   UNL     1      50.214   5.204  18.595  0.00  0.00    +0.000 OA
ATOM     28  H   UNL     1      49.945   2.966  19.563  0.00  0.00    +0.000 HD
ATOM     29  H   UNL     1      48.869   2.350  18.359  0.00  0.00    +0.000 HD
ENDBRANCH  17  26
ENDBRANCH  16  21
ENDBRANCH   1  16
TORSDOF 6
ENDMDL
MODEL 8
REMARK VINA RESULT:    -7.265      3.294      6.728
REMARK INTER + INTRA:         -10.581
REMARK INTER:                  -9.701
REMARK INTRA:                  -0.880
REMARK UNBOUND:                -0.980
REMARK  Name = 
REMARK  6 active torsions:
REMARK  status: ('A' for Active; 'I' for Inactive)
REMARK    1  A    between atoms: C_2  and  C_4
REMARK    2  A    between atoms: N_8  and  C_9
REMARK    3  A    between atoms: C_9  and  C_10
REMARK    4  A    between atoms: C_10  and  O_11
REMARK    5  A    between atoms: C_10  and  C_12
REMARK    6  A    between atoms: C_16  and  C_17
REMARK                            x       y       z     vdW  Elec       q    Type
REMARK                         _______ _______ _______ _____ _____    ______ ____
ROOT
ATOM      1  C   UNL     1      44.100   6.544  11.810  0.00  0.00    +0.000 C 
ENDROOT
BRANCH   1   2
ATOM      2  C   UNL     1      44.111   5.088  11.373  0.00  0.00    +0.000 A 
ATOM      3  C   UNL     1      43.269   4.169  12.009  0.00  0.00    +0.000 A 
ATOM      4  C   UNL     1      43.252   2.833  11.610  0.00  0.00    +0.000 A 
ATOM      5  C   UNL     1      44.056   2.403  10.551  0.00  0.00    +0.000 A 
ATOM      6  C   UNL     1      44.873   3.301   9.846  0.00  0.00    +0.000 A 
ATOM      7  C   UNL     1      44.893   4.636  10.293  0.00  0.00    +0.000 A 
BRANCH   6   8
ATOM      8  C   UNL     1      45.611   2.902   8.624  0.00  0.00    +0.000 A 
ATOM      9  C   UNL     1      45.964   3.860   7.656  0.00  0.00    +0.000 A 
ATOM     10  C   UNL     1      46.753   3.530   6.551  0.00  0.00    +0.000 A 
ATOM     11  C   UNL     1      47.219   2.229   6.389  0.00  0.00    +0.000 A 
ATOM     12  C   UNL     1      46.868   1.254   7.318  0.00  0.00    +0.000 A 
ATOM     13  C   UNL     1      46.065   1.584   8.416  0.00  0.00    +0.000 A 
ENDBRANCH   6   8
ENDBRANCH   1   2
BRANCH   1  14
ATOM     14  O   UNL     1      44.332   7.364  10.661  0.00  0.00    +0.000 OA
ATOM     15  H   UNL     1      44.681   8.216  10.978  0.00  0.00    +0.000 HD
ENDBRANCH   1  14
BRANCH   1  16
ATOM     16  C   UNL     1      45.151   6.860  12.899  0.00  0.00    +0.000 C 
BRANCH  16  21
ATOM     17  C   UNL     1      49.837   8.488  11.670  0.00  0.00    +0.000 A 
ATOM     18  C   UNL     1      49.340   7.217  11.926  0.00  0.00    +0.000 A 
ATOM     19  C   UNL     1      47.994   7.072  12.252  0.00  0.00    +0.000 A 
ATOM     20  C   UNL     1      47.156   8.189  12.297  0.00  0.00    +0.000 A 
ATOM     21  N   UNL     1      45.836   8.116  12.667  0.00  0.00    +0.000 N 
ATOM     22  N   UNL     1      47.628   9.421  12.032  0.00  0.00    +0.000 NA
ATOM     23  C   UNL     1      48.950   9.552  11.745  0.00  0.00    +0.000 A 
ATOM     24  H   UNL     1      45.303   8.963  12.495  0.00  0.00    +0.000 HD
BRANCH  17  26
ATOM     25  N   UNL     1      52.187   7.954  11.995  0.00  0.00    +0.000 N 
ATOM     26  C   UNL     1      51.263   8.742  11.365  0.00  0.00    +0.000 C 
ATOM     27  O   UNL     1      51.598   9.600  10.563  0.00  0.00    +0.000 OA
ATOM     28  H   UNL     1      53.148   8.084  11.712  0.00  0.00    +0.000 HD
ATOM     29  H   UNL     1      51.947   7.098  12.469  0.00  0.00    +0.000 HD
ENDBRANCH  17  26
ENDBRANCH  16  21
ENDBRANCH   1  16
TORSDOF 6
ENDMDL
MODEL 9
REMARK VINA RESULT:    -7.058      5.548      7.150
REMARK INTER + INTRA:         -10.306
REMARK INTER:                  -9.619
REMARK INTRA:                  -0.687
REMARK UNBOUND:                -0.980
REMARK  Name = 
REMARK  6 active torsions:
REMARK  status: ('A' for Active; 'I' for Inactive)
REMARK    1  A    between atoms: C_2  and  C_4
REMARK    2  A    between atoms: N_8  and  C_9
REMARK    3  A    between atoms: C_9  and  C_10
REMARK    4  A    between atoms: C_10  and  O_11
REMARK    5  A    between atoms: C_10  and  C_12
REMARK    6  A    between atoms: C_16  and  C_17
REMARK                            x       y       z     vdW  Elec       q    Type
REMARK                         _______ _______ _______ _____ _____    ______ ____
ROOT
ATOM      1  C   UNL     1      46.923   4.261  17.208  0.00  0.00    +0.000 C 
ENDROOT
BRANCH   1   2
ATOM      2  C   UNL     1      47.661   4.926  18.358  0.00  0.00    +0.000 A 
ATOM      3  C   UNL     1      48.871   4.386  18.808  0.00  0.00    +0.000 A 
ATOM      4  C   UNL     1      49.572   4.993  19.849  0.00  0.00    +0.000 A 
ATOM      5  C   UNL     1      49.087   6.164  20.437  0.00  0.00    +0.000 A 
ATOM      6  C   UNL     1      47.907   6.773  19.982  0.00  0.00    +0.000 A 
ATOM      7  C   UNL     1      47.206   6.120  18.951  0.00  0.00    +0.000 A 
BRANCH   6   8
ATOM      8  C   UNL     1      47.459   8.095  20.481  0.00  0.00    +0.000 A 
ATOM      9  C   UNL     1      47.183   9.143  19.585  0.00  0.00    +0.000 A 
ATOM     10  C   UNL     1      46.654  10.361  20.021  0.00  0.00    +0.000 A 
ATOM     11  C   UNL     1      46.380  10.560  21.371  0.00  0.00    +0.000 A 
ATOM     12  C   UNL     1      46.663   9.549  22.285  0.00  0.00    +0.000 A 
ATOM     13  C   UNL     1      47.206   8.336  21.846  0.00  0.00    +0.000 A 
ENDBRANCH   6   8
ENDBRANCH   1   2
BRANCH   1  14
ATOM     14  O   UNL     1      46.648   2.904  17.569  0.00  0.00    +0.000 OA
ATOM     15  H   UNL     1      45.855   2.908  18.134  0.00  0.00    +0.000 HD
ENDBRANCH   1  14
BRANCH   1  16
ATOM     16  C   UNL     1      47.708   4.299  15.877  0.00  0.00    +0.000 C 
BRANCH  16  21
ATOM     17  C   UNL     1      44.665   4.691  11.790  0.00  0.00    +0.000 A 
ATOM     18  C   UNL     1      45.082   5.632  12.722  0.00  0.00    +0.000 A 
ATOM     19  C   UNL     1      45.922   5.228  13.757  0.00  0.00    +0.000 A 
ATOM     20  C   UNL     1      46.353   3.903  13.838  0.00  0.00    +0.000 A 
ATOM     21  N   UNL     1      47.135   3.434  14.865  0.00  0.00    +0.000 N 
ATOM     22  N   UNL     1      45.966   2.990  12.927  0.00  0.00    +0.000 NA
ATOM     23  C   UNL     1      45.122   3.390  11.940  0.00  0.00    +0.000 A 
ATOM     24  H   UNL     1      47.514   2.504  14.716  0.00  0.00    +0.000 HD
BRANCH  17  26
ATOM     25  N   UNL     1      44.055   4.561   9.439  0.00  0.00    +0.000 N 
ATOM     26  C   UNL     1      43.733   5.019  10.687  0.00  0.00    +0.000 C 
ATOM     27  O   UNL     1      42.706   5.648  10.889  0.00  0.00    +0.000 OA
ATOM     28  H   UNL     1      43.367   4.720   8.716  0.00  0.00    +0.000 HD
ATOM     29  H   UNL     1      44.753   3.853   9.278  0.00  0.00    +0.000 HD
ENDBRANCH  17  26
ENDBRANCH  16  21
ENDBRANCH   1  16
TORSDOF 6
ENDMDL
