MODEL 1
REMARK VINA RESULT:    -7.782      0.000      0.000
REMARK INTER + INTRA:         -11.443
REMARK INTER:                 -10.511
REMARK INTRA:                  -0.932
REMARK UNBOUND:                -0.932
REMARK  Name = 
REMARK  6 active torsions:
REMARK  status: ('A' for Active; 'I' for Inactive)
REMARK    1  A    between atoms: C_2  and  C_4
REMARK    2  A    between atoms: C_7  and  O_8
REMARK    3  A    between atoms: O_8  and  C_9
REMARK    4  A    between atoms: C_9  and  C_10
REMARK    5  A    between atoms: C_10  and  C_11
REMARK    6  A    between atoms: C_15  and  C_16
REMARK                            x       y       z     vdW  Elec       q    Type
REMARK                         _______ _______ _______ _____ _____    ______ ____
ROOT
ATOM      1  C   UNL     1      43.405   4.587  10.945  0.00  0.00    +0.000 C 
ENDROOT
BRANCH   1   2
ATOM      2  O   UNL     1      43.501   3.218  10.527  0.00  0.00    +0.000 OA
BRANCH   2   6
ATOM      3  C   UNL     1      46.392   2.766   7.621  0.00  0.00    +0.000 A 
ATOM      4  C   UNL     1      45.910   4.042   7.921  0.00  0.00    +0.000 A 
ATOM      5  C   UNL     1      44.926   4.184   8.905  0.00  0.00    +0.000 A 
ATOM      6  C   UNL     1      44.464   3.045   9.551  0.00  0.00    +0.000 A 
ATOM      7  N   UNL     1      44.907   1.800   9.268  0.00  0.00    +0.000 NA
ATOM      8  C   UNL     1      45.851   1.686   8.307  0.00  0.00    +0.000 A 
BRANCH   3  10
ATOM      9  N   UNL     1      47.313   3.147   5.404  0.00  0.00    +0.000 N 
ATOM     10  C   UNL     1      47.428   2.500   6.602  0.00  0.00    +0.000 C 
ATOM     11  O   UNL     1      48.377   1.764   6.835  0.00  0.00    +0.000 OA
ATOM     12  H   UNL     1      48.095   3.044   4.767  0.00  0.00    +0.000 HD
ATOM     13  H   UNL     1      46.709   3.945   5.271  0.00  0.00    +0.000 HD
ENDBRANCH   3  10
ENDBRANCH   2   6
ENDBRANCH   1   2
BRANCH   1  14
ATOM     14  C   UNL     1      43.675   4.679  12.447  0.00  0.00    +0.000 C 
BRANCH  14  15
ATOM     15  C   UNL     1      45.084   5.125  12.734  0.00  0.00    +0.000 A 
ATOM     16  C   UNL     1      45.998   4.268  13.333  0.00  0.00    +0.000 A 
ATOM     17  N   UNL     1      47.278   4.601  13.595  0.00  0.00    +0.000 NA
ATOM     18  C   UNL     1      47.671   5.847  13.236  0.00  0.00    +0.000 A 
ATOM     19  C   UNL     1      46.865   6.800  12.610  0.00  0.00    +0.000 A 
ATOM     20  C   UNL     1      45.539   6.399  12.365  0.00  0.00    +0.000 A 
BRANCH  19  21
ATOM     21  C   UNL     1      47.375   8.133  12.223  0.00  0.00    +0.000 A 
ATOM     22  C   UNL     1      48.705   8.341  11.822  0.00  0.00    +0.000 A 
ATOM     23  C   UNL     1      49.152   9.612  11.459  0.00  0.00    +0.000 A 
ATOM     24  C   UNL     1      48.254  10.661  11.497  0.00  0.00    +0.000 A 
ATOM     25  N   UNL     1      46.968  10.522  11.874  0.00  0.00    +0.000 NA
ATOM     26  C   UNL     1      46.568   9.274  12.229  0.00  0.00    +0.000 A 
ENDBRANCH  19  21
ENDBRANCH  14  15
ENDBRANCH   1  14
TORSDOF 6
ENDMDL
MODEL 2
REMARK VINA RESULT:    -7.729      2.101      3.763
REMARK INTER + INTRA:         -11.373
REMARK INTER:                 -10.601
REMARK INTRA:                  -0.771
REMARK UNBOUND:                -0.932
REMARK  Name = 
REMARK  6 active torsions:
REMARK  status: ('A' for Active; 'I' for Inactive)
REMARK    1  A    between atoms: C_2  and  C_4
REMARK    2  A    between atoms: C_7  and  O_8
REMARK    3  A    between atoms: O_8  and  C_9
REMARK    4  A    between atoms: C_9  and  C_10
REMARK    5  A    between atoms: C_10  and  C_11
REMARK    6  A    between atoms: C_15  and  C_16
REMARK                            x       y       z     vdW  Elec       q    Type
REMARK                         _______ _______ _______ _____ _____    ______ ____
ROOT
ATOM      1  C   UNL     1      43.701   4.372  10.535  0.00  0.00    +0.000 C 
ENDROOT
BRANCH   1   2
ATOM      2  O   UNL     1      43.679   3.006  10.099  0.00  0.00    +0.000 OA
BRANCH   2   6
ATOM      3  C   UNL     1      46.624   2.305   7.299  0.00  0.00    +0.000 A 
ATOM      4  C   UNL     1      46.055   3.576   7.397  0.00  0.00    +0.000 A 
ATOM      5  C   UNL     1      45.054   3.802   8.347  0.00  0.00    +0.000 A 
ATOM      6  C   UNL     1      44.662   2.749   9.162  0.00  0.00    +0.000 A 
ATOM      7  N   UNL     1      45.189   1.508   9.076  0.00  0.00    +0.000 NA
ATOM      8  C   UNL     1      46.149   1.309   8.145  0.00  0.00    +0.000 A 
BRANCH   3  10
ATOM      9  N   UNL     1      48.818   2.721   6.339  0.00  0.00    +0.000 N 
ATOM     10  C   UNL     1      47.687   1.954   6.334  0.00  0.00    +0.000 C 
ATOM     11  O   UNL     1      47.580   0.989   5.590  0.00  0.00    +0.000 OA
ATOM     12  H   UNL     1      49.579   2.392   5.756  0.00  0.00    +0.000 HD
ATOM     13  H   UNL     1      49.051   3.344   7.098  0.00  0.00    +0.000 HD
ENDBRANCH   3  10
ENDBRANCH   2   6
ENDBRANCH   1   2
BRANCH   1  14
ATOM     14  C   UNL     1      43.846   4.417  12.056  0.00  0.00    +0.000 C 
BRANCH  14  15
ATOM     15  C   UNL     1      45.189   4.954  12.474  0.00  0.00    +0.000 A 
ATOM     16  C   UNL     1      45.888   5.842  11.666  0.00  0.00    +0.000 A 
ATOM     17  N   UNL     1      47.081   6.375  11.995  0.00  0.00    +0.000 NA
ATOM     18  C   UNL     1      47.603   6.013  13.193  0.00  0.00    +0.000 A 
ATOM     19  C   UNL     1      46.999   5.150  14.109  0.00  0.00    +0.000 A 
ATOM     20  C   UNL     1      45.759   4.622  13.711  0.00  0.00    +0.000 A 
BRANCH  19  21
ATOM     21  C   UNL     1      47.620   4.824  15.411  0.00  0.00    +0.000 A 
ATOM     22  C   UNL     1      47.441   3.581  16.039  0.00  0.00    +0.000 A 
ATOM     23  C   UNL     1      48.046   3.305  17.266  0.00  0.00    +0.000 A 
ATOM     24  C   UNL     1      48.831   4.283  17.847  0.00  0.00    +0.000 A 
ATOM     25  N   UNL     1      49.037   5.494  17.293  0.00  0.00    +0.000 NA
ATOM     26  C   UNL     1      48.428   5.731  16.104  0.00  0.00    +0.000 A 
ENDBRANCH  19  21
ENDBRANCH  14  15
ENDBRANCH   1  14
TORSDOF 6
ENDMDL
MODEL 3
REMARK VINA RESULT:    -7.666      1.506      1.675
REMARK INTER + INTRA:         -11.287
REMARK INTER:                 -10.472
REMARK INTRA:                  -0.814
REMARK UNBOUND:                -0.932
REMARK  Name = 
REMARK  6 active torsions:
REMARK  status: ('A' for Active; 'I' for Inactive)
REMARK    1  A    between atoms: C_2  and  C_4
REMARK    2  A    between atoms: C_7  and  O_8
REMARK    3  A    between atoms: O_8  and  C_9
REMARK    4  A    between atoms: C_9  and  C_10
REMARK    5  A    between atoms: C_10  and  C_11
REMARK    6  A    between atoms: C_15  and  C_16
REMARK                            x       y       z     vdW  Elec       q    Type
REMARK                         _______ _______ _______ _____ _____    ______ ____
ROOT
ATOM      1  C   UNL     1      43.639   5.023  10.241  0.00  0.00    +0.000 C 
ENDROOT
BRANCH   1   2
ATOM      2  O   UNL     1      43.911   3.616  10.304  0.00  0.00    +0.000 OA
BRANCH   2   6
ATOM      3  C   UNL     1      46.574   2.499   7.360  0.00  0.00    +0.000 A 
ATOM      4  C   UNL     1      46.147   3.826   7.435  0.00  0.00    +0.000 A 
ATOM      5  C   UNL     1      45.240   4.193   8.434  0.00  0.00    +0.000 A 
ATOM      6  C   UNL     1      44.798   3.220   9.320  0.00  0.00    +0.000 A 
ATOM      7  N   UNL     1      45.188   1.928   9.258  0.00  0.00    +0.000 NA
ATOM      8  C   UNL     1      46.057   1.593   8.278  0.00  0.00    +0.000 A 
BRANCH   3  10
ATOM      9  N   UNL     1      48.765   2.580   6.310  0.00  0.00    +0.000 N 
ATOM     10  C   UNL     1      47.528   2.000   6.347  0.00  0.00    +0.000 C 
ATOM     11  O   UNL     1      47.241   1.075   5.601  0.00  0.00    +0.000 OA
ATOM     12  H   UNL     1      49.440   2.145   5.692  0.00  0.00    +0.000 HD
ATOM     13  H   UNL     1      49.124   3.148   7.063  0.00  0.00    +0.000 HD
ENDBRANCH   3  10
ENDBRANCH   2   6
ENDBRANCH   1   2
BRANCH   1  14
ATOM     14  C   UNL     1      43.483   5.573  11.659  0.00  0.00    +0.000 C 
BRANCH  14  15
ATOM     15  C   UNL     1      44.742   5.400  12.467  0.00  0.00    +0.000 A 
ATOM     16  C   UNL     1      44.869   4.360  13.380  0.00  0.00    +0.000 A 
ATOM     17  N   UNL     1      45.977   4.139  14.115  0.00  0.00    +0.000 NA
ATOM     18  C   UNL     1      47.015   4.990  13.926  0.00  0.00    +0.000 A 
ATOM     19  C   UNL     1      47.031   6.060  13.029  0.00  0.00    +0.000 A 
ATOM     20  C   UNL     1      45.847   6.245  12.293  0.00  0.00    +0.000 A 
BRANCH  19  21
ATOM     21  C   UNL     1      48.214   6.929  12.860  0.00  0.00    +0.000 A 
ATOM     22  C   UNL     1      48.478   7.617  11.664  0.00  0.00    +0.000 A 
ATOM     23  C   UNL     1      49.602   8.433  11.540  0.00  0.00    +0.000 A 
ATOM     24  C   UNL     1      50.449   8.555  12.625  0.00  0.00    +0.000 A 
ATOM     25  N   UNL     1      50.249   7.920  13.797  0.00  0.00    +0.000 NA
ATOM     26  C   UNL     1      49.150   7.128  13.880  0.00  0.00    +0.000 A 
ENDBRANCH  19  21
ENDBRANCH  14  15
ENDBRANCH   1  14
TORSDOF 6
ENDMDL
MODEL 4
REMARK VINA RESULT:    -7.447      2.963      7.442
REMARK INTER + INTRA:         -10.992
REMARK INTER:                 -10.104
REMARK INTRA:                  -0.887
REMARK UNBOUND:                -0.932
REMARK  Name = 
REMARK  6 active torsions:
REMARK  status: ('A' for Active; 'I' for Inactive)
REMARK    1  A    between atoms: C_2  and  C_4
REMARK    2  A    between atoms: C_7  and  O_8
REMARK    3  A    between atoms: O_8  and  C_9
REMARK    4  A    between atoms: C_9  and  C_10
REMARK    5  A    between atoms: C_10  and  C_11
REMARK    6  A    between atoms: C_15  and  C_16
REMARK                            x       y       z     vdW  Elec       q    Type
REMARK                         _______ _______ _______ _____ _____    ______ ____
ROOT
ATOM      1  C   UNL     1      45.460   6.586  12.355  0.00  0.00    +0.000 C 
ENDROOT
BRANCH   1   2
ATOM      2  O   UNL     1      46.837   6.189  12.391  0.00  0.00    +0.000 OA
BRANCH   2   6
ATOM      3  C   UNL     1      47.689   3.879  15.700  0.00  0.00    +0.000 A 
ATOM      4  C   UNL     1      47.018   3.310  14.616  0.00  0.00    +0.000 A 
ATOM      5  C   UNL     1      46.729   4.103  13.501  0.00  0.00    +0.000 A 
ATOM      6  C   UNL     1      47.125   5.433  13.512  0.00  0.00    +0.000 A 
ATOM      7  N   UNL     1      47.765   6.009  14.554  0.00  0.00    +0.000 NA
ATOM      8  C   UNL     1      48.025   5.226  15.626  0.00  0.00    +0.000 A 
BRANCH   3  10
ATOM      9  N   UNL     1      47.019   2.707  17.721  0.00  0.00    +0.000 N 
ATOM     10  C   UNL     1      48.044   3.136  16.926  0.00  0.00    +0.000 C 
ATOM     11  O   UNL     1      49.208   2.875  17.200  0.00  0.00    +0.000 OA
ATOM     12  H   UNL     1      47.278   2.100  18.490  0.00  0.00    +0.000 HD
ATOM     13  H   UNL     1      46.062   2.671  17.403  0.00  0.00    +0.000 HD
ENDBRANCH   3  10
ENDBRANCH   2   6
ENDBRANCH   1   2
BRANCH   1  14
ATOM     14  C   UNL     1      44.949   6.517  10.916  0.00  0.00    +0.000 C 
BRANCH  14  15
ATOM     15  C   UNL     1      44.771   5.096  10.453  0.00  0.00    +0.000 A 
ATOM     16  C   UNL     1      43.826   4.265  11.042  0.00  0.00    +0.000 A 
ATOM     17  N   UNL     1      43.603   2.992  10.658  0.00  0.00    +0.000 NA
ATOM     18  C   UNL     1      44.352   2.524   9.630  0.00  0.00    +0.000 A 
ATOM     19  C   UNL     1      45.317   3.256   8.935  0.00  0.00    +0.000 A 
ATOM     20  C   UNL     1      45.510   4.575   9.382  0.00  0.00    +0.000 A 
BRANCH  19  21
ATOM     21  C   UNL     1      46.076   2.683   7.802  0.00  0.00    +0.000 A 
ATOM     22  C   UNL     1      46.306   3.396   6.614  0.00  0.00    +0.000 A 
ATOM     23  C   UNL     1      47.030   2.826   5.567  0.00  0.00    +0.000 A 
ATOM     24  C   UNL     1      47.523   1.545   5.728  0.00  0.00    +0.000 A 
ATOM     25  N   UNL     1      47.333   0.813   6.843  0.00  0.00    +0.000 NA
ATOM     26  C   UNL     1      46.617   1.394   7.839  0.00  0.00    +0.000 A 
ENDBRANCH  19  21
ENDBRANCH  14  15
ENDBRANCH   1  14
TORSDOF 6
ENDMDL
MODEL 5
REMARK VINA RESULT:    -7.131      1.956      2.472
REMARK INTER + INTRA:         -10.565
REMARK INTER:                  -9.929
REMARK INTRA:                  -0.636
REMARK UNBOUND:                -0.932
REMARK  Name = 
REMARK  6 active torsions:
REMARK  status: ('A' for Active; 'I' for Inactive)
REMARK    1  A    between atoms: C_2  and  C_4
REMARK    2  A    between atoms: C_7  and  O_8
REMARK    3  A    between atoms: O_8  and  C_9
REMARK    4  A    between atoms: C_9  and  C_10
REMARK    5  A    between atoms: C_10  and  C_11
REMARK    6  A    between atoms: C_15  and  C_16
REMARK                            x       y       z     vdW  Elec       q    Type
REMARK                         _______ _______ _______ _____ _____    ______ ____
ROOT
ATOM      1  C   UNL     1      43.844   4.949  10.693  0.00  0.00    +0.000 C 
ENDROOT
BRANCH   1   2
ATOM      2  O   UNL     1      43.554   3.638  10.190  0.00  0.00    +0.000 OA
BRANCH   2   6
ATOM      3  C   UNL     1      46.465   2.397   7.546  0.00  0.00    +0.000 A 
ATOM      4  C   UNL     1      46.097   3.743   7.584  0.00  0.00    +0.000 A 
ATOM      5  C   UNL     1      45.105   4.153   8.480  0.00  0.00    +0.000 A 
ATOM      6  C   UNL     1      44.522   3.201   9.306  0.00  0.00    +0.000 A 
ATOM      7  N   UNL     1      44.853   1.891   9.278  0.00  0.00    +0.000 NA
ATOM      8  C   UNL     1      45.808   1.516   8.396  0.00  0.00    +0.000 A 
BRANCH   3  10
ATOM      9  N   UNL     1      48.576   2.649   6.369  0.00  0.00    +0.000 N 
ATOM     10  C   UNL     1      47.498   1.855   6.640  0.00  0.00    +0.000 C 
ATOM     11  O   UNL     1      47.417   0.722   6.184  0.00  0.00    +0.000 OA
ATOM     12  H   UNL     1      49.327   2.214   5.844  0.00  0.00    +0.000 HD
ATOM     13  H   UNL     1      48.806   3.462   6.920  0.00  0.00    +0.000 HD
ENDBRANCH   3  10
ENDBRANCH   2   6
ENDBRANCH   1   2
BRANCH   1  14
ATOM     14  C   UNL     1      44.860   4.843  11.831  0.00  0.00    +0.000 C 
BRANCH  14  15
ATOM     15  C   UNL     1      45.411   6.190  12.215  0.00  0.00    +0.000 A 
ATOM     16  C   UNL     1      46.526   6.300  13.037  0.00  0.00    +0.000 A 
ATOM     17  N   UNL     1      47.079   7.475  13.398  0.00  0.00    +0.000 NA
ATOM     18  C   UNL     1      46.501   8.599  12.908  0.00  0.00    +0.000 A 
ATOM     19  C   UNL     1      45.394   8.633  12.057  0.00  0.00    +0.000 A 
ATOM     20  C   UNL     1      44.856   7.379  11.718  0.00  0.00    +0.000 A 
BRANCH  19  21
ATOM     21  C   UNL     1      44.835   9.901  11.542  0.00  0.00    +0.000 A 
ATOM     22  C   UNL     1      45.442  11.144  11.787  0.00  0.00    +0.000 A 
ATOM     23  C   UNL     1      44.890  12.322  11.281  0.00  0.00    +0.000 A 
ATOM     24  C   UNL     1      43.736  12.236  10.527  0.00  0.00    +0.000 A 
ATOM     25  N   UNL     1      43.109  11.073  10.260  0.00  0.00    +0.000 NA
ATOM     26  C   UNL     1      43.668   9.949  10.774  0.00  0.00    +0.000 A 
ENDBRANCH  19  21
ENDBRANCH  14  15
ENDBRANCH   1  14
TORSDOF 6
ENDMDL
MODEL 6
REMARK VINA RESULT:    -6.883      2.353      3.584
REMARK INTER + INTRA:         -10.230
REMARK INTER:                  -9.632
REMARK INTRA:                  -0.597
REMARK UNBOUND:                -0.932
REMARK  Name = 
REMARK  6 active torsions:
REMARK  status: ('A' for Active; 'I' for Inactive)
REMARK    1  A    between atoms: C_2  and  C_4
REMARK    2  A    between atoms: C_7  and  O_8
REMARK    3  A    between atoms: O_8  and  C_9
REMARK    4  A    between atoms: C_9  and  C_10
REMARK    5  A    between atoms: C_10  and  C_11
REMARK    6  A    between atoms: C_15  and  C_16
REMARK                            x       y       z     vdW  Elec       q    Type
REMARK                         _______ _______ _______ _____ _____    ______ ____
ROOT
ATOM      1  C   UNL     1      45.328   3.757   8.167  0.00  0.00    +0.000 C 
ENDROOT
BRANCH   1   2
ATOM      2  O   UNL     1      46.671   3.281   8.003  0.00  0.00    +0.000 OA
BRANCH   2   6
ATOM      3  C   UNL     1      47.016   0.745   4.770  0.00  0.00    +0.000 A 
ATOM      4  C   UNL     1      46.792   2.107   4.557  0.00  0.00    +0.000 A 
ATOM      5  C   UNL     1      46.671   2.957   5.660  0.00  0.00    +0.000 A 
ATOM      6  C   UNL     1      46.782   2.414   6.933  0.00  0.00    +0.000 A 
ATOM      7  N   UNL     1      46.986   1.098   7.163  0.00  0.00    +0.000 NA
ATOM      8  C   UNL     1      47.090   0.293   6.082  0.00  0.00    +0.000 A 
BRANCH   3  10
ATOM      9  N   UNL     1      46.696  -1.507   3.913  0.00  0.00    +0.000 N 
ATOM     10  C   UNL     1      47.160  -0.243   3.680  0.00  0.00    +0.000 C 
ATOM     11  O   UNL     1      47.634   0.067   2.596  0.00  0.00    +0.000 OA
ATOM     12  H   UNL     1      46.695  -2.132   3.116  0.00  0.00    +0.000 HD
ATOM     13  H   UNL     1      46.074  -1.727   4.677  0.00  0.00    +0.000 HD
ENDBRANCH   3  10
ENDBRANCH   2   6
ENDBRANCH   1   2
BRANCH   1  14
ATOM     14  C   UNL     1      44.568   2.818   9.105  0.00  0.00    +0.000 C 
BRANCH  14  15
ATOM     15  C   UNL     1      44.429   3.401  10.486  0.00  0.00    +0.000 A 
ATOM     16  C   UNL     1      43.676   2.759  11.462  0.00  0.00    +0.000 A 
ATOM     17  N   UNL     1      43.533   3.217  12.721  0.00  0.00    +0.000 NA
ATOM     18  C   UNL     1      44.178   4.369  13.029  0.00  0.00    +0.000 A 
ATOM     19  C   UNL     1      44.984   5.102  12.156  0.00  0.00    +0.000 A 
ATOM     20  C   UNL     1      45.093   4.579  10.856  0.00  0.00    +0.000 A 
BRANCH  19  21
ATOM     21  C   UNL     1      45.680   6.338  12.576  0.00  0.00    +0.000 A 
ATOM     22  C   UNL     1      45.152   7.617  12.335  0.00  0.00    +0.000 A 
ATOM     23  C   UNL     1      45.833   8.762  12.750  0.00  0.00    +0.000 A 
ATOM     24  C   UNL     1      47.037   8.608  13.409  0.00  0.00    +0.000 A 
ATOM     25  N   UNL     1      47.594   7.408  13.666  0.00  0.00    +0.000 NA
ATOM     26  C   UNL     1      46.909   6.316  13.242  0.00  0.00    +0.000 A 
ENDBRANCH  19  21
ENDBRANCH  14  15
ENDBRANCH   1  14
TORSDOF 6
ENDMDL
MODEL 7
REMARK VINA RESULT:    -6.855      2.909      7.109
REMARK INTER + INTRA:         -10.191
REMARK INTER:                  -9.390
REMARK INTRA:                  -0.801
REMARK UNBOUND:                -0.932
REMARK  Name = 
REMARK  6 active torsions:
REMARK  status: ('A' for Active; 'I' for Inactive)
REMARK    1  A    between atoms: C_2  and  C_4
REMARK    2  A    between atoms: C_7  and  O_8
REMARK    3  A    between atoms: O_8  and  C_9
REMARK    4  A    between atoms: C_9  and  C_10
REMARK    5  A    between atoms: C_10  and  C_11
REMARK    6  A    between atoms: C_15  and  C_16
REMARK                            x       y       z     vdW  Elec       q    Type
REMARK                         _______ _______ _______ _____ _____    ______ ____
ROOT
ATOM      1  C   UNL     1      44.735   7.239  11.412  0.00  0.00    +0.000 C 
ENDROOT
BRANCH   1   2
ATOM      2  O   UNL     1      45.089   7.223  12.802  0.00  0.00    +0.000 OA
BRANCH   2   6
ATOM      3  C   UNL     1      49.142   7.781  13.314  0.00  0.00    +0.000 A 
ATOM      4  C   UNL     1      48.683   6.668  12.607  0.00  0.00    +0.000 A 
ATOM      5  C   UNL     1      47.307   6.485  12.443  0.00  0.00    +0.000 A 
ATOM      6  C   UNL     1      46.443   7.424  12.991  0.00  0.00    +0.000 A 
ATOM      7  N   UNL     1      46.863   8.501  13.689  0.00  0.00    +0.000 NA
ATOM      8  C   UNL     1      48.198   8.653  13.844  0.00  0.00    +0.000 A 
BRANCH   3  10
ATOM      9  N   UNL     1      51.414   7.982  12.476  0.00  0.00    +0.000 N 
ATOM     10  C   UNL     1      50.572   8.073  13.547  0.00  0.00    +0.000 C 
ATOM     11  O   UNL     1      50.980   8.424  14.645  0.00  0.00    +0.000 OA
ATOM     12  H   UNL     1      52.364   8.301  12.630  0.00  0.00    +0.000 HD
ATOM     13  H   UNL     1      51.083   7.956  11.523  0.00  0.00    +0.000 HD
ENDBRANCH   3  10
ENDBRANCH   2   6
ENDBRANCH   1   2
BRANCH   1  14
ATOM     14  C   UNL     1      43.429   6.471  11.211  0.00  0.00    +0.000 C 
BRANCH  14  15
ATOM     15  C   UNL     1      43.677   5.020  10.896  0.00  0.00    +0.000 A 
ATOM     16  C   UNL     1      43.055   4.013  11.622  0.00  0.00    +0.000 A 
ATOM     17  N   UNL     1      43.218   2.698  11.374  0.00  0.00    +0.000 NA
ATOM     18  C   UNL     1      44.035   2.368  10.344  0.00  0.00    +0.000 A 
ATOM     19  C   UNL     1      44.704   3.275   9.520  0.00  0.00    +0.000 A 
ATOM     20  C   UNL     1      44.500   4.632   9.829  0.00  0.00    +0.000 A 
BRANCH  19  21
ATOM     21  C   UNL     1      45.559   2.837   8.396  0.00  0.00    +0.000 A 
ATOM     22  C   UNL     1      45.849   3.670   7.303  0.00  0.00    +0.000 A 
ATOM     23  C   UNL     1      46.664   3.225   6.261  0.00  0.00    +0.000 A 
ATOM     24  C   UNL     1      47.185   1.948   6.333  0.00  0.00    +0.000 A 
ATOM     25  N   UNL     1      46.940   1.104   7.355  0.00  0.00    +0.000 NA
ATOM     26  C   UNL     1      46.138   1.565   8.347  0.00  0.00    +0.000 A 
ENDBRANCH  19  21
ENDBRANCH  14  15
ENDBRANCH   1  14
TORSDOF 6
ENDMDL
MODEL 8
REMARK VINA RESULT:    -6.820      4.104      8.367
REMARK INTER + INTRA:         -10.144
REMARK INTER:                  -9.750
REMARK INTRA:                  -0.394
REMARK UNBOUND:                -0.932
REMARK  Name = 
REMARK  6 active torsions:
REMARK  status: ('A' for Active; 'I' for Inactive)
REMARK    1  A    between atoms: C_2  and  C_4
REMARK    2  A    between atoms: C_7  and  O_8
REMARK    3  A    between atoms: O_8  and  C_9
REMARK    4  A    between atoms: C_9  and  C_10
REMARK    5  A    between atoms: C_10  and  C_11
REMARK    6  A    between atoms: C_15  and  C_16
REMARK                            x       y       z     vdW  Elec       q    Type
REMARK                         _______ _______ _______ _____ _____    ______ ____
ROOT
ATOM      1  C   UNL     1      47.063   4.289  13.718  0.00  0.00    +0.000 C 
ENDROOT
BRANCH   1   2
ATOM      2  O   UNL     1      47.265   3.140  14.552  0.00  0.00    +0.000 OA
BRANCH   2   6
ATOM      3  C   UNL     1      48.603   4.147  18.320  0.00  0.00    +0.000 A 
ATOM      4  C   UNL     1      49.006   2.940  17.745  0.00  0.00    +0.000 A 
ATOM      5  C   UNL     1      48.543   2.606  16.469  0.00  0.00    +0.000 A 
ATOM      6  C   UNL     1      47.696   3.492  15.817  0.00  0.00    +0.000 A 
ATOM      7  N   UNL     1      47.283   4.658  16.358  0.00  0.00    +0.000 NA
ATOM      8  C   UNL     1      47.736   4.957  17.597  0.00  0.00    +0.000 A 
BRANCH   3  10
ATOM      9  N   UNL     1      48.477   3.975  20.741  0.00  0.00    +0.000 N 
ATOM     10  C   UNL     1      49.030   4.600  19.660  0.00  0.00    +0.000 C 
ATOM     11  O   UNL     1      49.879   5.470  19.799  0.00  0.00    +0.000 OA
ATOM     12  H   UNL     1      48.870   4.217  21.643  0.00  0.00    +0.000 HD
ATOM     13  H   UNL     1      47.986   3.096  20.671  0.00  0.00    +0.000 HD
ENDBRANCH   3  10
ENDBRANCH   2   6
ENDBRANCH   1   2
BRANCH   1  14
ATOM     14  C   UNL     1      45.565   4.564  13.587  0.00  0.00    +0.000 C 
BRANCH  14  15
ATOM     15  C   UNL     1      44.952   3.793  12.449  0.00  0.00    +0.000 A 
ATOM     16  C   UNL     1      43.698   3.209  12.574  0.00  0.00    +0.000 A 
ATOM     17  N   UNL     1      43.086   2.526  11.586  0.00  0.00    +0.000 NA
ATOM     18  C   UNL     1      43.753   2.427  10.409  0.00  0.00    +0.000 A 
ATOM     19  C   UNL     1      45.005   2.983  10.140  0.00  0.00    +0.000 A 
ATOM     20  C   UNL     1      45.596   3.679  11.209  0.00  0.00    +0.000 A 
BRANCH  19  21
ATOM     21  C   UNL     1      45.657   2.854   8.819  0.00  0.00    +0.000 A 
ATOM     22  C   UNL     1      46.161   1.632   8.345  0.00  0.00    +0.000 A 
ATOM     23  C   UNL     1      46.766   1.545   7.091  0.00  0.00    +0.000 A 
ATOM     24  C   UNL     1      46.852   2.690   6.322  0.00  0.00    +0.000 A 
ATOM     25  N   UNL     1      46.389   3.890   6.724  0.00  0.00    +0.000 NA
ATOM     26  C   UNL     1      45.813   3.940   7.952  0.00  0.00    +0.000 A 
ENDBRANCH  19  21
ENDBRANCH  14  15
ENDBRANCH   1  14
TORSDOF 6
ENDMDL
MODEL 9
REMARK VINA RESULT:    -6.776      3.421      7.704
REMARK INTER + INTRA:         -10.085
REMARK INTER:                  -9.218
REMARK INTRA:                  -0.867
REMARK UNBOUND:                -0.932
REMARK  Name = 
REMARK  6 active torsions:
REMARK  status: ('A' for Active; 'I' for Inactive)
REMARK    1  A    between atoms: C_2  and  C_4
REMARK    2  A    between atoms: C_7  and  O_8
REMARK    3  A    between atoms: O_8  and  C_9
REMARK    4  A    between atoms: C_9  and  C_10
REMARK    5  A    between atoms: C_10  and  C_11
REMARK    6  A    between atoms: C_15  and  C_16
REMARK                            x       y       z     vdW  Elec       q    Type
REMARK                         _______ _______ _______ _____ _____    ______ ____
ROOT
ATOM      1  C   UNL     1      49.505   7.270  13.243  0.00  0.00    +0.000 C 
ENDROOT
BRANCH   1   2
ATOM      2  O   UNL     1      49.292   7.678  14.602  0.00  0.00    +0.000 OA
BRANCH   2   6
ATOM      3  C   UNL     1      48.086   4.570  17.028  0.00  0.00    +0.000 A 
ATOM      4  C   UNL     1      48.997   5.509  17.514  0.00  0.00    +0.000 A 
ATOM      5  C   UNL     1      49.404   6.557  16.681  0.00  0.00    +0.000 A 
ATOM      6  C   UNL     1      48.881   6.625  15.397  0.00  0.00    +0.000 A 
ATOM      7  N   UNL     1      48.009   5.720  14.901  0.00  0.00    +0.000 NA
ATOM      8  C   UNL     1      47.637   4.710  15.720  0.00  0.00    +0.000 A 
BRANCH   3  10
ATOM      9  N   UNL     1      48.267   3.108  18.961  0.00  0.00    +0.000 N 
ATOM     10  C   UNL     1      47.589   3.425  17.819  0.00  0.00    +0.000 C 
ATOM     11  O   UNL     1      46.584   2.810  17.489  0.00  0.00    +0.000 OA
ATOM     12  H   UNL     1      47.841   2.400  19.548  0.00  0.00    +0.000 HD
ATOM     13  H   UNL     1      48.924   3.738  19.398  0.00  0.00    +0.000 HD
ENDBRANCH   3  10
ENDBRANCH   2   6
ENDBRANCH   1   2
BRANCH   1  14
ATOM     14  C   UNL     1      48.790   8.242  12.304  0.00  0.00    +0.000 C 
BRANCH  14  15
ATOM     15  C   UNL     1      47.353   7.852  12.084  0.00  0.00    +0.000 A 
ATOM     16  C   UNL     1      46.315   8.674  12.505  0.00  0.00    +0.000 A 
ATOM     17  N   UNL     1      45.011   8.391  12.316  0.00  0.00    +0.000 NA
ATOM     18  C   UNL     1      44.723   7.236  11.668  0.00  0.00    +0.000 A 
ATOM     19  C   UNL     1      45.665   6.331  11.174  0.00  0.00    +0.000 A 
ATOM     20  C   UNL     1      47.009   6.675  11.403  0.00  0.00    +0.000 A 
BRANCH  19  21
ATOM     21  C   UNL     1      45.272   5.102  10.452  0.00  0.00    +0.000 A 
ATOM     22  C   UNL     1      45.568   4.901   9.093  0.00  0.00    +0.000 A 
ATOM     23  C   UNL     1      45.187   3.727   8.444  0.00  0.00    +0.000 A 
ATOM     24  C   UNL     1      44.516   2.761   9.170  0.00  0.00    +0.000 A 
ATOM     25  N   UNL     1      44.204   2.898  10.474  0.00  0.00    +0.000 NA
ATOM     26  C   UNL     1      44.582   4.056  11.072  0.00  0.00    +0.000 A 
ENDBRANCH  19  21
ENDBRANCH  14  15
ENDBRANCH   1  14
TORSDOF 6
ENDMDL
