MODEL 1
REMARK VINA RESULT:    -7.559      0.000      0.000
REMARK INTER + INTRA:         -12.252
REMARK INTER:                 -11.095
REMARK INTRA:                  -1.157
REMARK UNBOUND:                -1.157
REMARK  Name = 
REMARK  9 active torsions:
REMARK  status: ('A' for Active; 'I' for Inactive)
REMARK    1  A    between atoms: C_1  and  O_2
REMARK    2  A    between atoms: O_2  and  C_3
REMARK    3  A    between atoms: C_8  and  C_9
REMARK    4  A    between atoms: C_9  and  N_10
REMARK    5  A    between atoms: N_10  and  C_11
REMARK    6  A    between atoms: C_11  and  C_12
REMARK    7  A    between atoms: C_15  and  C_16
REMARK    8  A    between atoms: C_16  and  N_17
REMARK    9  A    between atoms: C_18  and  C_20
REMARK                            x       y       z     vdW  Elec       q    Type
REMARK                         _______ _______ _______ _____ _____    ______ ____
ROOT
ATOM      1  C   UNL     1      44.755   4.967  11.890  0.00  0.00    +0.000 A 
ATOM      2  C   UNL     1      44.385   6.318  11.805  0.00  0.00    +0.000 A 
ATOM      3  C   UNL     1      45.207   7.322  12.330  0.00  0.00    +0.000 A 
ATOM      4  C   UNL     1      46.415   6.998  12.956  0.00  0.00    +0.000 A 
ATOM      5  C   UNL     1      46.762   5.646  13.090  0.00  0.00    +0.000 A 
ATOM      6  C   UNL     1      45.945   4.642  12.556  0.00  0.00    +0.000 A 
ENDROOT
BRANCH   1   7
ATOM      7  C   UNL     1      43.893   3.887  11.264  0.00  0.00    +0.000 C 
BRANCH   7   8
ATOM      8  N   UNL     1      44.717   2.796  10.753  0.00  0.00    +0.000 NA
ATOM      9  H   UNL     1      45.686   3.105  10.665  0.00  0.00    +0.000 HD
BRANCH   8  10
ATOM     10  C   UNL     1      44.297   2.348   9.417  0.00  0.00    +0.000 C 
BRANCH  10  16
ATOM     11  C   UNL     1      46.047   3.295   7.808  0.00  0.00    +0.000 A 
ATOM     12  C   UNL     1      47.135   3.055   6.964  0.00  0.00    +0.000 A 
ATOM     13  C   UNL     1      47.629   1.762   6.817  0.00  0.00    +0.000 A 
ATOM     14  C   UNL     1      47.028   0.744   7.532  0.00  0.00    +0.000 A 
ATOM     15  N   UNL     1      45.989   0.930   8.370  0.00  0.00    +0.000 NA
ATOM     16  C   UNL     1      45.500   2.203   8.498  0.00  0.00    +0.000 A 
BRANCH  11  18
ATOM     17  C   UNL     1      46.273   5.418   8.838  0.00  0.00    +0.000 C 
ATOM     18  O   UNL     1      45.507   4.534   8.026  0.00  0.00    +0.000 OA
ENDBRANCH  11  18
ENDBRANCH  10  16
ENDBRANCH   8  10
ENDBRANCH   7   8
ENDBRANCH   1   7
BRANCH   4  19
ATOM     19  C   UNL     1      47.313   8.076  13.505  0.00  0.00    +0.000 C 
BRANCH  19  20
ATOM     20  N   UNL     1      47.684   7.799  14.869  0.00  0.00    +0.000 N 
ATOM     21  C   UNL     1      48.906   7.260  15.178  0.00  0.00    +0.000 C 
ATOM     22  O   UNL     1      49.753   7.036  14.319  0.00  0.00    +0.000 OA
ATOM     23  H   UNL     1      46.933   7.771  15.552  0.00  0.00    +0.000 HD
BRANCH  21  24
ATOM     24  C   UNL     1      49.175   7.016  16.601  0.00  0.00    +0.000 A 
ATOM     25  C   UNL     1      49.747   8.019  17.373  0.00  0.00    +0.000 A 
ATOM     26  S   UNL     1      49.942   7.595  19.012  0.00  0.00    +0.000 S 
ATOM     27  C   UNL     1      49.319   6.036  18.740  0.00  0.00    +0.000 A 
ATOM     28  N   UNL     1      49.230   5.133  19.753  0.00  0.00    +0.000 NA
ATOM     29  C   UNL     1      48.767   3.980  19.402  0.00  0.00    +0.000 A 
ATOM     30  N   UNL     1      48.380   3.651  18.128  0.00  0.00    +0.000 N 
ATOM     31  C   UNL     1      48.428   4.537  17.079  0.00  0.00    +0.000 A 
ATOM     32  O   UNL     1      48.040   4.220  15.959  0.00  0.00    +0.000 OA
ATOM     33  C   UNL     1      48.950   5.847  17.420  0.00  0.00    +0.000 A 
ATOM     34  H   UNL     1      48.020   2.732  17.917  0.00  0.00    +0.000 HD
ENDBRANCH  21  24
ENDBRANCH  19  20
ENDBRANCH   4  19
TORSDOF 8
ENDMDL
MODEL 2
REMARK VINA RESULT:    -7.305      1.225      1.938
REMARK INTER + INTRA:         -11.879
REMARK INTER:                 -10.777
REMARK INTRA:                  -1.102
REMARK UNBOUND:                -1.157
REMARK  Name = 
REMARK  9 active torsions:
REMARK  status: ('A' for Active; 'I' for Inactive)
REMARK    1  A    between atoms: C_1  and  O_2
REMARK    2  A    between atoms: O_2  and  C_3
REMARK    3  A    between atoms: C_8  and  C_9
REMARK    4  A    between atoms: C_9  and  N_10
REMARK    5  A    between atoms: N_10  and  C_11
REMARK    6  A    between atoms: C_11  and  C_12
REMARK    7  A    between atoms: C_15  and  C_16
REMARK    8  A    between atoms: C_16  and  N_17
REMARK    9  A    between atoms: C_18  and  C_20
REMARK                            x       y       z     vdW  Elec       q    Type
REMARK                         _______ _______ _______ _____ _____    ______ ____
ROOT
ATOM      1  C   UNL     1      45.083   4.555  11.636  0.00  0.00    +0.000 A 
ATOM      2  C   UNL     1      45.603   4.457  12.936  0.00  0.00    +0.000 A 
ATOM      3  C   UNL     1      46.432   5.459  13.454  0.00  0.00    +0.000 A 
ATOM      4  C   UNL     1      46.765   6.577  12.683  0.00  0.00    +0.000 A 
ATOM      5  C   UNL     1      46.291   6.652  11.366  0.00  0.00    +0.000 A 
ATOM      6  C   UNL     1      45.454   5.655  10.851  0.00  0.00    +0.000 A 
ENDROOT
BRANCH   1   7
ATOM      7  C   UNL     1      44.135   3.500  11.100  0.00  0.00    +0.000 C 
BRANCH   7   8
ATOM      8  N   UNL     1      44.874   2.374  10.537  0.00  0.00    +0.000 NA
ATOM      9  H   UNL     1      45.875   2.578  10.546  0.00  0.00    +0.000 HD
BRANCH   8  10
ATOM     10  C   UNL     1      44.514   2.106   9.136  0.00  0.00    +0.000 C 
BRANCH  10  16
ATOM     11  C   UNL     1      46.565   1.322   7.820  0.00  0.00    +0.000 A 
ATOM     12  C   UNL     1      47.647   1.656   7.001  0.00  0.00    +0.000 A 
ATOM     13  C   UNL     1      47.852   2.981   6.625  0.00  0.00    +0.000 A 
ATOM     14  C   UNL     1      46.956   3.935   7.069  0.00  0.00    +0.000 A 
ATOM     15  N   UNL     1      45.890   3.658   7.845  0.00  0.00    +0.000 NA
ATOM     16  C   UNL     1      45.703   2.355   8.221  0.00  0.00    +0.000 A 
BRANCH  11  18
ATOM     17  C   UNL     1      46.753  -1.000   7.384  0.00  0.00    +0.000 C 
ATOM     18  O   UNL     1      46.277   0.047   8.225  0.00  0.00    +0.000 OA
ENDBRANCH  11  18
ENDBRANCH  10  16
ENDBRANCH   8  10
ENDBRANCH   7   8
ENDBRANCH   1   7
BRANCH   4  19
ATOM     19  C   UNL     1      47.640   7.668  13.244  0.00  0.00    +0.000 C 
BRANCH  19  20
ATOM     20  N   UNL     1      47.765   7.551  14.674  0.00  0.00    +0.000 N 
ATOM     21  C   UNL     1      48.941   7.155  15.256  0.00  0.00    +0.000 C 
ATOM     22  O   UNL     1      49.950   6.932  14.595  0.00  0.00    +0.000 OA
ATOM     23  H   UNL     1      46.901   7.517  15.208  0.00  0.00    +0.000 HD
BRANCH  21  24
ATOM     24  C   UNL     1      48.952   7.067  16.722  0.00  0.00    +0.000 A 
ATOM     25  C   UNL     1      49.115   8.220  17.478  0.00  0.00    +0.000 A 
ATOM     26  S   UNL     1      49.049   7.952  19.160  0.00  0.00    +0.000 S 
ATOM     27  C   UNL     1      48.853   6.277  18.940  0.00  0.00    +0.000 A 
ATOM     28  N   UNL     1      48.753   5.440  20.008  0.00  0.00    +0.000 NA
ATOM     29  C   UNL     1      48.637   4.192  19.699  0.00  0.00    +0.000 A 
ATOM     30  N   UNL     1      48.609   3.706  18.417  0.00  0.00    +0.000 N 
ATOM     31  C   UNL     1      48.681   4.515  17.308  0.00  0.00    +0.000 A 
ATOM     32  O   UNL     1      48.616   4.049  16.176  0.00  0.00    +0.000 OA
ATOM     33  C   UNL     1      48.821   5.928  17.602  0.00  0.00    +0.000 A 
ATOM     34  H   UNL     1      48.510   2.717  18.240  0.00  0.00    +0.000 HD
ENDBRANCH  21  24
ENDBRANCH  19  20
ENDBRANCH   4  19
TORSDOF 8
ENDMDL
MODEL 3
REMARK VINA RESULT:    -7.004      2.822      8.676
REMARK INTER + INTRA:         -11.437
REMARK INTER:                  -9.907
REMARK INTRA:                  -1.530
REMARK UNBOUND:                -1.157
REMARK  Name = 
REMARK  9 active torsions:
REMARK  status: ('A' for Active; 'I' for Inactive)
REMARK    1  A    between atoms: C_1  and  O_2
REMARK    2  A    between atoms: O_2  and  C_3
REMARK    3  A    between atoms: C_8  and  C_9
REMARK    4  A    between atoms: C_9  and  N_10
REMARK    5  A    between atoms: N_10  and  C_11
REMARK    6  A    between atoms: C_11  and  C_12
REMARK    7  A    between atoms: C_15  and  C_16
REMARK    8  A    between atoms: C_16  and  N_17
REMARK    9  A    between atoms: C_18  and  C_20
REMARK                            x       y       z     vdW  Elec       q    Type
REMARK                         _______ _______ _______ _____ _____    ______ ____
ROOT
ATOM      1  C   UNL     1      50.242   7.303  15.593  0.00  0.00    +0.000 A 
ATOM      2  C   UNL     1      48.880   6.962  15.590  0.00  0.00    +0.000 A 
ATOM      3  C   UNL     1      48.109   7.096  14.430  0.00  0.00    +0.000 A 
ATOM      4  C   UNL     1      48.680   7.578  13.247  0.00  0.00    +0.000 A 
ATOM      5  C   UNL     1      50.026   7.969  13.260  0.00  0.00    +0.000 A 
ATOM      6  C   UNL     1      50.800   7.826  14.418  0.00  0.00    +0.000 A 
ENDROOT
BRANCH   1   7
ATOM      7  C   UNL     1      51.089   7.097  16.833  0.00  0.00    +0.000 C 
BRANCH   7   8
ATOM      8  N   UNL     1      51.554   5.716  16.922  0.00  0.00    +0.000 NA
ATOM      9  H   UNL     1      51.196   5.178  16.131  0.00  0.00    +0.000 HD
BRANCH   8  10
ATOM     10  C   UNL     1      51.082   5.037  18.138  0.00  0.00    +0.000 C 
BRANCH  10  16
ATOM     11  C   UNL     1      49.578   3.212  17.159  0.00  0.00    +0.000 A 
ATOM     12  C   UNL     1      48.284   2.716  16.971  0.00  0.00    +0.000 A 
ATOM     13  C   UNL     1      47.193   3.404  17.493  0.00  0.00    +0.000 A 
ATOM     14  C   UNL     1      47.427   4.564  18.206  0.00  0.00    +0.000 A 
ATOM     15  N   UNL     1      48.656   5.071  18.428  0.00  0.00    +0.000 NA
ATOM     16  C   UNL     1      49.724   4.396  17.899  0.00  0.00    +0.000 A 
BRANCH  11  18
ATOM     17  C   UNL     1      51.204   1.519  17.488  0.00  0.00    +0.000 C 
ATOM     18  O   UNL     1      50.708   2.595  16.697  0.00  0.00    +0.000 OA
ENDBRANCH  11  18
ENDBRANCH  10  16
ENDBRANCH   8  10
ENDBRANCH   7   8
ENDBRANCH   1   7
BRANCH   4  19
ATOM     19  C   UNL     1      47.858   7.705  11.991  0.00  0.00    +0.000 C 
BRANCH  19  20
ATOM     20  N   UNL     1      47.108   6.502  11.736  0.00  0.00    +0.000 N 
ATOM     21  C   UNL     1      45.750   6.459  11.915  0.00  0.00    +0.000 C 
ATOM     22  O   UNL     1      45.107   7.450  12.248  0.00  0.00    +0.000 OA
ATOM     23  H   UNL     1      47.637   5.636  11.676  0.00  0.00    +0.000 HD
BRANCH  21  24
ATOM     24  C   UNL     1      45.089   5.179  11.629  0.00  0.00    +0.000 A 
ATOM     25  C   UNL     1      44.393   4.526  12.637  0.00  0.00    +0.000 A 
ATOM     26  S   UNL     1      43.639   3.085  12.127  0.00  0.00    +0.000 S 
ATOM     27  C   UNL     1      44.261   3.252  10.553  0.00  0.00    +0.000 A 
ATOM     28  N   UNL     1      44.003   2.319   9.598  0.00  0.00    +0.000 NA
ATOM     29  C   UNL     1      44.560   2.555   8.457  0.00  0.00    +0.000 A 
ATOM     30  N   UNL     1      45.348   3.643   8.185  0.00  0.00    +0.000 N 
ATOM     31  C   UNL     1      45.615   4.624   9.110  0.00  0.00    +0.000 A 
ATOM     32  O   UNL     1      46.295   5.603   8.820  0.00  0.00    +0.000 OA
ATOM     33  C   UNL     1      45.018   4.402  10.413  0.00  0.00    +0.000 A 
ATOM     34  H   UNL     1      45.751   3.775   7.268  0.00  0.00    +0.000 HD
ENDBRANCH  21  24
ENDBRANCH  19  20
ENDBRANCH   4  19
TORSDOF 8
ENDMDL
MODEL 4
REMARK VINA RESULT:    -6.789      3.380      8.340
REMARK INTER + INTRA:         -11.121
REMARK INTER:                  -9.620
REMARK INTRA:                  -1.501
REMARK UNBOUND:                -1.157
REMARK  Name = 
REMARK  9 active torsions:
REMARK  status: ('A' for Active; 'I' for Inactive)
REMARK    1  A    between atoms: C_1  and  O_2
REMARK    2  A    between atoms: O_2  and  C_3
REMARK    3  A    between atoms: C_8  and  C_9
REMARK    4  A    between atoms: C_9  and  N_10
REMARK    5  A    between atoms: N_10  and  C_11
REMARK    6  A    between atoms: C_11  and  C_12
REMARK    7  A    between atoms: C_15  and  C_16
REMARK    8  A    between atoms: C_16  and  N_17
REMARK    9  A    between atoms: C_18  and  C_20
REMARK                            x       y       z     vdW  Elec       q    Type
REMARK                         _______ _______ _______ _____ _____    ______ ____
ROOT
ATOM      1  C   UNL     1      50.560   7.296  15.451  0.00  0.00    +0.000 A 
ATOM      2  C   UNL     1      49.230   6.863  15.339  0.00  0.00    +0.000 A 
ATOM      3  C   UNL     1      48.461   7.190  14.216  0.00  0.00    +0.000 A 
ATOM      4  C   UNL     1      49.001   7.963  13.183  0.00  0.00    +0.000 A 
ATOM      5  C   UNL     1      50.312   8.442  13.317  0.00  0.00    +0.000 A 
ATOM      6  C   UNL     1      51.085   8.107  14.435  0.00  0.00    +0.000 A 
ENDROOT
BRANCH   1   7
ATOM      7  C   UNL     1      51.410   6.887  16.639  0.00  0.00    +0.000 C 
BRANCH   7   8
ATOM      8  N   UNL     1      51.616   5.443  16.656  0.00  0.00    +0.000 NA
ATOM      9  H   UNL     1      51.105   5.010  15.886  0.00  0.00    +0.000 HD
BRANCH   8  10
ATOM     10  C   UNL     1      51.123   4.816  17.892  0.00  0.00    +0.000 C 
BRANCH  10  16
ATOM     11  C   UNL     1      48.594   4.897  18.281  0.00  0.00    +0.000 A 
ATOM     12  C   UNL     1      47.342   4.315  18.064  0.00  0.00    +0.000 A 
ATOM     13  C   UNL     1      47.236   3.155  17.303  0.00  0.00    +0.000 A 
ATOM     14  C   UNL     1      48.388   2.615  16.766  0.00  0.00    +0.000 A 
ATOM     15  N   UNL     1      49.615   3.149  16.933  0.00  0.00    +0.000 NA
ATOM     16  C   UNL     1      49.712   4.283  17.694  0.00  0.00    +0.000 A 
BRANCH  11  18
ATOM     17  C   UNL     1      47.722   6.986  18.983  0.00  0.00    +0.000 C 
ATOM     18  O   UNL     1      48.791   6.045  19.000  0.00  0.00    +0.000 OA
ENDBRANCH  11  18
ENDBRANCH  10  16
ENDBRANCH   8  10
ENDBRANCH   7   8
ENDBRANCH   1   7
BRANCH   4  19
ATOM     19  C   UNL     1      48.184   8.301  11.964  0.00  0.00    +0.000 C 
BRANCH  19  20
ATOM     20  N   UNL     1      47.537   7.130  11.430  0.00  0.00    +0.000 N 
ATOM     21  C   UNL     1      46.172   7.049  11.343  0.00  0.00    +0.000 C 
ATOM     22  O   UNL     1      45.443   7.982  11.665  0.00  0.00    +0.000 OA
ATOM     23  H   UNL     1      48.097   6.285  11.368  0.00  0.00    +0.000 HD
BRANCH  21  24
ATOM     24  C   UNL     1      45.621   5.806  10.787  0.00  0.00    +0.000 A 
ATOM     25  C   UNL     1      45.847   5.492   9.453  0.00  0.00    +0.000 A 
ATOM     26  S   UNL     1      45.189   3.992   8.982  0.00  0.00    +0.000 S 
ATOM     27  C   UNL     1      44.532   3.731  10.529  0.00  0.00    +0.000 A 
ATOM     28  N   UNL     1      43.808   2.612  10.801  0.00  0.00    +0.000 NA
ATOM     29  C   UNL     1      43.345   2.556  12.005  0.00  0.00    +0.000 A 
ATOM     30  N   UNL     1      43.544   3.517  12.963  0.00  0.00    +0.000 N 
ATOM     31  C   UNL     1      44.288   4.651  12.742  0.00  0.00    +0.000 A 
ATOM     32  O   UNL     1      44.476   5.472  13.633  0.00  0.00    +0.000 OA
ATOM     33  C   UNL     1      44.826   4.767  11.399  0.00  0.00    +0.000 A 
ATOM     34  H   UNL     1      43.159   3.412  13.890  0.00  0.00    +0.000 HD
ENDBRANCH  21  24
ENDBRANCH  19  20
ENDBRANCH   4  19
TORSDOF 8
ENDMDL
MODEL 5
REMARK VINA RESULT:    -6.663      2.408      3.839
REMARK INTER + INTRA:         -10.936
REMARK INTER:                 -10.358
REMARK INTRA:                  -0.577
REMARK UNBOUND:                -1.157
REMARK  Name = 
REMARK  9 active torsions:
REMARK  status: ('A' for Active; 'I' for Inactive)
REMARK    1  A    between atoms: C_1  and  O_2
REMARK    2  A    between atoms: O_2  and  C_3
REMARK    3  A    between atoms: C_8  and  C_9
REMARK    4  A    between atoms: C_9  and  N_10
REMARK    5  A    between atoms: N_10  and  C_11
REMARK    6  A    between atoms: C_11  and  C_12
REMARK    7  A    between atoms: C_15  and  C_16
REMARK    8  A    between atoms: C_16  and  N_17
REMARK    9  A    between atoms: C_18  and  C_20
REMARK                            x       y       z     vdW  Elec       q    Type
REMARK                         _______ _______ _______ _____ _____    ______ ____
ROOT
ATOM      1  C   UNL     1      45.040   3.776   8.753  0.00  0.00    +0.000 A 
ATOM      2  C   UNL     1      44.410   2.788   9.525  0.00  0.00    +0.000 A 
ATOM      3  C   UNL     1      44.094   3.019  10.869  0.00  0.00    +0.000 A 
ATOM      4  C   UNL     1      44.406   4.242  11.473  0.00  0.00    +0.000 A 
ATOM      5  C   UNL     1      45.082   5.211  10.720  0.00  0.00    +0.000 A 
ATOM      6  C   UNL     1      45.389   4.984   9.373  0.00  0.00    +0.000 A 
ENDROOT
BRANCH   1   7
ATOM      7  C   UNL     1      45.323   3.545   7.281  0.00  0.00    +0.000 C 
BRANCH   7   8
ATOM      8  N   UNL     1      46.654   2.977   7.091  0.00  0.00    +0.000 NA
ATOM      9  H   UNL     1      47.329   3.472   7.677  0.00  0.00    +0.000 HD
BRANCH   8  10
ATOM     10  C   UNL     1      47.130   3.104   5.706  0.00  0.00    +0.000 C 
BRANCH  10  16
ATOM     11  C   UNL     1      47.234   0.557   5.469  0.00  0.00    +0.000 A 
ATOM     12  C   UNL     1      47.005  -0.570   4.675  0.00  0.00    +0.000 A 
ATOM     13  C   UNL     1      46.475  -0.424   3.396  0.00  0.00    +0.000 A 
ATOM     14  C   UNL     1      46.174   0.849   2.951  0.00  0.00    +0.000 A 
ATOM     15  N   UNL     1      46.360   1.963   3.687  0.00  0.00    +0.000 NA
ATOM     16  C   UNL     1      46.895   1.812   4.939  0.00  0.00    +0.000 A 
BRANCH  11  18
ATOM     17  C   UNL     1      46.876  -0.050   7.732  0.00  0.00    +0.000 C 
ATOM     18  O   UNL     1      47.734   0.508   6.742  0.00  0.00    +0.000 OA
ENDBRANCH  11  18
ENDBRANCH  10  16
ENDBRANCH   8  10
ENDBRANCH   7   8
ENDBRANCH   1   7
BRANCH   4  19
ATOM     19  C   UNL     1      44.050   4.503  12.913  0.00  0.00    +0.000 C 
BRANCH  19  20
ATOM     20  N   UNL     1      45.134   5.150  13.608  0.00  0.00    +0.000 N 
ATOM     21  C   UNL     1      46.264   4.460  13.962  0.00  0.00    +0.000 C 
ATOM     22  O   UNL     1      46.427   3.281  13.661  0.00  0.00    +0.000 OA
ATOM     23  H   UNL     1      44.928   6.042  14.049  0.00  0.00    +0.000 HD
BRANCH  21  24
ATOM     24  C   UNL     1      47.303   5.219  14.670  0.00  0.00    +0.000 A 
ATOM     25  C   UNL     1      47.979   6.236  14.010  0.00  0.00    +0.000 A 
ATOM     26  S   UNL     1      49.111   7.053  14.989  0.00  0.00    +0.000 S 
ATOM     27  C   UNL     1      48.776   6.043  16.315  0.00  0.00    +0.000 A 
ATOM     28  N   UNL     1      49.436   6.196  17.495  0.00  0.00    +0.000 NA
ATOM     29  C   UNL     1      49.105   5.345  18.407  0.00  0.00    +0.000 A 
ATOM     30  N   UNL     1      48.169   4.355  18.246  0.00  0.00    +0.000 N 
ATOM     31  C   UNL     1      47.460   4.178  17.083  0.00  0.00    +0.000 A 
ATOM     32  O   UNL     1      46.604   3.304  16.987  0.00  0.00    +0.000 OA
ATOM     33  C   UNL     1      47.801   5.106  16.021  0.00  0.00    +0.000 A 
ATOM     34  H   UNL     1      47.950   3.722  19.002  0.00  0.00    +0.000 HD
ENDBRANCH  21  24
ENDBRANCH  19  20
ENDBRANCH   4  19
TORSDOF 8
ENDMDL
MODEL 6
REMARK VINA RESULT:    -6.596      3.548      8.452
REMARK INTER + INTRA:         -10.837
REMARK INTER:                  -8.708
REMARK INTRA:                  -2.129
REMARK UNBOUND:                -1.157
REMARK  Name = 
REMARK  9 active torsions:
REMARK  status: ('A' for Active; 'I' for Inactive)
REMARK    1  A    between atoms: C_1  and  O_2
REMARK    2  A    between atoms: O_2  and  C_3
REMARK    3  A    between atoms: C_8  and  C_9
REMARK    4  A    between atoms: C_9  and  N_10
REMARK    5  A    between atoms: N_10  and  C_11
REMARK    6  A    between atoms: C_11  and  C_12
REMARK    7  A    between atoms: C_15  and  C_16
REMARK    8  A    between atoms: C_16  and  N_17
REMARK    9  A    between atoms: C_18  and  C_20
REMARK                            x       y       z     vdW  Elec       q    Type
REMARK                         _______ _______ _______ _____ _____    ______ ____
ROOT
ATOM      1  C   UNL     1      50.357   7.345  18.158  0.00  0.00    +0.000 A 
ATOM      2  C   UNL     1      49.164   8.083  18.146  0.00  0.00    +0.000 A 
ATOM      3  C   UNL     1      48.567   8.463  16.939  0.00  0.00    +0.000 A 
ATOM      4  C   UNL     1      49.153   8.120  15.716  0.00  0.00    +0.000 A 
ATOM      5  C   UNL     1      50.372   7.429  15.724  0.00  0.00    +0.000 A 
ATOM      6  C   UNL     1      50.964   7.040  16.932  0.00  0.00    +0.000 A 
ENDROOT
BRANCH   1   7
ATOM      7  C   UNL     1      50.967   6.879  19.466  0.00  0.00    +0.000 C 
BRANCH   7   8
ATOM      8  N   UNL     1      51.272   5.453  19.419  0.00  0.00    +0.000 NA
ATOM      9  H   UNL     1      51.453   5.169  18.455  0.00  0.00    +0.000 HD
BRANCH   8  10
ATOM     10  C   UNL     1      50.158   4.620  19.898  0.00  0.00    +0.000 C 
BRANCH  10  16
ATOM     11  C   UNL     1      49.546   3.638  17.614  0.00  0.00    +0.000 A 
ATOM     12  C   UNL     1      48.579   3.458  16.622  0.00  0.00    +0.000 A 
ATOM     13  C   UNL     1      47.302   3.986  16.790  0.00  0.00    +0.000 A 
ATOM     14  C   UNL     1      47.023   4.669  17.959  0.00  0.00    +0.000 A 
ATOM     15  N   UNL     1      47.917   4.853  18.951  0.00  0.00    +0.000 NA
ATOM     16  C   UNL     1      49.175   4.342  18.771  0.00  0.00    +0.000 A 
BRANCH  11  18
ATOM     17  C   UNL     1      50.933   1.742  17.296  0.00  0.00    +0.000 C 
ATOM     18  O   UNL     1      50.819   3.141  17.541  0.00  0.00    +0.000 OA
ENDBRANCH  11  18
ENDBRANCH  10  16
ENDBRANCH   8  10
ENDBRANCH   7   8
ENDBRANCH   1   7
BRANCH   4  19
ATOM     19  C   UNL     1      48.504   8.510  14.414  0.00  0.00    +0.000 C 
BRANCH  19  20
ATOM     20  N   UNL     1      47.476   7.572  14.043  0.00  0.00    +0.000 N 
ATOM     21  C   UNL     1      47.749   6.500  13.234  0.00  0.00    +0.000 C 
ATOM     22  O   UNL     1      48.884   6.262  12.831  0.00  0.00    +0.000 OA
ATOM     23  H   UNL     1      46.514   7.868  14.180  0.00  0.00    +0.000 HD
BRANCH  21  24
ATOM     24  C   UNL     1      46.624   5.611  12.917  0.00  0.00    +0.000 A 
ATOM     25  C   UNL     1      46.726   4.253  13.188  0.00  0.00    +0.000 A 
ATOM     26  S   UNL     1      45.315   3.372  12.814  0.00  0.00    +0.000 S 
ATOM     27  C   UNL     1      44.535   4.765  12.228  0.00  0.00    +0.000 A 
ATOM     28  N   UNL     1      43.273   4.699  11.724  0.00  0.00    +0.000 NA
ATOM     29  C   UNL     1      42.813   5.824  11.287  0.00  0.00    +0.000 A 
ATOM     30  N   UNL     1      43.500   7.010  11.313  0.00  0.00    +0.000 N 
ATOM     31  C   UNL     1      44.766   7.130  11.834  0.00  0.00    +0.000 A 
ATOM     32  O   UNL     1      45.338   8.214  11.874  0.00  0.00    +0.000 OA
ATOM     33  C   UNL     1      45.333   5.890  12.332  0.00  0.00    +0.000 A 
ATOM     34  H   UNL     1      43.083   7.859  10.961  0.00  0.00    +0.000 HD
ENDBRANCH  21  24
ENDBRANCH  19  20
ENDBRANCH   4  19
TORSDOF 8
ENDMDL
MODEL 7
REMARK VINA RESULT:    -6.292      1.974      2.700
REMARK INTER + INTRA:         -10.392
REMARK INTER:                  -9.998
REMARK INTRA:                  -0.394
REMARK UNBOUND:                -1.157
REMARK  Name = 
REMARK  9 active torsions:
REMARK  status: ('A' for Active; 'I' for Inactive)
REMARK    1  A    between atoms: C_1  and  O_2
REMARK    2  A    between atoms: O_2  and  C_3
REMARK    3  A    between atoms: C_8  and  C_9
REMARK    4  A    between atoms: C_9  and  N_10
REMARK    5  A    between atoms: N_10  and  C_11
REMARK    6  A    between atoms: C_11  and  C_12
REMARK    7  A    between atoms: C_15  and  C_16
REMARK    8  A    between atoms: C_16  and  N_17
REMARK    9  A    between atoms: C_18  and  C_20
REMARK                            x       y       z     vdW  Elec       q    Type
REMARK                         _______ _______ _______ _____ _____    ______ ____
ROOT
ATOM      1  C   UNL     1      44.707   4.737  11.027  0.00  0.00    +0.000 A 
ATOM      2  C   UNL     1      45.390   5.908  10.663  0.00  0.00    +0.000 A 
ATOM      3  C   UNL     1      46.419   6.417  11.463  0.00  0.00    +0.000 A 
ATOM      4  C   UNL     1      46.786   5.771  12.648  0.00  0.00    +0.000 A 
ATOM      5  C   UNL     1      46.071   4.631  13.042  0.00  0.00    +0.000 A 
ATOM      6  C   UNL     1      45.048   4.116  12.237  0.00  0.00    +0.000 A 
ENDROOT
BRANCH   1   7
ATOM      7  C   UNL     1      43.636   4.153  10.127  0.00  0.00    +0.000 C 
BRANCH   7   8
ATOM      8  N   UNL     1      44.080   2.891   9.543  0.00  0.00    +0.000 NA
ATOM      9  H   UNL     1      43.690   2.109  10.070  0.00  0.00    +0.000 HD
BRANCH   8  10
ATOM     10  C   UNL     1      45.541   2.734   9.579  0.00  0.00    +0.000 C 
BRANCH  10  16
ATOM     11  C   UNL     1      46.523   1.503   7.561  0.00  0.00    +0.000 A 
ATOM     12  C   UNL     1      47.061   1.578   6.273  0.00  0.00    +0.000 A 
ATOM     13  C   UNL     1      47.192   2.813   5.645  0.00  0.00    +0.000 A 
ATOM     14  C   UNL     1      46.765   3.941   6.319  0.00  0.00    +0.000 A 
ATOM     15  N   UNL     1      46.224   3.916   7.553  0.00  0.00    +0.000 NA
ATOM     16  C   UNL     1      46.112   2.699   8.170  0.00  0.00    +0.000 A 
BRANCH  11  18
ATOM     17  C   UNL     1      46.763  -0.855   7.584  0.00  0.00    +0.000 C 
ATOM     18  O   UNL     1      46.342   0.333   8.248  0.00  0.00    +0.000 OA
ENDBRANCH  11  18
ENDBRANCH  10  16
ENDBRANCH   8  10
ENDBRANCH   7   8
ENDBRANCH   1   7
BRANCH   4  19
ATOM     19  C   UNL     1      47.907   6.304  13.502  0.00  0.00    +0.000 C 
BRANCH  19  20
ATOM     20  N   UNL     1      47.799   5.829  14.858  0.00  0.00    +0.000 N 
ATOM     21  C   UNL     1      48.818   6.004  15.757  0.00  0.00    +0.000 C 
ATOM     22  O   UNL     1      49.843   6.615  15.467  0.00  0.00    +0.000 OA
ATOM     23  H   UNL     1      47.071   5.145  15.048  0.00  0.00    +0.000 HD
BRANCH  21  24
ATOM     24  C   UNL     1      48.600   5.475  17.110  0.00  0.00    +0.000 A 
ATOM     25  C   UNL     1      48.737   4.114  17.344  0.00  0.00    +0.000 A 
ATOM     26  S   UNL     1      48.507   3.673  18.974  0.00  0.00    +0.000 S 
ATOM     27  C   UNL     1      48.163   5.278  19.417  0.00  0.00    +0.000 A 
ATOM     28  N   UNL     1      47.850   5.597  20.703  0.00  0.00    +0.000 NA
ATOM     29  C   UNL     1      47.584   6.845  20.893  0.00  0.00    +0.000 A 
ATOM     30  N   UNL     1      47.605   7.805  19.915  0.00  0.00    +0.000 N 
ATOM     31  C   UNL     1      47.939   7.536  18.609  0.00  0.00    +0.000 A 
ATOM     32  O   UNL     1      47.984   8.426  17.767  0.00  0.00    +0.000 OA
ATOM     33  C   UNL     1      48.240   6.143  18.339  0.00  0.00    +0.000 A 
ATOM     34  H   UNL     1      47.392   8.769  20.129  0.00  0.00    +0.000 HD
ENDBRANCH  21  24
ENDBRANCH  19  20
ENDBRANCH   4  19
TORSDOF 8
ENDMDL
MODEL 8
REMARK VINA RESULT:    -6.171      2.910      9.138
REMARK INTER + INTRA:         -10.214
REMARK INTER:                  -8.722
REMARK INTRA:                  -1.492
REMARK UNBOUND:                -1.157
REMARK  Name = 
REMARK  9 active torsions:
REMARK  status: ('A' for Active; 'I' for Inactive)
REMARK    1  A    between atoms: C_1  and  O_2
REMARK    2  A    between atoms: O_2  and  C_3
REMARK    3  A    between atoms: C_8  and  C_9
REMARK    4  A    between atoms: C_9  and  N_10
REMARK    5  A    between atoms: N_10  and  C_11
REMARK    6  A    between atoms: C_11  and  C_12
REMARK    7  A    between atoms: C_15  and  C_16
REMARK    8  A    between atoms: C_16  and  N_17
REMARK    9  A    between atoms: C_18  and  C_20
REMARK                            x       y       z     vdW  Elec       q    Type
REMARK                         _______ _______ _______ _____ _____    ______ ____
ROOT
ATOM      1  C   UNL     1      50.065   8.397  14.007  0.00  0.00    +0.000 A 
ATOM      2  C   UNL     1      49.063   9.215  14.551  0.00  0.00    +0.000 A 
ATOM      3  C   UNL     1      47.736   9.109  14.118  0.00  0.00    +0.000 A 
ATOM      4  C   UNL     1      47.382   8.187  13.128  0.00  0.00    +0.000 A 
ATOM      5  C   UNL     1      48.389   7.406  12.545  0.00  0.00    +0.000 A 
ATOM      6  C   UNL     1      49.715   7.505  12.984  0.00  0.00    +0.000 A 
ENDROOT
BRANCH   1   7
ATOM      7  C   UNL     1      51.489   8.470  14.522  0.00  0.00    +0.000 C 
BRANCH   7   8
ATOM      8  N   UNL     1      51.846   7.249  15.237  0.00  0.00    +0.000 NA
ATOM      9  H   UNL     1      51.124   6.542  15.098  0.00  0.00    +0.000 HD
BRANCH   8  10
ATOM     10  C   UNL     1      51.955   7.455  16.689  0.00  0.00    +0.000 C 
BRANCH  10  16
ATOM     11  C   UNL     1      49.792   6.233  17.307  0.00  0.00    +0.000 A 
ATOM     12  C   UNL     1      48.533   6.283  17.912  0.00  0.00    +0.000 A 
ATOM     13  C   UNL     1      48.093   7.463  18.506  0.00  0.00    +0.000 A 
ATOM     14  C   UNL     1      48.935   8.558  18.492  0.00  0.00    +0.000 A 
ATOM     15  N   UNL     1      50.163   8.552  17.937  0.00  0.00    +0.000 NA
ATOM     16  C   UNL     1      50.583   7.392  17.343  0.00  0.00    +0.000 A 
BRANCH  11  18
ATOM     17  C   UNL     1      50.600   4.022  17.582  0.00  0.00    +0.000 C 
ATOM     18  O   UNL     1      50.313   5.114  16.715  0.00  0.00    +0.000 OA
ENDBRANCH  11  18
ENDBRANCH  10  16
ENDBRANCH   8  10
ENDBRANCH   7   8
ENDBRANCH   1   7
BRANCH   4  19
ATOM     19  C   UNL     1      45.951   8.056  12.674  0.00  0.00    +0.000 C 
BRANCH  19  20
ATOM     20  N   UNL     1      45.651   6.701  12.288  0.00  0.00    +0.000 N 
ATOM     21  C   UNL     1      44.503   6.393  11.606  0.00  0.00    +0.000 C 
ATOM     22  O   UNL     1      43.707   7.257  11.250  0.00  0.00    +0.000 OA
ATOM     23  H   UNL     1      46.173   5.965  12.755  0.00  0.00    +0.000 HD
BRANCH  21  24
ATOM     24  C   UNL     1      44.298   4.978  11.268  0.00  0.00    +0.000 A 
ATOM     25  C   UNL     1      43.548   4.173  12.115  0.00  0.00    +0.000 A 
ATOM     26  S   UNL     1      43.359   2.576  11.550  0.00  0.00    +0.000 S 
ATOM     27  C   UNL     1      44.317   2.888  10.180  0.00  0.00    +0.000 A 
ATOM     28  N   UNL     1      44.578   1.908   9.273  0.00  0.00    +0.000 NA
ATOM     29  C   UNL     1      45.341   2.274   8.298  0.00  0.00    +0.000 A 
ATOM     30  N   UNL     1      45.864   3.532   8.147  0.00  0.00    +0.000 N 
ATOM     31  C   UNL     1      45.609   4.559   9.024  0.00  0.00    +0.000 A 
ATOM     32  O   UNL     1      46.065   5.682   8.839  0.00  0.00    +0.000 OA
ATOM     33  C   UNL     1      44.761   4.198  10.144  0.00  0.00    +0.000 A 
ATOM     34  H   UNL     1      46.452   3.758   7.358  0.00  0.00    +0.000 HD
ENDBRANCH  21  24
ENDBRANCH  19  20
ENDBRANCH   4  19
TORSDOF 8
ENDMDL
MODEL 9
REMARK VINA RESULT:    -5.875      4.957      8.137
REMARK INTER + INTRA:          -9.779
REMARK INTER:                  -8.422
REMARK INTRA:                  -1.357
REMARK UNBOUND:                -1.157
REMARK  Name = 
REMARK  9 active torsions:
REMARK  status: ('A' for Active; 'I' for Inactive)
REMARK    1  A    between atoms: C_1  and  O_2
REMARK    2  A    between atoms: O_2  and  C_3
REMARK    3  A    between atoms: C_8  and  C_9
REMARK    4  A    between atoms: C_9  and  N_10
REMARK    5  A    between atoms: N_10  and  C_11
REMARK    6  A    between atoms: C_11  and  C_12
REMARK    7  A    between atoms: C_15  and  C_16
REMARK    8  A    between atoms: C_16  and  N_17
REMARK    9  A    between atoms: C_18  and  C_20
REMARK                            x       y       z     vdW  Elec       q    Type
REMARK                         _______ _______ _______ _____ _____    ______ ____
ROOT
ATOM      1  C   UNL     1      51.073   8.396  12.484  0.00  0.00    +0.000 A 
ATOM      2  C   UNL     1      50.450   8.848  13.657  0.00  0.00    +0.000 A 
ATOM      3  C   UNL     1      49.054   8.853  13.772  0.00  0.00    +0.000 A 
ATOM      4  C   UNL     1      48.252   8.413  12.715  0.00  0.00    +0.000 A 
ATOM      5  C   UNL     1      48.869   8.011  11.523  0.00  0.00    +0.000 A 
ATOM      6  C   UNL     1      50.265   7.997  11.411  0.00  0.00    +0.000 A 
ENDROOT
BRANCH   1   7
ATOM      7  C   UNL     1      52.585   8.332  12.386  0.00  0.00    +0.000 C 
BRANCH   7   8
ATOM      8  N   UNL     1      53.085   9.300  11.415  0.00  0.00    +0.000 NA
ATOM      9  H   UNL     1      52.371   9.480  10.707  0.00  0.00    +0.000 HD
BRANCH   8  10
ATOM     10  C   UNL     1      54.274   8.818  10.696  0.00  0.00    +0.000 C 
BRANCH  10  16
ATOM     11  C   UNL     1      53.037   8.047   8.593  0.00  0.00    +0.000 A 
ATOM     12  C   UNL     1      52.719   7.002   7.720  0.00  0.00    +0.000 A 
ATOM     13  C   UNL     1      53.228   5.727   7.947  0.00  0.00    +0.000 A 
ATOM     14  C   UNL     1      54.057   5.534   9.036  0.00  0.00    +0.000 A 
ATOM     15  N   UNL     1      54.405   6.514   9.894  0.00  0.00    +0.000 NA
ATOM     16  C   UNL     1      53.889   7.763   9.671  0.00  0.00    +0.000 A 
BRANCH  11  18
ATOM     17  C   UNL     1      53.222  10.090   7.406  0.00  0.00    +0.000 C 
ATOM     18  O   UNL     1      52.597   9.333   8.438  0.00  0.00    +0.000 OA
ENDBRANCH  11  18
ENDBRANCH  10  16
ENDBRANCH   8  10
ENDBRANCH   7   8
ENDBRANCH   1   7
BRANCH   4  19
ATOM     19  C   UNL     1      46.750   8.397  12.841  0.00  0.00    +0.000 C 
BRANCH  19  20
ATOM     20  N   UNL     1      46.223   7.075  12.620  0.00  0.00    +0.000 N 
ATOM     21  C   UNL     1      45.165   6.863  11.776  0.00  0.00    +0.000 C 
ATOM     22  O   UNL     1      44.653   7.775  11.134  0.00  0.00    +0.000 OA
ATOM     23  H   UNL     1      46.483   6.360  13.294  0.00  0.00    +0.000 HD
BRANCH  21  24
ATOM     24  C   UNL     1      44.708   5.475  11.630  0.00  0.00    +0.000 A 
ATOM     25  C   UNL     1      44.026   4.864  12.674  0.00  0.00    +0.000 A 
ATOM     26  S   UNL     1      43.517   3.276  12.323  0.00  0.00    +0.000 S 
ATOM     27  C   UNL     1      44.236   3.327  10.782  0.00  0.00    +0.000 A 
ATOM     28  N   UNL     1      44.186   2.250   9.952  0.00  0.00    +0.000 NA
ATOM     29  C   UNL     1      44.797   2.416   8.827  0.00  0.00    +0.000 A 
ATOM     30  N   UNL     1      45.451   3.562   8.456  0.00  0.00    +0.000 N 
ATOM     31  C   UNL     1      45.507   4.682   9.250  0.00  0.00    +0.000 A 
ATOM     32  O   UNL     1      46.070   5.704   8.871  0.00  0.00    +0.000 OA
ATOM     33  C   UNL     1      44.841   4.546  10.532  0.00  0.00    +0.000 A 
ATOM     34  H   UNL     1      45.906   3.632   7.557  0.00  0.00    +0.000 HD
ENDBRANCH  21  24
ENDBRANCH  19  20
ENDBRANCH   4  19
TORSDOF 8
ENDMDL
