MODEL 1
REMARK VINA RESULT:    -8.090      0.000      0.000
REMARK INTER + INTRA:         -13.383
REMARK INTER:                 -12.111
REMARK INTRA:                  -1.272
REMARK UNBOUND:                -1.272
REMARK  Name = 
REMARK  10 active torsions:
REMARK  status: ('A' for Active; 'I' for Inactive)
REMARK    1  A    between atoms: C_1  and  C_2
REMARK    2  A    between atoms: C_2  and  C_3
REMARK    3  A    between atoms: C_6  and  C_7
REMARK    4  A    between atoms: N_9  and  C_10
REMARK    5  A    between atoms: C_10  and  C_11
REMARK    6  A    between atoms: C_14  and  C_15
REMARK    7  A    between atoms: C_15  and  N_16
REMARK    8  A    between atoms: N_16  and  C_17
REMARK    9  A    between atoms: C_17  and  C_18
REMARK   10  A    between atoms: C_30  and  O_31
REMARK                            x       y       z     vdW  Elec       q    Type
REMARK                         _______ _______ _______ _____ _____    ______ ____
ROOT
ATOM      1  C   UNL     1      48.914   7.686  15.078  0.00  0.00    +0.000 C 
ATOM      2  O   UNL     1      49.880   8.189  14.517  0.00  0.00    +0.000 OA
ATOM      3  N   UNL     1      47.801   7.257  14.397  0.00  0.00    +0.000 N 
ATOM      4  H   UNL     1      46.940   7.121  14.908  0.00  0.00    +0.000 HD
ENDROOT
BRANCH   1   8
ATOM      5  C   UNL     1      48.539   3.976  17.950  0.00  0.00    +0.000 A 
ATOM      6  C   UNL     1      48.594   4.953  16.950  0.00  0.00    +0.000 A 
ATOM      7  C   UNL     1      48.708   6.318  17.307  0.00  0.00    +0.000 A 
ATOM      8  C   UNL     1      48.851   7.537  16.534  0.00  0.00    +0.000 A 
ATOM      9  C   UNL     1      49.004   8.634  17.366  0.00  0.00    +0.000 A 
ATOM     10  S   UNL     1      48.927   8.239  19.023  0.00  0.00    +0.000 S 
ATOM     11  C   UNL     1      48.749   6.583  18.675  0.00  0.00    +0.000 A 
ATOM     12  N   UNL     1      48.681   5.685  19.680  0.00  0.00    +0.000 NA
ATOM     13  C   UNL     1      48.591   4.415  19.261  0.00  0.00    +0.000 A 
BRANCH   5  15
ATOM     14  C   UNL     1      49.845   2.062  17.018  0.00  0.00    +0.000 C 
ATOM     15  C   UNL     1      48.507   2.518  17.583  0.00  0.00    +0.000 C 
ENDBRANCH   5  15
BRANCH  13  16
ATOM     16  O   UNL     1      48.582   3.523  20.286  0.00  0.00    +0.000 OA
ATOM     17  H   UNL     1      49.366   3.824  20.783  0.00  0.00    +0.000 HD
ENDBRANCH  13  16
ENDBRANCH   1   8
BRANCH   3  18
ATOM     18  C   UNL     1      47.725   7.355  12.957  0.00  0.00    +0.000 C 
BRANCH  18  19
ATOM     19  C   UNL     1      46.719   6.371  12.422  0.00  0.00    +0.000 A 
ATOM     20  C   UNL     1      46.219   6.510  11.122  0.00  0.00    +0.000 A 
ATOM     21  C   UNL     1      45.229   5.646  10.646  0.00  0.00    +0.000 A 
ATOM     22  C   UNL     1      44.715   4.626  11.460  0.00  0.00    +0.000 A 
ATOM     23  C   UNL     1      45.222   4.483  12.758  0.00  0.00    +0.000 A 
ATOM     24  C   UNL     1      46.213   5.348  13.236  0.00  0.00    +0.000 A 
BRANCH  22  25
ATOM     25  C   UNL     1      43.626   3.711  10.944  0.00  0.00    +0.000 C 
BRANCH  25  26
ATOM     26  N   UNL     1      43.898   3.307   9.570  0.00  0.00    +0.000 NA
ATOM     27  H   UNL     1      44.373   4.066   9.083  0.00  0.00    +0.000 HD
BRANCH  26  28
ATOM     28  C   UNL     1      44.727   2.106   9.498  0.00  0.00    +0.000 C 
BRANCH  28  29
ATOM     29  C   UNL     1      45.702   2.212   8.348  0.00  0.00    +0.000 A 
ATOM     30  C   UNL     1      46.508   1.128   7.977  0.00  0.00    +0.000 A 
ATOM     31  C   UNL     1      47.434   1.257   6.938  0.00  0.00    +0.000 A 
ATOM     32  C   UNL     1      47.559   2.468   6.258  0.00  0.00    +0.000 A 
ATOM     33  C   UNL     1      46.752   3.547   6.605  0.00  0.00    +0.000 A 
ATOM     34  C   UNL     1      45.824   3.418   7.639  0.00  0.00    +0.000 A 
ENDBRANCH  28  29
ENDBRANCH  26  28
ENDBRANCH  25  26
ENDBRANCH  22  25
ENDBRANCH  18  19
ENDBRANCH   3  18
TORSDOF 9
ENDMDL
MODEL 2
REMARK VINA RESULT:    -7.285      2.146      3.158
REMARK INTER + INTRA:         -12.178
REMARK INTER:                 -11.215
REMARK INTRA:                  -0.963
REMARK UNBOUND:                -1.272
REMARK  Name = 
REMARK  10 active torsions:
REMARK  status: ('A' for Active; 'I' for Inactive)
REMARK    1  A    between atoms: C_1  and  C_2
REMARK    2  A    between atoms: C_2  and  C_3
REMARK    3  A    between atoms: C_6  and  C_7
REMARK    4  A    between atoms: N_9  and  C_10
REMARK    5  A    between atoms: C_10  and  C_11
REMARK    6  A    between atoms: C_14  and  C_15
REMARK    7  A    between atoms: C_15  and  N_16
REMARK    8  A    between atoms: N_16  and  C_17
REMARK    9  A    between atoms: C_17  and  C_18
REMARK   10  A    between atoms: C_30  and  O_31
REMARK                            x       y       z     vdW  Elec       q    Type
REMARK                         _______ _______ _______ _____ _____    ______ ____
ROOT
ATOM      1  C   UNL     1      48.460   5.704  16.175  0.00  0.00    +0.000 C 
ATOM      2  O   UNL     1      49.218   4.808  16.525  0.00  0.00    +0.000 OA
ATOM      3  N   UNL     1      47.453   5.508  15.261  0.00  0.00    +0.000 N 
ATOM      4  H   UNL     1      47.052   6.312  14.799  0.00  0.00    +0.000 HD
ENDROOT
BRANCH   1   8
ATOM      5  C   UNL     1      47.761   7.715  20.372  0.00  0.00    +0.000 A 
ATOM      6  C   UNL     1      47.865   6.961  19.198  0.00  0.00    +0.000 A 
ATOM      7  C   UNL     1      48.318   7.576  18.007  0.00  0.00    +0.000 A 
ATOM      8  C   UNL     1      48.592   7.075  16.673  0.00  0.00    +0.000 A 
ATOM      9  C   UNL     1      49.100   8.078  15.863  0.00  0.00    +0.000 A 
ATOM     10  S   UNL     1      49.199   9.589  16.645  0.00  0.00    +0.000 S 
ATOM     11  C   UNL     1      48.625   8.933  18.106  0.00  0.00    +0.000 A 
ATOM     12  N   UNL     1      48.525   9.710  19.204  0.00  0.00    +0.000 NA
ATOM     13  C   UNL     1      48.106   9.052  20.294  0.00  0.00    +0.000 A 
BRANCH   5  15
ATOM     14  C   UNL     1      47.785   5.589  21.683  0.00  0.00    +0.000 C 
ATOM     15  C   UNL     1      47.366   7.053  21.663  0.00  0.00    +0.000 C 
ENDBRANCH   5  15
BRANCH  13  16
ATOM     16  O   UNL     1      48.069   9.838  21.401  0.00  0.00    +0.000 OA
ATOM     17  H   UNL     1      48.557  10.617  21.076  0.00  0.00    +0.000 HD
ENDBRANCH  13  16
ENDBRANCH   1   8
BRANCH   3  18
ATOM     18  C   UNL     1      47.218   4.207  14.679  0.00  0.00    +0.000 C 
BRANCH  18  19
ATOM     19  C   UNL     1      46.283   4.325  13.504  0.00  0.00    +0.000 A 
ATOM     20  C   UNL     1      45.801   3.174  12.868  0.00  0.00    +0.000 A 
ATOM     21  C   UNL     1      44.996   3.276  11.732  0.00  0.00    +0.000 A 
ATOM     22  C   UNL     1      44.656   4.531  11.203  0.00  0.00    +0.000 A 
ATOM     23  C   UNL     1      45.133   5.681  11.845  0.00  0.00    +0.000 A 
ATOM     24  C   UNL     1      45.940   5.580  12.983  0.00  0.00    +0.000 A 
BRANCH  22  25
ATOM     25  C   UNL     1      43.803   4.631   9.957  0.00  0.00    +0.000 C 
BRANCH  25  26
ATOM     26  N   UNL     1      44.297   3.734   8.920  0.00  0.00    +0.000 NA
ATOM     27  H   UNL     1      43.594   3.648   8.185  0.00  0.00    +0.000 HD
BRANCH  26  28
ATOM     28  C   UNL     1      45.547   4.205   8.327  0.00  0.00    +0.000 C 
BRANCH  28  29
ATOM     29  C   UNL     1      46.198   3.095   7.533  0.00  0.00    +0.000 A 
ATOM     30  C   UNL     1      46.616   3.298   6.211  0.00  0.00    +0.000 A 
ATOM     31  C   UNL     1      47.178   2.249   5.478  0.00  0.00    +0.000 A 
ATOM     32  C   UNL     1      47.333   0.992   6.060  0.00  0.00    +0.000 A 
ATOM     33  C   UNL     1      46.939   0.783   7.378  0.00  0.00    +0.000 A 
ATOM     34  C   UNL     1      46.381   1.829   8.113  0.00  0.00    +0.000 A 
ENDBRANCH  28  29
ENDBRANCH  26  28
ENDBRANCH  25  26
ENDBRANCH  22  25
ENDBRANCH  18  19
ENDBRANCH   3  18
TORSDOF 9
ENDMDL
MODEL 3
REMARK VINA RESULT:    -7.161      4.074      6.197
REMARK INTER + INTRA:         -11.991
REMARK INTER:                 -10.799
REMARK INTRA:                  -1.192
REMARK UNBOUND:                -1.272
REMARK  Name = 
REMARK  10 active torsions:
REMARK  status: ('A' for Active; 'I' for Inactive)
REMARK    1  A    between atoms: C_1  and  C_2
REMARK    2  A    between atoms: C_2  and  C_3
REMARK    3  A    between atoms: C_6  and  C_7
REMARK    4  A    between atoms: N_9  and  C_10
REMARK    5  A    between atoms: C_10  and  C_11
REMARK    6  A    between atoms: C_14  and  C_15
REMARK    7  A    between atoms: C_15  and  N_16
REMARK    8  A    between atoms: N_16  and  C_17
REMARK    9  A    between atoms: C_17  and  C_18
REMARK   10  A    between atoms: C_30  and  O_31
REMARK                            x       y       z     vdW  Elec       q    Type
REMARK                         _______ _______ _______ _____ _____    ______ ____
ROOT
ATOM      1  C   UNL     1      49.978   7.985  13.066  0.00  0.00    +0.000 C 
ATOM      2  O   UNL     1      50.523   7.682  14.121  0.00  0.00    +0.000 OA
ATOM      3  N   UNL     1      48.761   7.473  12.687  0.00  0.00    +0.000 N 
ATOM      4  H   UNL     1      48.495   7.522  11.714  0.00  0.00    +0.000 HD
ENDROOT
BRANCH   1   8
ATOM      5  C   UNL     1      52.806   7.336   9.360  0.00  0.00    +0.000 A 
ATOM      6  C   UNL     1      52.012   7.340  10.513  0.00  0.00    +0.000 A 
ATOM      7  C   UNL     1      51.488   8.561  11.000  0.00  0.00    +0.000 A 
ATOM      8  C   UNL     1      50.602   8.892  12.100  0.00  0.00    +0.000 A 
ATOM      9  C   UNL     1      50.320  10.248  12.117  0.00  0.00    +0.000 A 
ATOM     10  S   UNL     1      51.125  11.118  10.891  0.00  0.00    +0.000 S 
ATOM     11  C   UNL     1      51.825   9.699  10.268  0.00  0.00    +0.000 A 
ATOM     12  N   UNL     1      52.599   9.755   9.164  0.00  0.00    +0.000 NA
ATOM     13  C   UNL     1      53.043   8.558   8.756  0.00  0.00    +0.000 A 
BRANCH   5  15
ATOM     14  C   UNL     1      54.719   5.737   9.229  0.00  0.00    +0.000 C 
ATOM     15  C   UNL     1      53.295   6.037   8.783  0.00  0.00    +0.000 C 
ENDBRANCH   5  15
BRANCH  13  16
ATOM     16  O   UNL     1      53.771   8.629   7.611  0.00  0.00    +0.000 OA
ATOM     17  H   UNL     1      53.139   9.098   7.034  0.00  0.00    +0.000 HD
ENDBRANCH  13  16
ENDBRANCH   1   8
BRANCH   3  18
ATOM     18  C   UNL     1      48.040   6.557  13.540  0.00  0.00    +0.000 C 
BRANCH  18  19
ATOM     19  C   UNL     1      46.921   5.905  12.772  0.00  0.00    +0.000 A 
ATOM     20  C   UNL     1      46.573   6.372  11.498  0.00  0.00    +0.000 A 
ATOM     21  C   UNL     1      45.487   5.822  10.813  0.00  0.00    +0.000 A 
ATOM     22  C   UNL     1      44.722   4.795  11.386  0.00  0.00    +0.000 A 
ATOM     23  C   UNL     1      45.076   4.323  12.656  0.00  0.00    +0.000 A 
ATOM     24  C   UNL     1      46.163   4.873  13.344  0.00  0.00    +0.000 A 
BRANCH  22  25
ATOM     25  C   UNL     1      43.532   4.223  10.646  0.00  0.00    +0.000 C 
BRANCH  25  26
ATOM     26  N   UNL     1      43.926   3.746   9.326  0.00  0.00    +0.000 NA
ATOM     27  H   UNL     1      44.497   4.455   8.867  0.00  0.00    +0.000 HD
BRANCH  26  28
ATOM     28  C   UNL     1      44.680   2.496   9.389  0.00  0.00    +0.000 C 
BRANCH  28  29
ATOM     29  C   UNL     1      45.713   2.454   8.285  0.00  0.00    +0.000 A 
ATOM     30  C   UNL     1      45.958   3.572   7.477  0.00  0.00    +0.000 A 
ATOM     31  C   UNL     1      46.886   3.502   6.434  0.00  0.00    +0.000 A 
ATOM     32  C   UNL     1      47.581   2.317   6.193  0.00  0.00    +0.000 A 
ATOM     33  C   UNL     1      47.360   1.205   7.001  0.00  0.00    +0.000 A 
ATOM     34  C   UNL     1      46.437   1.275   8.044  0.00  0.00    +0.000 A 
ENDBRANCH  28  29
ENDBRANCH  26  28
ENDBRANCH  25  26
ENDBRANCH  22  25
ENDBRANCH  18  19
ENDBRANCH   3  18
TORSDOF 9
ENDMDL
MODEL 4
REMARK VINA RESULT:    -7.152      2.117      4.367
REMARK INTER + INTRA:         -11.978
REMARK INTER:                 -10.916
REMARK INTRA:                  -1.062
REMARK UNBOUND:                -1.272
REMARK  Name = 
REMARK  10 active torsions:
REMARK  status: ('A' for Active; 'I' for Inactive)
REMARK    1  A    between atoms: C_1  and  C_2
REMARK    2  A    between atoms: C_2  and  C_3
REMARK    3  A    between atoms: C_6  and  C_7
REMARK    4  A    between atoms: N_9  and  C_10
REMARK    5  A    between atoms: C_10  and  C_11
REMARK    6  A    between atoms: C_14  and  C_15
REMARK    7  A    between atoms: C_15  and  N_16
REMARK    8  A    between atoms: N_16  and  C_17
REMARK    9  A    between atoms: C_17  and  C_18
REMARK   10  A    between atoms: C_30  and  O_31
REMARK                            x       y       z     vdW  Elec       q    Type
REMARK                         _______ _______ _______ _____ _____    ______ ____
ROOT
ATOM      1  C   UNL     1      48.582   5.747  15.984  0.00  0.00    +0.000 C 
ATOM      2  O   UNL     1      49.037   4.792  16.601  0.00  0.00    +0.000 OA
ATOM      3  N   UNL     1      47.572   5.619  15.062  0.00  0.00    +0.000 N 
ATOM      4  H   UNL     1      47.431   6.360  14.388  0.00  0.00    +0.000 HD
ENDROOT
BRANCH   1   8
ATOM      5  C   UNL     1      50.158   9.010  12.980  0.00  0.00    +0.000 A 
ATOM      6  C   UNL     1      49.709   7.910  13.720  0.00  0.00    +0.000 A 
ATOM      7  C   UNL     1      49.590   8.012  15.127  0.00  0.00    +0.000 A 
ATOM      8  C   UNL     1      49.107   7.104  16.150  0.00  0.00    +0.000 A 
ATOM      9  C   UNL     1      49.124   7.710  17.396  0.00  0.00    +0.000 A 
ATOM     10  S   UNL     1      49.746   9.297  17.364  0.00  0.00    +0.000 S 
ATOM     11  C   UNL     1      49.953   9.241  15.677  0.00  0.00    +0.000 A 
ATOM     12  N   UNL     1      50.409  10.324  15.015  0.00  0.00    +0.000 NA
ATOM     13  C   UNL     1      50.477  10.155  13.687  0.00  0.00    +0.000 A 
BRANCH   5  15
ATOM     14  C   UNL     1      51.075   7.788  11.004  0.00  0.00    +0.000 C 
ATOM     15  C   UNL     1      50.204   8.943  11.479  0.00  0.00    +0.000 C 
ENDBRANCH   5  15
BRANCH  13  16
ATOM     16  O   UNL     1      50.883  11.276  13.034  0.00  0.00    +0.000 OA
ATOM     17  H   UNL     1      51.728  10.962  12.663  0.00  0.00    +0.000 HD
ENDBRANCH  13  16
ENDBRANCH   1   8
BRANCH   3  18
ATOM     18  C   UNL     1      46.969   4.335  14.789  0.00  0.00    +0.000 C 
BRANCH  18  19
ATOM     19  C   UNL     1      46.099   4.419  13.563  0.00  0.00    +0.000 A 
ATOM     20  C   UNL     1      45.688   3.251  12.908  0.00  0.00    +0.000 A 
ATOM     21  C   UNL     1      44.945   3.324  11.728  0.00  0.00    +0.000 A 
ATOM     22  C   UNL     1      44.599   4.565  11.173  0.00  0.00    +0.000 A 
ATOM     23  C   UNL     1      45.004   5.732  11.833  0.00  0.00    +0.000 A 
ATOM     24  C   UNL     1      45.749   5.661  13.015  0.00  0.00    +0.000 A 
BRANCH  22  25
ATOM     25  C   UNL     1      43.815   4.633   9.880  0.00  0.00    +0.000 C 
BRANCH  25  26
ATOM     26  N   UNL     1      44.330   3.672   8.912  0.00  0.00    +0.000 NA
ATOM     27  H   UNL     1      43.605   3.465   8.224  0.00  0.00    +0.000 HD
BRANCH  26  28
ATOM     28  C   UNL     1      45.516   4.166   8.217  0.00  0.00    +0.000 C 
BRANCH  28  29
ATOM     29  C   UNL     1      46.189   3.038   7.468  0.00  0.00    +0.000 A 
ATOM     30  C   UNL     1      46.622   3.201   6.145  0.00  0.00    +0.000 A 
ATOM     31  C   UNL     1      47.204   2.135   5.454  0.00  0.00    +0.000 A 
ATOM     32  C   UNL     1      47.365   0.899   6.080  0.00  0.00    +0.000 A 
ATOM     33  C   UNL     1      46.956   0.730   7.399  0.00  0.00    +0.000 A 
ATOM     34  C   UNL     1      46.378   1.794   8.092  0.00  0.00    +0.000 A 
ENDBRANCH  28  29
ENDBRANCH  26  28
ENDBRANCH  25  26
ENDBRANCH  22  25
ENDBRANCH  18  19
ENDBRANCH   3  18
TORSDOF 9
ENDMDL
MODEL 5
REMARK VINA RESULT:    -7.029      2.057      2.449
REMARK INTER + INTRA:         -11.794
REMARK INTER:                 -10.660
REMARK INTRA:                  -1.135
REMARK UNBOUND:                -1.272
REMARK  Name = 
REMARK  10 active torsions:
REMARK  status: ('A' for Active; 'I' for Inactive)
REMARK    1  A    between atoms: C_1  and  C_2
REMARK    2  A    between atoms: C_2  and  C_3
REMARK    3  A    between atoms: C_6  and  C_7
REMARK    4  A    between atoms: N_9  and  C_10
REMARK    5  A    between atoms: C_10  and  C_11
REMARK    6  A    between atoms: C_14  and  C_15
REMARK    7  A    between atoms: C_15  and  N_16
REMARK    8  A    between atoms: N_16  and  C_17
REMARK    9  A    between atoms: C_17  and  C_18
REMARK   10  A    between atoms: C_30  and  O_31
REMARK                            x       y       z     vdW  Elec       q    Type
REMARK                         _______ _______ _______ _____ _____    ______ ____
ROOT
ATOM      1  C   UNL     1      49.656   8.380  15.394  0.00  0.00    +0.000 C 
ATOM      2  O   UNL     1      49.083   9.192  16.111  0.00  0.00    +0.000 OA
ATOM      3  N   UNL     1      49.312   8.181  14.079  0.00  0.00    +0.000 N 
ATOM      4  H   UNL     1      49.605   7.328  13.624  0.00  0.00    +0.000 HD
ENDROOT
BRANCH   1   8
ATOM      5  C   UNL     1      49.733   4.265  17.676  0.00  0.00    +0.000 A 
ATOM      6  C   UNL     1      49.515   5.496  17.048  0.00  0.00    +0.000 A 
ATOM      7  C   UNL     1      50.620   6.269  16.616  0.00  0.00    +0.000 A 
ATOM      8  C   UNL     1      50.732   7.523  15.895  0.00  0.00    +0.000 A 
ATOM      9  C   UNL     1      52.059   7.829  15.640  0.00  0.00    +0.000 A 
ATOM     10  S   UNL     1      53.149   6.687  16.284  0.00  0.00    +0.000 S 
ATOM     11  C   UNL     1      51.877   5.721  16.868  0.00  0.00    +0.000 A 
ATOM     12  N   UNL     1      52.145   4.551  17.484  0.00  0.00    +0.000 NA
ATOM     13  C   UNL     1      51.048   3.871  17.848  0.00  0.00    +0.000 A 
BRANCH   5  15
ATOM     14  C   UNL     1      47.909   2.783  16.832  0.00  0.00    +0.000 C 
ATOM     15  C   UNL     1      48.569   3.395  18.060  0.00  0.00    +0.000 C 
ENDBRANCH   5  15
BRANCH  13  16
ATOM     16  O   UNL     1      51.338   2.670  18.414  0.00  0.00    +0.000 OA
ATOM     17  H   UNL     1      51.806   2.966  19.217  0.00  0.00    +0.000 HD
ENDBRANCH  13  16
ENDBRANCH   1   8
BRANCH   3  18
ATOM     18  C   UNL     1      48.259   8.951  13.459  0.00  0.00    +0.000 C 
BRANCH  18  19
ATOM     19  C   UNL     1      47.183   8.034  12.939  0.00  0.00    +0.000 A 
ATOM     20  C   UNL     1      45.992   8.563  12.426  0.00  0.00    +0.000 A 
ATOM     21  C   UNL     1      44.960   7.718  12.012  0.00  0.00    +0.000 A 
ATOM     22  C   UNL     1      45.093   6.325  12.105  0.00  0.00    +0.000 A 
ATOM     23  C   UNL     1      46.288   5.796  12.610  0.00  0.00    +0.000 A 
ATOM     24  C   UNL     1      47.322   6.642  13.025  0.00  0.00    +0.000 A 
BRANCH  22  25
ATOM     25  C   UNL     1      43.960   5.417  11.677  0.00  0.00    +0.000 C 
BRANCH  25  26
ATOM     26  N   UNL     1      44.078   5.073  10.266  0.00  0.00    +0.000 NA
ATOM     27  H   UNL     1      44.958   5.437   9.902  0.00  0.00    +0.000 HD
BRANCH  26  28
ATOM     28  C   UNL     1      44.031   3.630  10.040  0.00  0.00    +0.000 C 
BRANCH  28  29
ATOM     29  C   UNL     1      45.093   3.223   9.044  0.00  0.00    +0.000 A 
ATOM     30  C   UNL     1      45.741   4.175   8.245  0.00  0.00    +0.000 A 
ATOM     31  C   UNL     1      46.691   3.776   7.300  0.00  0.00    +0.000 A 
ATOM     32  C   UNL     1      47.004   2.426   7.147  0.00  0.00    +0.000 A 
ATOM     33  C   UNL     1      46.379   1.473   7.947  0.00  0.00    +0.000 A 
ATOM     34  C   UNL     1      45.434   1.869   8.894  0.00  0.00    +0.000 A 
ENDBRANCH  28  29
ENDBRANCH  26  28
ENDBRANCH  25  26
ENDBRANCH  22  25
ENDBRANCH  18  19
ENDBRANCH   3  18
TORSDOF 9
ENDMDL
MODEL 6
REMARK VINA RESULT:    -6.951      3.755      6.260
REMARK INTER + INTRA:         -11.677
REMARK INTER:                 -10.524
REMARK INTRA:                  -1.153
REMARK UNBOUND:                -1.272
REMARK  Name = 
REMARK  10 active torsions:
REMARK  status: ('A' for Active; 'I' for Inactive)
REMARK    1  A    between atoms: C_1  and  C_2
REMARK    2  A    between atoms: C_2  and  C_3
REMARK    3  A    between atoms: C_6  and  C_7
REMARK    4  A    between atoms: N_9  and  C_10
REMARK    5  A    between atoms: C_10  and  C_11
REMARK    6  A    between atoms: C_14  and  C_15
REMARK    7  A    between atoms: C_15  and  N_16
REMARK    8  A    between atoms: N_16  and  C_17
REMARK    9  A    between atoms: C_17  and  C_18
REMARK   10  A    between atoms: C_30  and  O_31
REMARK                            x       y       z     vdW  Elec       q    Type
REMARK                         _______ _______ _______ _____ _____    ______ ____
ROOT
ATOM      1  C   UNL     1      48.066   8.893  13.106  0.00  0.00    +0.000 C 
ATOM      2  O   UNL     1      47.710   9.108  14.259  0.00  0.00    +0.000 OA
ATOM      3  N   UNL     1      48.214   7.624  12.602  0.00  0.00    +0.000 N 
ATOM      4  H   UNL     1      48.769   7.493  11.767  0.00  0.00    +0.000 HD
ENDROOT
BRANCH   1   8
ATOM      5  C   UNL     1      51.802   9.800  10.393  0.00  0.00    +0.000 A 
ATOM      6  C   UNL     1      50.810   9.397  11.293  0.00  0.00    +0.000 A 
ATOM      7  C   UNL     1      49.619  10.154  11.411  0.00  0.00    +0.000 A 
ATOM      8  C   UNL     1      48.403   9.976  12.181  0.00  0.00    +0.000 A 
ATOM      9  C   UNL     1      47.482  10.969  11.886  0.00  0.00    +0.000 A 
ATOM     10  S   UNL     1      48.063  12.114  10.764  0.00  0.00    +0.000 S 
ATOM     11  C   UNL     1      49.537  11.282  10.595  0.00  0.00    +0.000 A 
ATOM     12  N   UNL     1      50.468  11.726   9.726  0.00  0.00    +0.000 NA
ATOM     13  C   UNL     1      51.557  10.948   9.660  0.00  0.00    +0.000 A 
BRANCH   5  15
ATOM     14  C   UNL     1      52.707   7.680   9.432  0.00  0.00    +0.000 C 
ATOM     15  C   UNL     1      53.031   8.958  10.194  0.00  0.00    +0.000 C 
ENDBRANCH   5  15
BRANCH  13  16
ATOM     16  O   UNL     1      52.457  11.379   8.737  0.00  0.00    +0.000 OA
ATOM     17  H   UNL     1      52.001  12.178   8.413  0.00  0.00    +0.000 HD
ENDBRANCH  13  16
ENDBRANCH   1   8
BRANCH   3  18
ATOM     18  C   UNL     1      47.927   6.461  13.410  0.00  0.00    +0.000 C 
BRANCH  18  19
ATOM     19  C   UNL     1      46.771   5.694  12.825  0.00  0.00    +0.000 A 
ATOM     20  C   UNL     1      46.422   4.440  13.343  0.00  0.00    +0.000 A 
ATOM     21  C   UNL     1      45.401   3.689  12.756  0.00  0.00    +0.000 A 
ATOM     22  C   UNL     1      44.707   4.173  11.637  0.00  0.00    +0.000 A 
ATOM     23  C   UNL     1      45.052   5.430  11.125  0.00  0.00    +0.000 A 
ATOM     24  C   UNL     1      46.075   6.183  11.711  0.00  0.00    +0.000 A 
BRANCH  22  25
ATOM     25  C   UNL     1      43.619   3.341  10.993  0.00  0.00    +0.000 C 
BRANCH  25  26
ATOM     26  N   UNL     1      43.893   3.140   9.575  0.00  0.00    +0.000 NA
ATOM     27  H   UNL     1      44.423   3.935   9.218  0.00  0.00    +0.000 HD
BRANCH  26  28
ATOM     28  C   UNL     1      44.647   1.914   9.324  0.00  0.00    +0.000 C 
BRANCH  28  29
ATOM     29  C   UNL     1      45.721   2.165   8.290  0.00  0.00    +0.000 A 
ATOM     30  C   UNL     1      45.888   3.430   7.709  0.00  0.00    +0.000 A 
ATOM     31  C   UNL     1      46.859   3.634   6.725  0.00  0.00    +0.000 A 
ATOM     32  C   UNL     1      47.674   2.579   6.316  0.00  0.00    +0.000 A 
ATOM     33  C   UNL     1      47.531   1.323   6.898  0.00  0.00    +0.000 A 
ATOM     34  C   UNL     1      46.565   1.119   7.883  0.00  0.00    +0.000 A 
ENDBRANCH  28  29
ENDBRANCH  26  28
ENDBRANCH  25  26
ENDBRANCH  22  25
ENDBRANCH  18  19
ENDBRANCH   3  18
TORSDOF 9
ENDMDL
MODEL 7
REMARK VINA RESULT:    -6.496      2.920      8.236
REMARK INTER + INTRA:         -10.996
REMARK INTER:                  -9.038
REMARK INTRA:                  -1.958
REMARK UNBOUND:                -1.272
REMARK  Name = 
REMARK  10 active torsions:
REMARK  status: ('A' for Active; 'I' for Inactive)
REMARK    1  A    between atoms: C_1  and  C_2
REMARK    2  A    between atoms: C_2  and  C_3
REMARK    3  A    between atoms: C_6  and  C_7
REMARK    4  A    between atoms: N_9  and  C_10
REMARK    5  A    between atoms: C_10  and  C_11
REMARK    6  A    between atoms: C_14  and  C_15
REMARK    7  A    between atoms: C_15  and  N_16
REMARK    8  A    between atoms: N_16  and  C_17
REMARK    9  A    between atoms: C_17  and  C_18
REMARK   10  A    between atoms: C_30  and  O_31
REMARK                            x       y       z     vdW  Elec       q    Type
REMARK                         _______ _______ _______ _____ _____    ______ ____
ROOT
ATOM      1  C   UNL     1      48.673   7.387  13.096  0.00  0.00    +0.000 C 
ATOM      2  O   UNL     1      49.206   6.344  12.737  0.00  0.00    +0.000 OA
ATOM      3  N   UNL     1      49.268   8.258  13.976  0.00  0.00    +0.000 N 
ATOM      4  H   UNL     1      48.691   8.938  14.453  0.00  0.00    +0.000 HD
ENDROOT
BRANCH   1   8
ATOM      5  C   UNL     1      44.911   4.958  11.647  0.00  0.00    +0.000 A 
ATOM      6  C   UNL     1      46.133   5.509  12.050  0.00  0.00    +0.000 A 
ATOM      7  C   UNL     1      46.256   6.912  12.195  0.00  0.00    +0.000 A 
ATOM      8  C   UNL     1      47.334   7.772  12.645  0.00  0.00    +0.000 A 
ATOM      9  C   UNL     1      46.927   9.096  12.681  0.00  0.00    +0.000 A 
ATOM     10  S   UNL     1      45.325   9.323  12.143  0.00  0.00    +0.000 S 
ATOM     11  C   UNL     1      45.110   7.653  11.906  0.00  0.00    +0.000 A 
ATOM     12  N   UNL     1      43.916   7.175  11.497  0.00  0.00    +0.000 NA
ATOM     13  C   UNL     1      43.874   5.839  11.400  0.00  0.00    +0.000 A 
BRANCH   5  15
ATOM     14  C   UNL     1      44.919   2.959  10.149  0.00  0.00    +0.000 C 
ATOM     15  C   UNL     1      44.743   3.465  11.574  0.00  0.00    +0.000 C 
ENDBRANCH   5  15
BRANCH  13  16
ATOM     16  O   UNL     1      42.647   5.376  11.044  0.00  0.00    +0.000 OA
ATOM     17  H   UNL     1      42.368   4.966  11.883  0.00  0.00    +0.000 HD
ENDBRANCH  13  16
ENDBRANCH   1   8
BRANCH   3  18
ATOM     18  C   UNL     1      50.584   7.996  14.509  0.00  0.00    +0.000 C 
BRANCH  18  19
ATOM     19  C   UNL     1      50.479   7.452  15.909  0.00  0.00    +0.000 A 
ATOM     20  C   UNL     1      49.551   7.993  16.809  0.00  0.00    +0.000 A 
ATOM     21  C   UNL     1      49.500   7.545  18.130  0.00  0.00    +0.000 A 
ATOM     22  C   UNL     1      50.377   6.549  18.585  0.00  0.00    +0.000 A 
ATOM     23  C   UNL     1      51.299   6.003  17.682  0.00  0.00    +0.000 A 
ATOM     24  C   UNL     1      51.351   6.451  16.358  0.00  0.00    +0.000 A 
BRANCH  22  25
ATOM     25  C   UNL     1      50.331   6.088  20.026  0.00  0.00    +0.000 C 
BRANCH  25  26
ATOM     26  N   UNL     1      50.083   4.653  20.102  0.00  0.00    +0.000 NA
ATOM     27  H   UNL     1      50.413   4.300  21.000  0.00  0.00    +0.000 HD
BRANCH  26  28
ATOM     28  C   UNL     1      48.667   4.326  19.955  0.00  0.00    +0.000 C 
BRANCH  28  29
ATOM     29  C   UNL     1      48.376   3.888  18.538  0.00  0.00    +0.000 A 
ATOM     30  C   UNL     1      49.102   2.852  17.935  0.00  0.00    +0.000 A 
ATOM     31  C   UNL     1      48.849   2.489  16.609  0.00  0.00    +0.000 A 
ATOM     32  C   UNL     1      47.865   3.152  15.876  0.00  0.00    +0.000 A 
ATOM     33  C   UNL     1      47.125   4.170  16.470  0.00  0.00    +0.000 A 
ATOM     34  C   UNL     1      47.374   4.532  17.794  0.00  0.00    +0.000 A 
ENDBRANCH  28  29
ENDBRANCH  26  28
ENDBRANCH  25  26
ENDBRANCH  22  25
ENDBRANCH  18  19
ENDBRANCH   3  18
TORSDOF 9
ENDMDL
MODEL 8
REMARK VINA RESULT:    -6.489      2.922      9.217
REMARK INTER + INTRA:         -10.985
REMARK INTER:                  -9.225
REMARK INTRA:                  -1.760
REMARK UNBOUND:                -1.272
REMARK  Name = 
REMARK  10 active torsions:
REMARK  status: ('A' for Active; 'I' for Inactive)
REMARK    1  A    between atoms: C_1  and  C_2
REMARK    2  A    between atoms: C_2  and  C_3
REMARK    3  A    between atoms: C_6  and  C_7
REMARK    4  A    between atoms: N_9  and  C_10
REMARK    5  A    between atoms: C_10  and  C_11
REMARK    6  A    between atoms: C_14  and  C_15
REMARK    7  A    between atoms: C_15  and  N_16
REMARK    8  A    between atoms: N_16  and  C_17
REMARK    9  A    between atoms: C_17  and  C_18
REMARK   10  A    between atoms: C_30  and  O_31
REMARK                            x       y       z     vdW  Elec       q    Type
REMARK                         _______ _______ _______ _____ _____    ______ ____
ROOT
ATOM      1  C   UNL     1      47.169   4.100  14.954  0.00  0.00    +0.000 C 
ATOM      2  O   UNL     1      47.659   2.996  14.749  0.00  0.00    +0.000 OA
ATOM      3  N   UNL     1      46.887   4.561  16.217  0.00  0.00    +0.000 N 
ATOM      4  H   UNL     1      46.238   5.330  16.321  0.00  0.00    +0.000 HD
ENDROOT
BRANCH   1   8
ATOM      5  C   UNL     1      44.704   3.568  10.980  0.00  0.00    +0.000 A 
ATOM      6  C   UNL     1      45.443   3.525  12.168  0.00  0.00    +0.000 A 
ATOM      7  C   UNL     1      46.048   4.705  12.662  0.00  0.00    +0.000 A 
ATOM      8  C   UNL     1      46.805   5.005  13.863  0.00  0.00    +0.000 A 
ATOM      9  C   UNL     1      47.120   6.353  13.925  0.00  0.00    +0.000 A 
ATOM     10  S   UNL     1      46.579   7.233  12.568  0.00  0.00    +0.000 S 
ATOM     11  C   UNL     1      45.857   5.851  11.890  0.00  0.00    +0.000 A 
ATOM     12  N   UNL     1      45.172   5.945  10.731  0.00  0.00    +0.000 NA
ATOM     13  C   UNL     1      44.615   4.790  10.340  0.00  0.00    +0.000 A 
BRANCH   5  15
ATOM     14  C   UNL     1      44.605   1.810   9.209  0.00  0.00    +0.000 C 
ATOM     15  C   UNL     1      43.984   2.342  10.493  0.00  0.00    +0.000 C 
ENDBRANCH   5  15
BRANCH  13  16
ATOM     16  O   UNL     1      43.882   4.919   9.203  0.00  0.00    +0.000 OA
ATOM     17  H   UNL     1      43.069   4.452   9.468  0.00  0.00    +0.000 HD
ENDBRANCH  13  16
ENDBRANCH   1   8
BRANCH   3  18
ATOM     18  C   UNL     1      47.184   3.766  17.386  0.00  0.00    +0.000 C 
BRANCH  18  19
ATOM     19  C   UNL     1      47.927   4.592  18.402  0.00  0.00    +0.000 A 
ATOM     20  C   UNL     1      47.357   5.766  18.910  0.00  0.00    +0.000 A 
ATOM     21  C   UNL     1      48.072   6.577  19.794  0.00  0.00    +0.000 A 
ATOM     22  C   UNL     1      49.374   6.235  20.189  0.00  0.00    +0.000 A 
ATOM     23  C   UNL     1      49.940   5.056  19.686  0.00  0.00    +0.000 A 
ATOM     24  C   UNL     1      49.225   4.243  18.800  0.00  0.00    +0.000 A 
BRANCH  22  25
ATOM     25  C   UNL     1      50.150   7.133  21.128  0.00  0.00    +0.000 C 
BRANCH  25  26
ATOM     26  N   UNL     1      51.379   7.600  20.498  0.00  0.00    +0.000 NA
ATOM     27  H   UNL     1      51.818   6.827  20.000  0.00  0.00    +0.000 HD
BRANCH  26  28
ATOM     28  C   UNL     1      51.140   8.695  19.560  0.00  0.00    +0.000 C 
BRANCH  28  29
ATOM     29  C   UNL     1      50.974   8.153  18.158  0.00  0.00    +0.000 A 
ATOM     30  C   UNL     1      51.902   7.257  17.612  0.00  0.00    +0.000 A 
ATOM     31  C   UNL     1      51.756   6.799  16.299  0.00  0.00    +0.000 A 
ATOM     32  C   UNL     1      50.680   7.228  15.523  0.00  0.00    +0.000 A 
ATOM     33  C   UNL     1      49.741   8.104  16.061  0.00  0.00    +0.000 A 
ATOM     34  C   UNL     1      49.883   8.559  17.372  0.00  0.00    +0.000 A 
ENDBRANCH  28  29
ENDBRANCH  26  28
ENDBRANCH  25  26
ENDBRANCH  22  25
ENDBRANCH  18  19
ENDBRANCH   3  18
TORSDOF 9
ENDMDL
MODEL 9
REMARK VINA RESULT:    -6.445      4.019      9.223
REMARK INTER + INTRA:         -10.920
REMARK INTER:                  -8.345
REMARK INTRA:                  -2.575
REMARK UNBOUND:                -1.272
REMARK  Name = 
REMARK  10 active torsions:
REMARK  status: ('A' for Active; 'I' for Inactive)
REMARK    1  A    between atoms: C_1  and  C_2
REMARK    2  A    between atoms: C_2  and  C_3
REMARK    3  A    between atoms: C_6  and  C_7
REMARK    4  A    between atoms: N_9  and  C_10
REMARK    5  A    between atoms: C_10  and  C_11
REMARK    6  A    between atoms: C_14  and  C_15
REMARK    7  A    between atoms: C_15  and  N_16
REMARK    8  A    between atoms: N_16  and  C_17
REMARK    9  A    between atoms: C_17  and  C_18
REMARK   10  A    between atoms: C_30  and  O_31
REMARK                            x       y       z     vdW  Elec       q    Type
REMARK                         _______ _______ _______ _____ _____    ______ ____
ROOT
ATOM      1  C   UNL     1      46.828   4.176  14.169  0.00  0.00    +0.000 C 
ATOM      2  O   UNL     1      47.717   3.517  13.645  0.00  0.00    +0.000 OA
ATOM      3  N   UNL     1      46.684   4.275  15.532  0.00  0.00    +0.000 N 
ATOM      4  H   UNL     1      45.797   4.580  15.907  0.00  0.00    +0.000 HD
ENDROOT
BRANCH   1   8
ATOM      5  C   UNL     1      46.451   8.590  12.580  0.00  0.00    +0.000 A 
ATOM      6  C   UNL     1      46.708   7.349  13.173  0.00  0.00    +0.000 A 
ATOM      7  C   UNL     1      45.808   6.276  12.973  0.00  0.00    +0.000 A 
ATOM      8  C   UNL     1      45.816   4.884  13.382  0.00  0.00    +0.000 A 
ATOM      9  C   UNL     1      44.724   4.209  12.860  0.00  0.00    +0.000 A 
ATOM     10  S   UNL     1      43.686   5.210  11.951  0.00  0.00    +0.000 S 
ATOM     11  C   UNL     1      44.697   6.558  12.178  0.00  0.00    +0.000 A 
ATOM     12  N   UNL     1      44.391   7.738  11.598  0.00  0.00    +0.000 NA
ATOM     13  C   UNL     1      45.300   8.698  11.821  0.00  0.00    +0.000 A 
BRANCH   5  15
ATOM     14  C   UNL     1      48.620   9.523  11.765  0.00  0.00    +0.000 C 
ATOM     15  C   UNL     1      47.444   9.712  12.713  0.00  0.00    +0.000 C 
ENDBRANCH   5  15
BRANCH  13  16
ATOM     16  O   UNL     1      45.004   9.860  11.182  0.00  0.00    +0.000 OA
ATOM     17  H   UNL     1      45.663   9.834  10.463  0.00  0.00    +0.000 HD
ENDBRANCH  13  16
ENDBRANCH   1   8
BRANCH   3  18
ATOM     18  C   UNL     1      47.606   3.617  16.429  0.00  0.00    +0.000 C 
BRANCH  18  19
ATOM     19  C   UNL     1      47.976   4.538  17.561  0.00  0.00    +0.000 A 
ATOM     20  C   UNL     1      49.297   4.590  18.025  0.00  0.00    +0.000 A 
ATOM     21  C   UNL     1      49.631   5.385  19.124  0.00  0.00    +0.000 A 
ATOM     22  C   UNL     1      48.654   6.143  19.786  0.00  0.00    +0.000 A 
ATOM     23  C   UNL     1      47.335   6.096  19.316  0.00  0.00    +0.000 A 
ATOM     24  C   UNL     1      46.999   5.300  18.216  0.00  0.00    +0.000 A 
BRANCH  22  25
ATOM     25  C   UNL     1      49.022   6.981  20.991  0.00  0.00    +0.000 C 
BRANCH  25  26
ATOM     26  N   UNL     1      49.959   8.034  20.621  0.00  0.00    +0.000 NA
ATOM     27  H   UNL     1      50.639   7.664  19.957  0.00  0.00    +0.000 HD
BRANCH  26  28
ATOM     28  C   UNL     1      49.291   9.187  20.022  0.00  0.00    +0.000 C 
BRANCH  28  29
ATOM     29  C   UNL     1      49.282   9.060  18.515  0.00  0.00    +0.000 A 
ATOM     30  C   UNL     1      48.121   9.315  17.773  0.00  0.00    +0.000 A 
ATOM     31  C   UNL     1      48.119   9.152  16.384  0.00  0.00    +0.000 A 
ATOM     32  C   UNL     1      49.276   8.738  15.726  0.00  0.00    +0.000 A 
ATOM     33  C   UNL     1      50.441   8.500  16.450  0.00  0.00    +0.000 A 
ATOM     34  C   UNL     1      50.445   8.666  17.835  0.00  0.00    +0.000 A 
ENDBRANCH  28  29
ENDBRANCH  26  28
ENDBRANCH  25  26
ENDBRANCH  22  25
ENDBRANCH  18  19
ENDBRANCH   3  18
TORSDOF 9
ENDMDL
