MODEL 1
REMARK VINA RESULT:    -8.497      0.000      0.000
REMARK INTER + INTRA:         -13.328
REMARK INTER:                 -11.974
REMARK INTRA:                  -1.354
REMARK UNBOUND:                -1.354
REMARK  Name = 
REMARK  8 active torsions:
REMARK  status: ('A' for Active; 'I' for Inactive)
REMARK    1  A    between atoms: C_1  and  O_2
REMARK    2  A    between atoms: O_2  and  C_3
REMARK    3  A    between atoms: C_5  and  C_6
REMARK    4  A    between atoms: C_6  and  C_7
REMARK    5  A    between atoms: C_7  and  N_8
REMARK    6  A    between atoms: C_12  and  C_13
REMARK    7  A    between atoms: C_19  and  C_20
REMARK    8  A    between atoms: C_24  and  C_25
REMARK                            x       y       z     vdW  Elec       q    Type
REMARK                         _______ _______ _______ _____ _____    ______ ____
ROOT
ATOM      1  C   UNL     1      46.744   4.700  13.927  0.00  0.00    +0.000 A 
ATOM      2  C   UNL     1      45.420   4.679  13.479  0.00  0.00    +0.000 A 
ATOM      3  C   UNL     1      44.993   5.577  12.489  0.00  0.00    +0.000 A 
ATOM      4  C   UNL     1      45.937   6.471  11.952  0.00  0.00    +0.000 A 
ATOM      5  C   UNL     1      47.253   6.562  12.425  0.00  0.00    +0.000 A 
ATOM      6  C   UNL     1      47.642   5.633  13.398  0.00  0.00    +0.000 A 
ENDROOT
BRANCH   5   7
ATOM      7  C   UNL     1      48.140   7.671  12.003  0.00  0.00    +0.000 A 
ATOM      8  C   UNL     1      47.718   9.012  12.113  0.00  0.00    +0.000 A 
ATOM      9  C   UNL     1      48.574  10.078  11.843  0.00  0.00    +0.000 A 
ATOM     10  C   UNL     1      49.893   9.832  11.479  0.00  0.00    +0.000 A 
ATOM     11  C   UNL     1      50.354   8.514  11.357  0.00  0.00    +0.000 A 
ATOM     12  C   UNL     1      49.463   7.451  11.585  0.00  0.00    +0.000 A 
BRANCH  11  13
ATOM     13  C   UNL     1      51.798   8.220  11.044  0.00  0.00    +0.000 C 
ATOM     14  F   UNL     1      52.563   8.011  12.151  0.00  0.00    +0.000 F 
ATOM     15  F   UNL     1      51.940   7.100  10.280  0.00  0.00    +0.000 F 
ATOM     16  F   UNL     1      52.402   9.224  10.353  0.00  0.00    +0.000 F 
ENDBRANCH  11  13
ENDBRANCH   5   7
BRANCH   1  18
ATOM     17  C   UNL     1      47.450   4.479  16.188  0.00  0.00    +0.000 C 
ATOM     18  O   UNL     1      47.286   3.906  14.899  0.00  0.00    +0.000 OA
ENDBRANCH   1  18
BRANCH   3  19
ATOM     19  C   UNL     1      43.527   5.611  12.078  0.00  0.00    +0.000 C 
BRANCH  19  20
ATOM     20  C   UNL     1      43.259   5.011  10.692  0.00  0.00    +0.000 C 
BRANCH  20  21
ATOM     21  N   UNL     1      43.552   3.579  10.606  0.00  0.00    +0.000 N 
ATOM     22  C   UNL     1      44.515   3.326   9.598  0.00  0.00    +0.000 A 
ATOM     23  C   UNL     1      44.920   2.017   9.368  0.00  0.00    +0.000 A 
ATOM     24  C   UNL     1      45.876   1.758   8.380  0.00  0.00    +0.000 A 
ATOM     25  C   UNL     1      46.415   2.812   7.638  0.00  0.00    +0.000 A 
ATOM     26  C   UNL     1      45.965   4.082   7.942  0.00  0.00    +0.000 A 
ATOM     27  N   UNL     1      45.041   4.353   8.896  0.00  0.00    +0.000 NA
ATOM     28  H   UNL     1      42.725   3.027  10.396  0.00  0.00    +0.000 HD
BRANCH  25  29
ATOM     29  C   UNL     1      47.420   2.535   6.585  0.00  0.00    +0.000 C 
ATOM     30  N   UNL     1      47.323   3.184   5.384  0.00  0.00    +0.000 N 
ATOM     31  O   UNL     1      48.325   1.728   6.773  0.00  0.00    +0.000 OA
ATOM     32  H   UNL     1      46.629   3.866   5.124  0.00  0.00    +0.000 HD
ATOM     33  H   UNL     1      48.032   2.959   4.694  0.00  0.00    +0.000 HD
ENDBRANCH  25  29
ENDBRANCH  20  21
ENDBRANCH  19  20
ENDBRANCH   3  19
TORSDOF 7
ENDMDL
MODEL 2
REMARK VINA RESULT:    -7.755      4.523      8.071
REMARK INTER + INTRA:         -12.282
REMARK INTER:                 -11.016
REMARK INTRA:                  -1.265
REMARK UNBOUND:                -1.354
REMARK  Name = 
REMARK  8 active torsions:
REMARK  status: ('A' for Active; 'I' for Inactive)
REMARK    1  A    between atoms: C_1  and  O_2
REMARK    2  A    between atoms: O_2  and  C_3
REMARK    3  A    between atoms: C_5  and  C_6
REMARK    4  A    between atoms: C_6  and  C_7
REMARK    5  A    between atoms: C_7  and  N_8
REMARK    6  A    between atoms: C_12  and  C_13
REMARK    7  A    between atoms: C_19  and  C_20
REMARK    8  A    between atoms: C_24  and  C_25
REMARK                            x       y       z     vdW  Elec       q    Type
REMARK                         _______ _______ _______ _____ _____    ______ ____
ROOT
ATOM      1  C   UNL     1      44.768   9.345  11.637  0.00  0.00    +0.000 A 
ATOM      2  C   UNL     1      46.068   9.597  12.084  0.00  0.00    +0.000 A 
ATOM      3  C   UNL     1      46.976   8.541  12.253  0.00  0.00    +0.000 A 
ATOM      4  C   UNL     1      46.547   7.239  11.938  0.00  0.00    +0.000 A 
ATOM      5  C   UNL     1      45.232   6.946  11.551  0.00  0.00    +0.000 A 
ATOM      6  C   UNL     1      44.366   8.031  11.374  0.00  0.00    +0.000 A 
ENDROOT
BRANCH   5   7
ATOM      7  C   UNL     1      44.758   5.544  11.462  0.00  0.00    +0.000 A 
ATOM      8  C   UNL     1      43.840   5.034  12.403  0.00  0.00    +0.000 A 
ATOM      9  C   UNL     1      43.283   3.763  12.274  0.00  0.00    +0.000 A 
ATOM     10  C   UNL     1      43.609   2.973  11.177  0.00  0.00    +0.000 A 
ATOM     11  C   UNL     1      44.518   3.441  10.219  0.00  0.00    +0.000 A 
ATOM     12  C   UNL     1      45.109   4.705  10.392  0.00  0.00    +0.000 A 
BRANCH  11  13
ATOM     13  C   UNL     1      44.826   2.640   8.980  0.00  0.00    +0.000 C 
ATOM     14  F   UNL     1      44.294   1.387   8.996  0.00  0.00    +0.000 F 
ATOM     15  F   UNL     1      44.343   3.233   7.852  0.00  0.00    +0.000 F 
ATOM     16  F   UNL     1      46.162   2.479   8.777  0.00  0.00    +0.000 F 
ENDBRANCH  11  13
ENDBRANCH   5   7
BRANCH   1  18
ATOM     17  C   UNL     1      42.764   9.955  10.510  0.00  0.00    +0.000 C 
ATOM     18  O   UNL     1      43.777  10.270  11.454  0.00  0.00    +0.000 OA
ENDBRANCH   1  18
BRANCH   3  19
ATOM     19  C   UNL     1      48.358   8.815  12.832  0.00  0.00    +0.000 C 
BRANCH  19  20
ATOM     20  C   UNL     1      49.155   7.545  13.157  0.00  0.00    +0.000 C 
BRANCH  20  21
ATOM     21  N   UNL     1      49.764   7.560  14.489  0.00  0.00    +0.000 N 
ATOM     22  C   UNL     1      49.206   6.544  15.303  0.00  0.00    +0.000 A 
ATOM     23  C   UNL     1      49.660   6.403  16.609  0.00  0.00    +0.000 A 
ATOM     24  C   UNL     1      49.120   5.397  17.419  0.00  0.00    +0.000 A 
ATOM     25  C   UNL     1      48.137   4.545  16.911  0.00  0.00    +0.000 A 
ATOM     26  C   UNL     1      47.754   4.748  15.599  0.00  0.00    +0.000 A 
ATOM     27  N   UNL     1      48.265   5.716  14.799  0.00  0.00    +0.000 NA
ATOM     28  H   UNL     1      49.635   8.449  14.963  0.00  0.00    +0.000 HD
BRANCH  25  29
ATOM     29  C   UNL     1      47.559   3.488  17.772  0.00  0.00    +0.000 C 
ATOM     30  N   UNL     1      48.196   3.155  18.937  0.00  0.00    +0.000 N 
ATOM     31  O   UNL     1      46.528   2.906  17.451  0.00  0.00    +0.000 OA
ATOM     32  H   UNL     1      49.039   3.570  19.300  0.00  0.00    +0.000 HD
ATOM     33  H   UNL     1      47.763   2.424  19.491  0.00  0.00    +0.000 HD
ENDBRANCH  25  29
ENDBRANCH  20  21
ENDBRANCH  19  20
ENDBRANCH   3  19
TORSDOF 7
ENDMDL
MODEL 3
REMARK VINA RESULT:    -7.744      2.849      4.786
REMARK INTER + INTRA:         -12.267
REMARK INTER:                 -11.090
REMARK INTRA:                  -1.177
REMARK UNBOUND:                -1.354
REMARK  Name = 
REMARK  8 active torsions:
REMARK  status: ('A' for Active; 'I' for Inactive)
REMARK    1  A    between atoms: C_1  and  O_2
REMARK    2  A    between atoms: O_2  and  C_3
REMARK    3  A    between atoms: C_5  and  C_6
REMARK    4  A    between atoms: C_6  and  C_7
REMARK    5  A    between atoms: C_7  and  N_8
REMARK    6  A    between atoms: C_12  and  C_13
REMARK    7  A    between atoms: C_19  and  C_20
REMARK    8  A    between atoms: C_24  and  C_25
REMARK                            x       y       z     vdW  Elec       q    Type
REMARK                         _______ _______ _______ _____ _____    ______ ____
ROOT
ATOM      1  C   UNL     1      47.308   6.695  12.100  0.00  0.00    +0.000 A 
ATOM      2  C   UNL     1      45.989   6.446  11.714  0.00  0.00    +0.000 A 
ATOM      3  C   UNL     1      45.140   5.691  12.538  0.00  0.00    +0.000 A 
ATOM      4  C   UNL     1      45.649   5.220  13.762  0.00  0.00    +0.000 A 
ATOM      5  C   UNL     1      46.986   5.396  14.147  0.00  0.00    +0.000 A 
ATOM      6  C   UNL     1      47.790   6.173  13.306  0.00  0.00    +0.000 A 
ENDROOT
BRANCH   5   7
ATOM      7  C   UNL     1      47.541   4.684  15.322  0.00  0.00    +0.000 A 
ATOM      8  C   UNL     1      47.522   3.275  15.384  0.00  0.00    +0.000 A 
ATOM      9  C   UNL     1      48.146   2.575  16.414  0.00  0.00    +0.000 A 
ATOM     10  C   UNL     1      48.835   3.268  17.404  0.00  0.00    +0.000 A 
ATOM     11  C   UNL     1      48.878   4.668  17.381  0.00  0.00    +0.000 A 
ATOM     12  C   UNL     1      48.200   5.360  16.361  0.00  0.00    +0.000 A 
BRANCH  11  13
ATOM     13  C   UNL     1      49.684   5.440  18.393  0.00  0.00    +0.000 C 
ATOM     14  F   UNL     1      49.679   4.881  19.634  0.00  0.00    +0.000 F 
ATOM     15  F   UNL     1      50.996   5.539  18.037  0.00  0.00    +0.000 F 
ATOM     16  F   UNL     1      49.243   6.717  18.554  0.00  0.00    +0.000 F 
ENDBRANCH  11  13
ENDBRANCH   5   7
BRANCH   1  18
ATOM     17  C   UNL     1      48.620   8.667  11.879  0.00  0.00    +0.000 C 
ATOM     18  O   UNL     1      48.248   7.388  11.388  0.00  0.00    +0.000 OA
ENDBRANCH   1  18
BRANCH   3  19
ATOM     19  C   UNL     1      43.735   5.344  12.063  0.00  0.00    +0.000 C 
BRANCH  19  20
ATOM     20  C   UNL     1      43.676   4.855  10.611  0.00  0.00    +0.000 C 
BRANCH  20  21
ATOM     21  N   UNL     1      43.959   3.426  10.462  0.00  0.00    +0.000 N 
ATOM     22  C   UNL     1      44.846   3.204   9.379  0.00  0.00    +0.000 A 
ATOM     23  C   UNL     1      45.231   1.902   9.081  0.00  0.00    +0.000 A 
ATOM     24  C   UNL     1      46.113   1.674   8.019  0.00  0.00    +0.000 A 
ATOM     25  C   UNL     1      46.598   2.749   7.271  0.00  0.00    +0.000 A 
ATOM     26  C   UNL     1      46.173   4.010   7.645  0.00  0.00    +0.000 A 
ATOM     27  N   UNL     1      45.322   4.251   8.671  0.00  0.00    +0.000 NA
ATOM     28  H   UNL     1      43.119   2.880  10.296  0.00  0.00    +0.000 HD
BRANCH  25  29
ATOM     29  C   UNL     1      47.523   2.505   6.140  0.00  0.00    +0.000 C 
ATOM     30  N   UNL     1      48.872   2.523   6.366  0.00  0.00    +0.000 N 
ATOM     31  O   UNL     1      47.095   2.296   5.009  0.00  0.00    +0.000 OA
ATOM     32  H   UNL     1      49.332   2.676   7.249  0.00  0.00    +0.000 HD
ATOM     33  H   UNL     1      49.464   2.352   5.560  0.00  0.00    +0.000 HD
ENDBRANCH  25  29
ENDBRANCH  20  21
ENDBRANCH  19  20
ENDBRANCH   3  19
TORSDOF 7
ENDMDL
MODEL 4
REMARK VINA RESULT:    -7.356      3.555      4.789
REMARK INTER + INTRA:         -11.720
REMARK INTER:                 -10.675
REMARK INTRA:                  -1.045
REMARK UNBOUND:                -1.354
REMARK  Name = 
REMARK  8 active torsions:
REMARK  status: ('A' for Active; 'I' for Inactive)
REMARK    1  A    between atoms: C_1  and  O_2
REMARK    2  A    between atoms: O_2  and  C_3
REMARK    3  A    between atoms: C_5  and  C_6
REMARK    4  A    between atoms: C_6  and  C_7
REMARK    5  A    between atoms: C_7  and  N_8
REMARK    6  A    between atoms: C_12  and  C_13
REMARK    7  A    between atoms: C_19  and  C_20
REMARK    8  A    between atoms: C_24  and  C_25
REMARK                            x       y       z     vdW  Elec       q    Type
REMARK                         _______ _______ _______ _____ _____    ______ ____
ROOT
ATOM      1  C   UNL     1      45.794   7.905  12.179  0.00  0.00    +0.000 A 
ATOM      2  C   UNL     1      44.746   7.051  11.825  0.00  0.00    +0.000 A 
ATOM      3  C   UNL     1      44.564   5.835  12.501  0.00  0.00    +0.000 A 
ATOM      4  C   UNL     1      45.446   5.520  13.551  0.00  0.00    +0.000 A 
ATOM      5  C   UNL     1      46.545   6.323  13.887  0.00  0.00    +0.000 A 
ATOM      6  C   UNL     1      46.676   7.537  13.201  0.00  0.00    +0.000 A 
ENDROOT
BRANCH   5   7
ATOM      7  C   UNL     1      47.581   5.842  14.830  0.00  0.00    +0.000 A 
ATOM      8  C   UNL     1      48.663   6.669  15.194  0.00  0.00    +0.000 A 
ATOM      9  C   UNL     1      49.583   6.292  16.171  0.00  0.00    +0.000 A 
ATOM     10  C   UNL     1      49.429   5.080  16.836  0.00  0.00    +0.000 A 
ATOM     11  C   UNL     1      48.367   4.227  16.504  0.00  0.00    +0.000 A 
ATOM     12  C   UNL     1      47.478   4.601  15.481  0.00  0.00    +0.000 A 
BRANCH  11  13
ATOM     13  C   UNL     1      48.129   2.948  17.264  0.00  0.00    +0.000 C 
ATOM     14  F   UNL     1      46.815   2.706  17.526  0.00  0.00    +0.000 F 
ATOM     15  F   UNL     1      48.578   1.856  16.583  0.00  0.00    +0.000 F 
ATOM     16  F   UNL     1      48.763   2.925  18.468  0.00  0.00    +0.000 F 
ENDBRANCH  11  13
ENDBRANCH   5   7
BRANCH   1  18
ATOM     17  C   UNL     1      47.303   9.736  12.008  0.00  0.00    +0.000 C 
ATOM     18  O   UNL     1      46.103   9.101  11.592  0.00  0.00    +0.000 OA
ENDBRANCH   1  18
BRANCH   3  19
ATOM     19  C   UNL     1      43.480   4.868  12.043  0.00  0.00    +0.000 C 
BRANCH  19  20
ATOM     20  C   UNL     1      43.597   4.461  10.569  0.00  0.00    +0.000 C 
BRANCH  20  21
ATOM     21  N   UNL     1      43.952   3.053  10.376  0.00  0.00    +0.000 N 
ATOM     22  C   UNL     1      44.846   2.909   9.287  0.00  0.00    +0.000 A 
ATOM     23  C   UNL     1      45.296   1.638   8.949  0.00  0.00    +0.000 A 
ATOM     24  C   UNL     1      46.186   1.487   7.879  0.00  0.00    +0.000 A 
ATOM     25  C   UNL     1      46.615   2.608   7.165  0.00  0.00    +0.000 A 
ATOM     26  C   UNL     1      46.127   3.833   7.577  0.00  0.00    +0.000 A 
ATOM     27  N   UNL     1      45.267   4.000   8.611  0.00  0.00    +0.000 NA
ATOM     28  H   UNL     1      43.140   2.471  10.195  0.00  0.00    +0.000 HD
BRANCH  25  29
ATOM     29  C   UNL     1      47.548   2.445   6.026  0.00  0.00    +0.000 C 
ATOM     30  N   UNL     1      48.895   2.525   6.251  0.00  0.00    +0.000 N 
ATOM     31  O   UNL     1      47.129   2.248   4.890  0.00  0.00    +0.000 OA
ATOM     32  H   UNL     1      49.348   2.675   7.139  0.00  0.00    +0.000 HD
ATOM     33  H   UNL     1      49.493   2.409   5.440  0.00  0.00    +0.000 HD
ENDBRANCH  25  29
ENDBRANCH  20  21
ENDBRANCH  19  20
ENDBRANCH   3  19
TORSDOF 7
ENDMDL
MODEL 5
REMARK VINA RESULT:    -7.192      2.774      3.624
REMARK INTER + INTRA:         -11.488
REMARK INTER:                 -10.421
REMARK INTRA:                  -1.068
REMARK UNBOUND:                -1.354
REMARK  Name = 
REMARK  8 active torsions:
REMARK  status: ('A' for Active; 'I' for Inactive)
REMARK    1  A    between atoms: C_1  and  O_2
REMARK    2  A    between atoms: O_2  and  C_3
REMARK    3  A    between atoms: C_5  and  C_6
REMARK    4  A    between atoms: C_6  and  C_7
REMARK    5  A    between atoms: C_7  and  N_8
REMARK    6  A    between atoms: C_12  and  C_13
REMARK    7  A    between atoms: C_19  and  C_20
REMARK    8  A    between atoms: C_24  and  C_25
REMARK                            x       y       z     vdW  Elec       q    Type
REMARK                         _______ _______ _______ _____ _____    ______ ____
ROOT
ATOM      1  C   UNL     1      44.897   7.837  11.691  0.00  0.00    +0.000 A 
ATOM      2  C   UNL     1      44.323   6.565  11.770  0.00  0.00    +0.000 A 
ATOM      3  C   UNL     1      44.972   5.538  12.471  0.00  0.00    +0.000 A 
ATOM      4  C   UNL     1      46.192   5.835  13.106  0.00  0.00    +0.000 A 
ATOM      5  C   UNL     1      46.825   7.080  12.991  0.00  0.00    +0.000 A 
ATOM      6  C   UNL     1      46.132   8.081  12.300  0.00  0.00    +0.000 A 
ENDROOT
BRANCH   5   7
ATOM      7  C   UNL     1      48.213   7.276  13.469  0.00  0.00    +0.000 A 
ATOM      8  C   UNL     1      49.092   8.147  12.792  0.00  0.00    +0.000 A 
ATOM      9  C   UNL     1      50.359   8.447  13.287  0.00  0.00    +0.000 A 
ATOM     10  C   UNL     1      50.776   7.901  14.496  0.00  0.00    +0.000 A 
ATOM     11  C   UNL     1      49.935   7.030  15.201  0.00  0.00    +0.000 A 
ATOM     12  C   UNL     1      48.680   6.699  14.662  0.00  0.00    +0.000 A 
BRANCH  11  13
ATOM     13  C   UNL     1      50.329   6.491  16.552  0.00  0.00    +0.000 C 
ATOM     14  F   UNL     1      50.045   7.337  17.580  0.00  0.00    +0.000 F 
ATOM     15  F   UNL     1      49.689   5.324  16.845  0.00  0.00    +0.000 F 
ATOM     16  F   UNL     1      51.659   6.221  16.644  0.00  0.00    +0.000 F 
ENDBRANCH  11  13
ENDBRANCH   5   7
BRANCH   1  18
ATOM     17  C   UNL     1      44.543  10.189  11.637  0.00  0.00    +0.000 C 
ATOM     18  O   UNL     1      44.391   8.918  11.022  0.00  0.00    +0.000 OA
ENDBRANCH   1  18
BRANCH   3  19
ATOM     19  C   UNL     1      44.386   4.131  12.469  0.00  0.00    +0.000 C 
BRANCH  19  20
ATOM     20  C   UNL     1      43.658   3.767  11.169  0.00  0.00    +0.000 C 
BRANCH  20  21
ATOM     21  N   UNL     1      43.996   2.436  10.661  0.00  0.00    +0.000 N 
ATOM     22  C   UNL     1      44.843   2.536   9.529  0.00  0.00    +0.000 A 
ATOM     23  C   UNL     1      45.271   1.371   8.904  0.00  0.00    +0.000 A 
ATOM     24  C   UNL     1      46.114   1.459   7.791  0.00  0.00    +0.000 A 
ATOM     25  C   UNL     1      46.518   2.710   7.320  0.00  0.00    +0.000 A 
ATOM     26  C   UNL     1      46.056   3.814   8.008  0.00  0.00    +0.000 A 
ATOM     27  N   UNL     1      45.241   3.750   9.089  0.00  0.00    +0.000 NA
ATOM     28  H   UNL     1      43.173   1.905  10.392  0.00  0.00    +0.000 HD
BRANCH  25  29
ATOM     29  C   UNL     1      47.402   2.801   6.134  0.00  0.00    +0.000 C 
ATOM     30  N   UNL     1      48.758   2.838   6.314  0.00  0.00    +0.000 N 
ATOM     31  O   UNL     1      46.934   2.853   5.001  0.00  0.00    +0.000 OA
ATOM     32  H   UNL     1      49.249   2.795   7.193  0.00  0.00    +0.000 HD
ATOM     33  H   UNL     1      49.320   2.903   5.473  0.00  0.00    +0.000 HD
ENDBRANCH  25  29
ENDBRANCH  20  21
ENDBRANCH  19  20
ENDBRANCH   3  19
TORSDOF 7
ENDMDL
MODEL 6
REMARK VINA RESULT:    -6.897      2.082      2.930
REMARK INTER + INTRA:         -11.073
REMARK INTER:                  -9.979
REMARK INTRA:                  -1.094
REMARK UNBOUND:                -1.354
REMARK  Name = 
REMARK  8 active torsions:
REMARK  status: ('A' for Active; 'I' for Inactive)
REMARK    1  A    between atoms: C_1  and  O_2
REMARK    2  A    between atoms: O_2  and  C_3
REMARK    3  A    between atoms: C_5  and  C_6
REMARK    4  A    between atoms: C_6  and  C_7
REMARK    5  A    between atoms: C_7  and  N_8
REMARK    6  A    between atoms: C_12  and  C_13
REMARK    7  A    between atoms: C_19  and  C_20
REMARK    8  A    between atoms: C_24  and  C_25
REMARK                            x       y       z     vdW  Elec       q    Type
REMARK                         _______ _______ _______ _____ _____    ______ ____
ROOT
ATOM      1  C   UNL     1      44.751   9.284  11.425  0.00  0.00    +0.000 A 
ATOM      2  C   UNL     1      44.116   8.046  11.552  0.00  0.00    +0.000 A 
ATOM      3  C   UNL     1      44.781   6.968  12.155  0.00  0.00    +0.000 A 
ATOM      4  C   UNL     1      46.084   7.179  12.642  0.00  0.00    +0.000 A 
ATOM      5  C   UNL     1      46.772   8.388  12.471  0.00  0.00    +0.000 A 
ATOM      6  C   UNL     1      46.063   9.443  11.884  0.00  0.00    +0.000 A 
ENDROOT
BRANCH   5   7
ATOM      7  C   UNL     1      48.217   8.493  12.781  0.00  0.00    +0.000 A 
ATOM      8  C   UNL     1      48.665   8.550  14.116  0.00  0.00    +0.000 A 
ATOM      9  C   UNL     1      50.019   8.524  14.442  0.00  0.00    +0.000 A 
ATOM     10  C   UNL     1      50.971   8.411  13.434  0.00  0.00    +0.000 A 
ATOM     11  C   UNL     1      50.570   8.352  12.093  0.00  0.00    +0.000 A 
ATOM     12  C   UNL     1      49.201   8.431  11.780  0.00  0.00    +0.000 A 
BRANCH  11  13
ATOM     13  C   UNL     1      51.574   8.147  10.988  0.00  0.00    +0.000 C 
ATOM     14  F   UNL     1      52.819   7.827  11.436  0.00  0.00    +0.000 F 
ATOM     15  F   UNL     1      51.212   7.137  10.146  0.00  0.00    +0.000 F 
ATOM     16  F   UNL     1      51.728   9.249  10.205  0.00  0.00    +0.000 F 
ENDBRANCH  11  13
ENDBRANCH   5   7
BRANCH   1  18
ATOM     17  C   UNL     1      45.161  11.373  10.362  0.00  0.00    +0.000 C 
ATOM     18  O   UNL     1      44.235  10.407  10.839  0.00  0.00    +0.000 OA
ENDBRANCH   1  18
BRANCH   3  19
ATOM     19  C   UNL     1      44.116   5.598  12.202  0.00  0.00    +0.000 C 
BRANCH  19  20
ATOM     20  C   UNL     1      43.572   5.128  10.847  0.00  0.00    +0.000 C 
BRANCH  20  21
ATOM     21  N   UNL     1      43.686   3.683  10.638  0.00  0.00    +0.000 N 
ATOM     22  C   UNL     1      44.629   3.400   9.619  0.00  0.00    +0.000 A 
ATOM     23  C   UNL     1      44.872   2.075   9.277  0.00  0.00    +0.000 A 
ATOM     24  C   UNL     1      45.808   1.785   8.277  0.00  0.00    +0.000 A 
ATOM     25  C   UNL     1      46.487   2.823   7.636  0.00  0.00    +0.000 A 
ATOM     26  C   UNL     1      46.192   4.109   8.047  0.00  0.00    +0.000 A 
ATOM     27  N   UNL     1      45.292   4.409   9.014  0.00  0.00    +0.000 NA
ATOM     28  H   UNL     1      42.801   3.260  10.374  0.00  0.00    +0.000 HD
BRANCH  25  29
ATOM     29  C   UNL     1      47.469   2.514   6.570  0.00  0.00    +0.000 C 
ATOM     30  N   UNL     1      47.353   3.137   5.357  0.00  0.00    +0.000 N 
ATOM     31  O   UNL     1      48.372   1.706   6.759  0.00  0.00    +0.000 OA
ATOM     32  H   UNL     1      46.659   3.818   5.095  0.00  0.00    +0.000 HD
ATOM     33  H   UNL     1      48.047   2.891   4.659  0.00  0.00    +0.000 HD
ENDBRANCH  25  29
ENDBRANCH  20  21
ENDBRANCH  19  20
ENDBRANCH   3  19
TORSDOF 7
ENDMDL
MODEL 7
REMARK VINA RESULT:    -6.787      4.872      8.310
REMARK INTER + INTRA:         -10.919
REMARK INTER:                  -9.926
REMARK INTRA:                  -0.993
REMARK UNBOUND:                -1.354
REMARK  Name = 
REMARK  8 active torsions:
REMARK  status: ('A' for Active; 'I' for Inactive)
REMARK    1  A    between atoms: C_1  and  O_2
REMARK    2  A    between atoms: O_2  and  C_3
REMARK    3  A    between atoms: C_5  and  C_6
REMARK    4  A    between atoms: C_6  and  C_7
REMARK    5  A    between atoms: C_7  and  N_8
REMARK    6  A    between atoms: C_12  and  C_13
REMARK    7  A    between atoms: C_19  and  C_20
REMARK    8  A    between atoms: C_24  and  C_25
REMARK                            x       y       z     vdW  Elec       q    Type
REMARK                         _______ _______ _______ _____ _____    ______ ____
ROOT
ATOM      1  C   UNL     1      45.560   9.396  12.177  0.00  0.00    +0.000 A 
ATOM      2  C   UNL     1      46.886   9.447  12.616  0.00  0.00    +0.000 A 
ATOM      3  C   UNL     1      47.667   8.282  12.642  0.00  0.00    +0.000 A 
ATOM      4  C   UNL     1      47.086   7.081  12.195  0.00  0.00    +0.000 A 
ATOM      5  C   UNL     1      45.741   6.985  11.811  0.00  0.00    +0.000 A 
ATOM      6  C   UNL     1      45.005   8.175  11.779  0.00  0.00    +0.000 A 
ENDROOT
BRANCH   5   7
ATOM      7  C   UNL     1      45.108   5.666  11.578  0.00  0.00    +0.000 A 
ATOM      8  C   UNL     1      44.139   5.165  12.472  0.00  0.00    +0.000 A 
ATOM      9  C   UNL     1      43.437   3.989  12.215  0.00  0.00    +0.000 A 
ATOM     10  C   UNL     1      43.666   3.291  11.034  0.00  0.00    +0.000 A 
ATOM     11  C   UNL     1      44.621   3.754  10.118  0.00  0.00    +0.000 A 
ATOM     12  C   UNL     1      45.355   4.914  10.418  0.00  0.00    +0.000 A 
BRANCH  11  13
ATOM     13  C   UNL     1      44.830   3.063   8.795  0.00  0.00    +0.000 C 
ATOM     14  F   UNL     1      46.125   2.712   8.563  0.00  0.00    +0.000 F 
ATOM     15  F   UNL     1      44.111   1.909   8.700  0.00  0.00    +0.000 F 
ATOM     16  F   UNL     1      44.452   3.829   7.736  0.00  0.00    +0.000 F 
ENDBRANCH  11  13
ENDBRANCH   5   7
BRANCH   1  18
ATOM     17  C   UNL     1      45.102  11.609  11.432  0.00  0.00    +0.000 C 
ATOM     18  O   UNL     1      44.680  10.443  12.123  0.00  0.00    +0.000 OA
ENDBRANCH   1  18
BRANCH   3  19
ATOM     19  C   UNL     1      49.079   8.329  13.214  0.00  0.00    +0.000 C 
BRANCH  19  20
ATOM     20  C   UNL     1      49.124   8.377  14.746  0.00  0.00    +0.000 C 
BRANCH  20  21
ATOM     21  N   UNL     1      48.287   7.363  15.390  0.00  0.00    +0.000 N 
ATOM     22  C   UNL     1      49.087   6.423  16.084  0.00  0.00    +0.000 A 
ATOM     23  C   UNL     1      48.467   5.379  16.759  0.00  0.00    +0.000 A 
ATOM     24  C   UNL     1      49.249   4.450  17.454  0.00  0.00    +0.000 A 
ATOM     25  C   UNL     1      50.639   4.579  17.466  0.00  0.00    +0.000 A 
ATOM     26  C   UNL     1      51.171   5.653  16.779  0.00  0.00    +0.000 A 
ATOM     27  N   UNL     1      50.431   6.564  16.102  0.00  0.00    +0.000 NA
ATOM     28  H   UNL     1      47.713   6.855  14.723  0.00  0.00    +0.000 HD
BRANCH  25  29
ATOM     29  C   UNL     1      51.466   3.588  18.193  0.00  0.00    +0.000 C 
ATOM     30  N   UNL     1      52.018   3.935  19.397  0.00  0.00    +0.000 N 
ATOM     31  O   UNL     1      51.668   2.471  17.728  0.00  0.00    +0.000 OA
ATOM     32  H   UNL     1      51.914   4.816  19.874  0.00  0.00    +0.000 HD
ATOM     33  H   UNL     1      52.578   3.223  19.855  0.00  0.00    +0.000 HD
ENDBRANCH  25  29
ENDBRANCH  20  21
ENDBRANCH  19  20
ENDBRANCH   3  19
TORSDOF 7
ENDMDL
MODEL 8
REMARK VINA RESULT:    -6.727      5.083      8.367
REMARK INTER + INTRA:         -10.833
REMARK INTER:                  -9.375
REMARK INTRA:                  -1.459
REMARK UNBOUND:                -1.354
REMARK  Name = 
REMARK  8 active torsions:
REMARK  status: ('A' for Active; 'I' for Inactive)
REMARK    1  A    between atoms: C_1  and  O_2
REMARK    2  A    between atoms: O_2  and  C_3
REMARK    3  A    between atoms: C_5  and  C_6
REMARK    4  A    between atoms: C_6  and  C_7
REMARK    5  A    between atoms: C_7  and  N_8
REMARK    6  A    between atoms: C_12  and  C_13
REMARK    7  A    between atoms: C_19  and  C_20
REMARK    8  A    between atoms: C_24  and  C_25
REMARK                            x       y       z     vdW  Elec       q    Type
REMARK                         _______ _______ _______ _____ _____    ______ ____
ROOT
ATOM      1  C   UNL     1      48.452   9.597  11.796  0.00  0.00    +0.000 A 
ATOM      2  C   UNL     1      49.664   9.538  12.489  0.00  0.00    +0.000 A 
ATOM      3  C   UNL     1      50.082   8.339  13.085  0.00  0.00    +0.000 A 
ATOM      4  C   UNL     1      49.261   7.205  12.942  0.00  0.00    +0.000 A 
ATOM      5  C   UNL     1      48.010   7.247  12.311  0.00  0.00    +0.000 A 
ATOM      6  C   UNL     1      47.643   8.458  11.712  0.00  0.00    +0.000 A 
ENDROOT
BRANCH   5   7
ATOM      7  C   UNL     1      47.077   6.100  12.392  0.00  0.00    +0.000 A 
ATOM      8  C   UNL     1      47.181   5.158  13.436  0.00  0.00    +0.000 A 
ATOM      9  C   UNL     1      46.244   4.142  13.609  0.00  0.00    +0.000 A 
ATOM     10  C   UNL     1      45.153   4.054  12.752  0.00  0.00    +0.000 A 
ATOM     11  C   UNL     1      45.010   4.969  11.700  0.00  0.00    +0.000 A 
ATOM     12  C   UNL     1      45.992   5.957  11.510  0.00  0.00    +0.000 A 
BRANCH  11  13
ATOM     13  C   UNL     1      43.796   4.947  10.807  0.00  0.00    +0.000 C 
ATOM     14  F   UNL     1      42.927   3.939  11.095  0.00  0.00    +0.000 F 
ATOM     15  F   UNL     1      43.071   6.098  10.899  0.00  0.00    +0.000 F 
ATOM     16  F   UNL     1      44.113   4.807   9.492  0.00  0.00    +0.000 F 
ENDBRANCH  11  13
ENDBRANCH   5   7
BRANCH   1  18
ATOM     17  C   UNL     1      47.124  11.560  12.002  0.00  0.00    +0.000 C 
ATOM     18  O   UNL     1      47.912  10.699  11.193  0.00  0.00    +0.000 OA
ENDBRANCH   1  18
BRANCH   3  19
ATOM     19  C   UNL     1      51.356   8.310  13.919  0.00  0.00    +0.000 C 
BRANCH  19  20
ATOM     20  C   UNL     1      51.104   8.276  15.432  0.00  0.00    +0.000 C 
BRANCH  20  21
ATOM     21  N   UNL     1      51.738   7.141  16.106  0.00  0.00    +0.000 N 
ATOM     22  C   UNL     1      50.759   6.233  16.580  0.00  0.00    +0.000 A 
ATOM     23  C   UNL     1      51.172   5.089  17.252  0.00  0.00    +0.000 A 
ATOM     24  C   UNL     1      50.212   4.182  17.717  0.00  0.00    +0.000 A 
ATOM     25  C   UNL     1      48.855   4.431  17.501  0.00  0.00    +0.000 A 
ATOM     26  C   UNL     1      48.535   5.586  16.814  0.00  0.00    +0.000 A 
ATOM     27  N   UNL     1      49.449   6.475  16.355  0.00  0.00    +0.000 NA
ATOM     28  H   UNL     1      52.307   7.430  16.896  0.00  0.00    +0.000 HD
BRANCH  25  29
ATOM     29  C   UNL     1      47.841   3.476  18.004  0.00  0.00    +0.000 C 
ATOM     30  N   UNL     1      48.065   2.826  19.187  0.00  0.00    +0.000 N 
ATOM     31  O   UNL     1      46.813   3.256  17.371  0.00  0.00    +0.000 OA
ATOM     32  H   UNL     1      48.865   2.934  19.789  0.00  0.00    +0.000 HD
ATOM     33  H   UNL     1      47.343   2.180  19.488  0.00  0.00    +0.000 HD
ENDBRANCH  25  29
ENDBRANCH  20  21
ENDBRANCH  19  20
ENDBRANCH   3  19
TORSDOF 7
ENDMDL
MODEL 9
REMARK VINA RESULT:    -6.693      5.152      8.455
REMARK INTER + INTRA:         -10.785
REMARK INTER:                  -9.296
REMARK INTRA:                  -1.489
REMARK UNBOUND:                -1.354
REMARK  Name = 
REMARK  8 active torsions:
REMARK  status: ('A' for Active; 'I' for Inactive)
REMARK    1  A    between atoms: C_1  and  O_2
REMARK    2  A    between atoms: O_2  and  C_3
REMARK    3  A    between atoms: C_5  and  C_6
REMARK    4  A    between atoms: C_6  and  C_7
REMARK    5  A    between atoms: C_7  and  N_8
REMARK    6  A    between atoms: C_12  and  C_13
REMARK    7  A    between atoms: C_19  and  C_20
REMARK    8  A    between atoms: C_24  and  C_25
REMARK                            x       y       z     vdW  Elec       q    Type
REMARK                         _______ _______ _______ _____ _____    ______ ____
ROOT
ATOM      1  C   UNL     1      45.343   9.940  12.084  0.00  0.00    +0.000 A 
ATOM      2  C   UNL     1      46.622  10.493  12.190  0.00  0.00    +0.000 A 
ATOM      3  C   UNL     1      47.754   9.664  12.203  0.00  0.00    +0.000 A 
ATOM      4  C   UNL     1      47.561   8.276  12.083  0.00  0.00    +0.000 A 
ATOM      5  C   UNL     1      46.291   7.686  12.041  0.00  0.00    +0.000 A 
ATOM      6  C   UNL     1      45.191   8.551  12.009  0.00  0.00    +0.000 A 
ENDROOT
BRANCH   5   7
ATOM      7  C   UNL     1      46.128   6.217  12.157  0.00  0.00    +0.000 A 
ATOM      8  C   UNL     1      46.701   5.512  13.235  0.00  0.00    +0.000 A 
ATOM      9  C   UNL     1      46.462   4.155  13.438  0.00  0.00    +0.000 A 
ATOM     10  C   UNL     1      45.614   3.465  12.578  0.00  0.00    +0.000 A 
ATOM     11  C   UNL     1      45.024   4.127  11.493  0.00  0.00    +0.000 A 
ATOM     12  C   UNL     1      45.317   5.485  11.275  0.00  0.00    +0.000 A 
BRANCH  11  13
ATOM     13  C   UNL     1      44.039   3.426  10.594  0.00  0.00    +0.000 C 
ATOM     14  F   UNL     1      43.616   4.189   9.549  0.00  0.00    +0.000 F 
ATOM     15  F   UNL     1      44.564   2.297  10.040  0.00  0.00    +0.000 F 
ATOM     16  F   UNL     1      42.915   3.032  11.252  0.00  0.00    +0.000 F 
ENDBRANCH  11  13
ENDBRANCH   5   7
BRANCH   1  18
ATOM     17  C   UNL     1      43.828  11.350  10.912  0.00  0.00    +0.000 C 
ATOM     18  O   UNL     1      44.158  10.623  12.086  0.00  0.00    +0.000 OA
ENDBRANCH   1  18
BRANCH   3  19
ATOM     19  C   UNL     1      49.135  10.270  12.416  0.00  0.00    +0.000 C 
BRANCH  19  20
ATOM     20  C   UNL     1      49.920   9.630  13.567  0.00  0.00    +0.000 C 
BRANCH  20  21
ATOM     21  N   UNL     1      49.460  10.046  14.894  0.00  0.00    +0.000 N 
ATOM     22  C   UNL     1      49.127   8.917  15.683  0.00  0.00    +0.000 A 
ATOM     23  C   UNL     1      48.667   9.115  16.979  0.00  0.00    +0.000 A 
ATOM     24  C   UNL     1      48.344   8.005  17.769  0.00  0.00    +0.000 A 
ATOM     25  C   UNL     1      48.487   6.716  17.252  0.00  0.00    +0.000 A 
ATOM     26  C   UNL     1      48.963   6.612  15.960  0.00  0.00    +0.000 A 
ATOM     27  N   UNL     1      49.283   7.673  15.180  0.00  0.00    +0.000 NA
ATOM     28  H   UNL     1      48.644  10.649  14.848  0.00  0.00    +0.000 HD
BRANCH  25  29
ATOM     29  C   UNL     1      48.134   5.543  18.086  0.00  0.00    +0.000 C 
ATOM     30  N   UNL     1      46.839   5.384  18.498  0.00  0.00    +0.000 N 
ATOM     31  O   UNL     1      48.985   4.724  18.416  0.00  0.00    +0.000 OA
ATOM     32  H   UNL     1      46.061   5.987  18.282  0.00  0.00    +0.000 HD
ATOM     33  H   UNL     1      46.647   4.568  19.069  0.00  0.00    +0.000 HD
ENDBRANCH  25  29
ENDBRANCH  20  21
ENDBRANCH  19  20
ENDBRANCH   3  19
TORSDOF 7
ENDMDL
