MODEL 1
REMARK VINA RESULT:    -7.880      0.000      0.000
REMARK INTER + INTRA:         -11.903
REMARK INTER:                 -10.644
REMARK INTRA:                  -1.259
REMARK UNBOUND:                -1.259
REMARK  Name = 
REMARK  7 active torsions:
REMARK  status: ('A' for Active; 'I' for Inactive)
REMARK    1  A    between atoms: C_1  and  C_2
REMARK    2  A    between atoms: N_5  and  C_6
REMARK    3  A    between atoms: C_10  and  C_11
REMARK    4  A    between atoms: C_11  and  C_12
REMARK    5  A    between atoms: C_12  and  N_13
REMARK    6  A    between atoms: N_13  and  C_14
REMARK    7  A    between atoms: C_17  and  C_18
REMARK                            x       y       z     vdW  Elec       q    Type
REMARK                         _______ _______ _______ _____ _____    ______ ____
ROOT
ATOM      1  C   UNL     1      43.306   4.909  12.460  0.00  0.00    +0.000 C 
ENDROOT
BRANCH   1   6
ATOM      2  C   UNL     1      46.750   6.370  13.303  0.00  0.00    +0.000 A 
ATOM      3  C   UNL     1      47.474   5.202  13.567  0.00  0.00    +0.000 A 
ATOM      4  C   UNL     1      46.888   3.947  13.445  0.00  0.00    +0.000 A 
ATOM      5  C   UNL     1      45.557   3.835  13.063  0.00  0.00    +0.000 A 
ATOM      6  C   UNL     1      44.782   4.976  12.806  0.00  0.00    +0.000 A 
ATOM      7  C   UNL     1      45.405   6.229  12.913  0.00  0.00    +0.000 A 
BRANCH   2  12
ATOM      8  C   UNL     1      48.765  10.760  10.882  0.00  0.00    +0.000 C 
ATOM      9  C   UNL     1      48.406   9.944  12.121  0.00  0.00    +0.000 C 
ATOM     10  C   UNL     1      46.892   9.700  12.189  0.00  0.00    +0.000 C 
ATOM     11  C   UNL     1      46.517   8.841  13.389  0.00  0.00    +0.000 C 
ATOM     12  N   UNL     1      47.323   7.621  13.431  0.00  0.00    +0.000 N 
ATOM     13  C   UNL     1      48.778   7.763  13.348  0.00  0.00    +0.000 C 
ATOM     14  C   UNL     1      49.154   8.604  12.133  0.00  0.00    +0.000 C 
ENDBRANCH   2  12
ENDBRANCH   1   6
BRANCH   1  15
ATOM     15  C   UNL     1      43.010   4.196  11.139  0.00  0.00    +0.000 C 
BRANCH  15  16
ATOM     16  N   UNL     1      43.747   4.748  10.013  0.00  0.00    +0.000 N 
ATOM     17  H   UNL     1      43.856   5.754   9.948  0.00  0.00    +0.000 HD
BRANCH  16  18
ATOM     18  C   UNL     1      44.654   3.950   9.324  0.00  0.00    +0.000 A 
ATOM     19  C   UNL     1      44.646   2.552   9.407  0.00  0.00    +0.000 A 
ATOM     20  C   UNL     1      45.542   1.769   8.672  0.00  0.00    +0.000 A 
ATOM     21  C   UNL     1      46.453   2.371   7.805  0.00  0.00    +0.000 A 
ATOM     22  C   UNL     1      46.466   3.764   7.689  0.00  0.00    +0.000 A 
ATOM     23  C   UNL     1      45.567   4.541   8.442  0.00  0.00    +0.000 A 
BRANCH  21  24
ATOM     24  C   UNL     1      47.387   1.485   7.053  0.00  0.00    +0.000 C 
ATOM     25  N   UNL     1      48.411   2.051   6.363  0.00  0.00    +0.000 N 
ATOM     26  O   UNL     1      47.228   0.263   7.036  0.00  0.00    +0.000 OA
ATOM     27  H   UNL     1      48.615   3.040   6.328  0.00  0.00    +0.000 HD
ATOM     28  H   UNL     1      49.030   1.417   5.862  0.00  0.00    +0.000 HD
ENDBRANCH  21  24
ENDBRANCH  16  18
ENDBRANCH  15  16
ENDBRANCH   1  15
TORSDOF 6
ENDMDL
MODEL 2
REMARK VINA RESULT:    -7.869      2.402      3.978
REMARK INTER + INTRA:         -11.888
REMARK INTER:                 -11.147
REMARK INTRA:                  -0.741
REMARK UNBOUND:                -1.259
REMARK  Name = 
REMARK  7 active torsions:
REMARK  status: ('A' for Active; 'I' for Inactive)
REMARK    1  A    between atoms: C_1  and  C_2
REMARK    2  A    between atoms: N_5  and  C_6
REMARK    3  A    between atoms: C_10  and  C_11
REMARK    4  A    between atoms: C_11  and  C_12
REMARK    5  A    between atoms: C_12  and  N_13
REMARK    6  A    between atoms: N_13  and  C_14
REMARK    7  A    between atoms: C_17  and  C_18
REMARK                            x       y       z     vdW  Elec       q    Type
REMARK                         _______ _______ _______ _____ _____    ______ ____
ROOT
ATOM      1  C   UNL     1      45.116   3.414  12.112  0.00  0.00    +0.000 C 
ENDROOT
BRANCH   1   6
ATOM      2  C   UNL     1      47.310   5.134  14.744  0.00  0.00    +0.000 A 
ATOM      3  C   UNL     1      47.684   6.295  14.058  0.00  0.00    +0.000 A 
ATOM      4  C   UNL     1      47.217   6.556  12.775  0.00  0.00    +0.000 A 
ATOM      5  C   UNL     1      46.368   5.653  12.146  0.00  0.00    +0.000 A 
ATOM      6  C   UNL     1      45.979   4.466  12.784  0.00  0.00    +0.000 A 
ATOM      7  C   UNL     1      46.446   4.238  14.087  0.00  0.00    +0.000 A 
BRANCH   2  12
ATOM      8  C   UNL     1      51.254   3.137  17.851  0.00  0.00    +0.000 C 
ATOM      9  C   UNL     1      49.885   3.781  17.652  0.00  0.00    +0.000 C 
ATOM     10  C   UNL     1      50.024   5.153  16.977  0.00  0.00    +0.000 C 
ATOM     11  C   UNL     1      48.665   5.790  16.719  0.00  0.00    +0.000 C 
ATOM     12  N   UNL     1      47.778   4.864  16.016  0.00  0.00    +0.000 N 
ATOM     13  C   UNL     1      47.607   3.524  16.581  0.00  0.00    +0.000 C 
ATOM     14  C   UNL     1      48.968   2.877  16.818  0.00  0.00    +0.000 C 
ENDBRANCH   2  12
ENDBRANCH   1   6
BRANCH   1  15
ATOM     15  C   UNL     1      43.760   3.936  11.634  0.00  0.00    +0.000 C 
BRANCH  15  16
ATOM     16  N   UNL     1      43.712   4.173  10.199  0.00  0.00    +0.000 N 
ATOM     17  H   UNL     1      43.227   4.994   9.857  0.00  0.00    +0.000 HD
BRANCH  16  18
ATOM     18  C   UNL     1      44.665   3.589   9.370  0.00  0.00    +0.000 A 
ATOM     19  C   UNL     1      44.861   2.204   9.304  0.00  0.00    +0.000 A 
ATOM     20  C   UNL     1      45.797   1.638   8.432  0.00  0.00    +0.000 A 
ATOM     21  C   UNL     1      46.540   2.449   7.576  0.00  0.00    +0.000 A 
ATOM     22  C   UNL     1      46.346   3.833   7.609  0.00  0.00    +0.000 A 
ATOM     23  C   UNL     1      45.410   4.391   8.498  0.00  0.00    +0.000 A 
BRANCH  21  24
ATOM     24  C   UNL     1      47.527   1.789   6.674  0.00  0.00    +0.000 C 
ATOM     25  N   UNL     1      48.688   2.435   6.391  0.00  0.00    +0.000 N 
ATOM     26  O   UNL     1      47.292   0.688   6.174  0.00  0.00    +0.000 OA
ATOM     27  H   UNL     1      48.960   3.335   6.762  0.00  0.00    +0.000 HD
ATOM     28  H   UNL     1      49.338   1.955   5.773  0.00  0.00    +0.000 HD
ENDBRANCH  21  24
ENDBRANCH  16  18
ENDBRANCH  15  16
ENDBRANCH   1  15
TORSDOF 6
ENDMDL
MODEL 3
REMARK VINA RESULT:    -7.587      2.378      3.783
REMARK INTER + INTRA:         -11.507
REMARK INTER:                 -10.424
REMARK INTRA:                  -1.083
REMARK UNBOUND:                -1.259
REMARK  Name = 
REMARK  7 active torsions:
REMARK  status: ('A' for Active; 'I' for Inactive)
REMARK    1  A    between atoms: C_1  and  C_2
REMARK    2  A    between atoms: N_5  and  C_6
REMARK    3  A    between atoms: C_10  and  C_11
REMARK    4  A    between atoms: C_11  and  C_12
REMARK    5  A    between atoms: C_12  and  N_13
REMARK    6  A    between atoms: N_13  and  C_14
REMARK    7  A    between atoms: C_17  and  C_18
REMARK                            x       y       z     vdW  Elec       q    Type
REMARK                         _______ _______ _______ _____ _____    ______ ____
ROOT
ATOM      1  C   UNL     1      44.067   5.131  12.428  0.00  0.00    +0.000 C 
ENDROOT
BRANCH   1   6
ATOM      2  C   UNL     1      47.436   5.678  14.175  0.00  0.00    +0.000 A 
ATOM      3  C   UNL     1      48.104   6.455  13.222  0.00  0.00    +0.000 A 
ATOM      4  C   UNL     1      47.481   6.839  12.040  0.00  0.00    +0.000 A 
ATOM      5  C   UNL     1      46.174   6.444  11.782  0.00  0.00    +0.000 A 
ATOM      6  C   UNL     1      45.468   5.649  12.696  0.00  0.00    +0.000 A 
ATOM      7  C   UNL     1      46.111   5.296  13.892  0.00  0.00    +0.000 A 
BRANCH   2  12
ATOM      8  C   UNL     1      47.543   5.838  19.574  0.00  0.00    +0.000 C 
ATOM      9  C   UNL     1      48.098   5.396  18.224  0.00  0.00    +0.000 C 
ATOM     10  C   UNL     1      47.078   4.526  17.476  0.00  0.00    +0.000 C 
ATOM     11  C   UNL     1      47.591   4.118  16.101  0.00  0.00    +0.000 C 
ATOM     12  N   UNL     1      48.052   5.285  15.348  0.00  0.00    +0.000 N 
ATOM     13  C   UNL     1      49.011   6.180  15.998  0.00  0.00    +0.000 C 
ATOM     14  C   UNL     1      48.486   6.607  17.365  0.00  0.00    +0.000 C 
ENDBRANCH   2  12
ENDBRANCH   1   6
BRANCH   1  15
ATOM     15  C   UNL     1      44.025   3.689  11.920  0.00  0.00    +0.000 C 
BRANCH  15  16
ATOM     16  N   UNL     1      43.591   3.582  10.535  0.00  0.00    +0.000 N 
ATOM     17  H   UNL     1      42.719   4.021  10.263  0.00  0.00    +0.000 HD
BRANCH  16  18
ATOM     18  C   UNL     1      44.524   3.316   9.538  0.00  0.00    +0.000 A 
ATOM     19  C   UNL     1      45.148   4.328   8.798  0.00  0.00    +0.000 A 
ATOM     20  C   UNL     1      46.114   4.037   7.829  0.00  0.00    +0.000 A 
ATOM     21  C   UNL     1      46.504   2.719   7.600  0.00  0.00    +0.000 A 
ATOM     22  C   UNL     1      45.910   1.693   8.341  0.00  0.00    +0.000 A 
ATOM     23  C   UNL     1      44.932   1.998   9.305  0.00  0.00    +0.000 A 
BRANCH  21  24
ATOM     24  C   UNL     1      47.533   2.471   6.549  0.00  0.00    +0.000 C 
ATOM     25  N   UNL     1      47.439   3.141   5.371  0.00  0.00    +0.000 N 
ATOM     26  O   UNL     1      48.442   1.659   6.731  0.00  0.00    +0.000 OA
ATOM     27  H   UNL     1      46.731   3.824   5.144  0.00  0.00    +0.000 HD
ATOM     28  H   UNL     1      48.158   2.948   4.678  0.00  0.00    +0.000 HD
ENDBRANCH  21  24
ENDBRANCH  16  18
ENDBRANCH  15  16
ENDBRANCH   1  15
TORSDOF 6
ENDMDL
MODEL 4
REMARK VINA RESULT:    -7.464      1.539      2.507
REMARK INTER + INTRA:         -11.340
REMARK INTER:                 -10.211
REMARK INTRA:                  -1.129
REMARK UNBOUND:                -1.259
REMARK  Name = 
REMARK  7 active torsions:
REMARK  status: ('A' for Active; 'I' for Inactive)
REMARK    1  A    between atoms: C_1  and  C_2
REMARK    2  A    between atoms: N_5  and  C_6
REMARK    3  A    between atoms: C_10  and  C_11
REMARK    4  A    between atoms: C_11  and  C_12
REMARK    5  A    between atoms: C_12  and  N_13
REMARK    6  A    between atoms: N_13  and  C_14
REMARK    7  A    between atoms: C_17  and  C_18
REMARK                            x       y       z     vdW  Elec       q    Type
REMARK                         _______ _______ _______ _____ _____    ______ ____
ROOT
ATOM      1  C   UNL     1      43.634   4.347  12.963  0.00  0.00    +0.000 C 
ENDROOT
BRANCH   1   6
ATOM      2  C   UNL     1      46.775   6.547  12.941  0.00  0.00    +0.000 A 
ATOM      3  C   UNL     1      46.355   7.597  12.117  0.00  0.00    +0.000 A 
ATOM      4  C   UNL     1      45.068   7.633  11.594  0.00  0.00    +0.000 A 
ATOM      5  C   UNL     1      44.172   6.610  11.879  0.00  0.00    +0.000 A 
ATOM      6  C   UNL     1      44.550   5.525  12.684  0.00  0.00    +0.000 A 
ATOM      7  C   UNL     1      45.848   5.526  13.219  0.00  0.00    +0.000 A 
BRANCH   2  12
ATOM      8  C   UNL     1      50.846   9.155  15.353  0.00  0.00    +0.000 C 
ATOM      9  C   UNL     1      50.218   7.912  14.729  0.00  0.00    +0.000 C 
ATOM     10  C   UNL     1      48.975   7.478  15.519  0.00  0.00    +0.000 C 
ATOM     11  C   UNL     1      48.301   6.271  14.881  0.00  0.00    +0.000 C 
ATOM     12  N   UNL     1      48.056   6.500  13.457  0.00  0.00    +0.000 N 
ATOM     13  C   UNL     1      49.185   6.938  12.634  0.00  0.00    +0.000 C 
ATOM     14  C   UNL     1      49.847   8.162  13.261  0.00  0.00    +0.000 C 
ENDBRANCH   2  12
ENDBRANCH   1   6
BRANCH   1  15
ATOM     15  C   UNL     1      43.814   3.178  11.994  0.00  0.00    +0.000 C 
BRANCH  15  16
ATOM     16  N   UNL     1      43.499   3.523  10.616  0.00  0.00    +0.000 N 
ATOM     17  H   UNL     1      42.778   4.213  10.440  0.00  0.00    +0.000 HD
BRANCH  16  18
ATOM     18  C   UNL     1      44.438   3.294   9.615  0.00  0.00    +0.000 A 
ATOM     19  C   UNL     1      45.055   4.333   8.907  0.00  0.00    +0.000 A 
ATOM     20  C   UNL     1      46.027   4.079   7.933  0.00  0.00    +0.000 A 
ATOM     21  C   UNL     1      46.430   2.771   7.668  0.00  0.00    +0.000 A 
ATOM     22  C   UNL     1      45.843   1.719   8.377  0.00  0.00    +0.000 A 
ATOM     23  C   UNL     1      44.859   1.987   9.346  0.00  0.00    +0.000 A 
BRANCH  21  24
ATOM     24  C   UNL     1      47.465   2.562   6.614  0.00  0.00    +0.000 C 
ATOM     25  N   UNL     1      47.350   3.239   5.442  0.00  0.00    +0.000 N 
ATOM     26  O   UNL     1      48.397   1.775   6.788  0.00  0.00    +0.000 OA
ATOM     27  H   UNL     1      46.622   3.904   5.222  0.00  0.00    +0.000 HD
ATOM     28  H   UNL     1      48.074   3.073   4.747  0.00  0.00    +0.000 HD
ENDBRANCH  21  24
ENDBRANCH  16  18
ENDBRANCH  15  16
ENDBRANCH   1  15
TORSDOF 6
ENDMDL
MODEL 5
REMARK VINA RESULT:    -7.348      2.178      2.962
REMARK INTER + INTRA:         -11.184
REMARK INTER:                 -10.208
REMARK INTRA:                  -0.976
REMARK UNBOUND:                -1.259
REMARK  Name = 
REMARK  7 active torsions:
REMARK  status: ('A' for Active; 'I' for Inactive)
REMARK    1  A    between atoms: C_1  and  C_2
REMARK    2  A    between atoms: N_5  and  C_6
REMARK    3  A    between atoms: C_10  and  C_11
REMARK    4  A    between atoms: C_11  and  C_12
REMARK    5  A    between atoms: C_12  and  N_13
REMARK    6  A    between atoms: N_13  and  C_14
REMARK    7  A    between atoms: C_17  and  C_18
REMARK                            x       y       z     vdW  Elec       q    Type
REMARK                         _______ _______ _______ _____ _____    ______ ____
ROOT
ATOM      1  C   UNL     1      45.385   4.972  11.803  0.00  0.00    +0.000 C 
ENDROOT
BRANCH   1   6
ATOM      2  C   UNL     1      45.639   8.790  12.049  0.00  0.00    +0.000 A 
ATOM      3  C   UNL     1      46.840   8.929  12.754  0.00  0.00    +0.000 A 
ATOM      4  C   UNL     1      47.592   7.820  13.124  0.00  0.00    +0.000 A 
ATOM      5  C   UNL     1      47.152   6.542  12.801  0.00  0.00    +0.000 A 
ATOM      6  C   UNL     1      45.946   6.348  12.112  0.00  0.00    +0.000 A 
ATOM      7  C   UNL     1      45.218   7.486  11.730  0.00  0.00    +0.000 A 
BRANCH   2  12
ATOM      8  C   UNL     1      44.228  12.323   8.212  0.00  0.00    +0.000 C 
ATOM      9  C   UNL     1      44.156  11.768   9.632  0.00  0.00    +0.000 C 
ATOM     10  C   UNL     1      43.614  10.332   9.626  0.00  0.00    +0.000 C 
ATOM     11  C   UNL     1      43.584   9.739  11.028  0.00  0.00    +0.000 C 
ATOM     12  N   UNL     1      44.882   9.888  11.687  0.00  0.00    +0.000 N 
ATOM     13  C   UNL     1      45.481  11.223  11.717  0.00  0.00    +0.000 C 
ATOM     14  C   UNL     1      45.532  11.808  10.309  0.00  0.00    +0.000 C 
ENDBRANCH   2  12
ENDBRANCH   1   6
BRANCH   1  15
ATOM     15  C   UNL     1      43.914   4.981  11.384  0.00  0.00    +0.000 C 
BRANCH  15  16
ATOM     16  N   UNL     1      43.722   4.737   9.962  0.00  0.00    +0.000 N 
ATOM     17  H   UNL     1      43.124   5.366   9.437  0.00  0.00    +0.000 HD
BRANCH  16  18
ATOM     18  C   UNL     1      44.661   3.992   9.256  0.00  0.00    +0.000 A 
ATOM     19  C   UNL     1      44.708   2.593   9.308  0.00  0.00    +0.000 A 
ATOM     20  C   UNL     1      45.635   1.863   8.557  0.00  0.00    +0.000 A 
ATOM     21  C   UNL     1      46.521   2.520   7.704  0.00  0.00    +0.000 A 
ATOM     22  C   UNL     1      46.478   3.915   7.619  0.00  0.00    +0.000 A 
ATOM     23  C   UNL     1      45.549   4.638   8.388  0.00  0.00    +0.000 A 
BRANCH  21  24
ATOM     24  C   UNL     1      47.490   1.689   6.933  0.00  0.00    +0.000 C 
ATOM     25  N   UNL     1      48.538   2.303   6.325  0.00  0.00    +0.000 N 
ATOM     26  O   UNL     1      47.338   0.471   6.828  0.00  0.00    +0.000 OA
ATOM     27  H   UNL     1      48.738   3.293   6.366  0.00  0.00    +0.000 HD
ATOM     28  H   UNL     1      49.180   1.706   5.810  0.00  0.00    +0.000 HD
ENDBRANCH  21  24
ENDBRANCH  16  18
ENDBRANCH  15  16
ENDBRANCH   1  15
TORSDOF 6
ENDMDL
MODEL 6
REMARK VINA RESULT:    -7.253      2.971      7.310
REMARK INTER + INTRA:         -11.055
REMARK INTER:                 -10.300
REMARK INTRA:                  -0.755
REMARK UNBOUND:                -1.259
REMARK  Name = 
REMARK  7 active torsions:
REMARK  status: ('A' for Active; 'I' for Inactive)
REMARK    1  A    between atoms: C_1  and  C_2
REMARK    2  A    between atoms: N_5  and  C_6
REMARK    3  A    between atoms: C_10  and  C_11
REMARK    4  A    between atoms: C_11  and  C_12
REMARK    5  A    between atoms: C_12  and  N_13
REMARK    6  A    between atoms: N_13  and  C_14
REMARK    7  A    between atoms: C_17  and  C_18
REMARK                            x       y       z     vdW  Elec       q    Type
REMARK                         _______ _______ _______ _____ _____    ______ ____
ROOT
ATOM      1  C   UNL     1      45.775   6.875  12.444  0.00  0.00    +0.000 C 
ENDROOT
BRANCH   1   6
ATOM      2  C   UNL     1      44.409   3.926  10.409  0.00  0.00    +0.000 A 
ATOM      3  C   UNL     1      43.535   3.349  11.337  0.00  0.00    +0.000 A 
ATOM      4  C   UNL     1      43.346   3.908  12.595  0.00  0.00    +0.000 A 
ATOM      5  C   UNL     1      44.038   5.058  12.956  0.00  0.00    +0.000 A 
ATOM      6  C   UNL     1      44.940   5.664  12.070  0.00  0.00    +0.000 A 
ATOM      7  C   UNL     1      45.094   5.092  10.798  0.00  0.00    +0.000 A 
BRANCH   2  12
ATOM      8  C   UNL     1      47.871   1.887   6.796  0.00  0.00    +0.000 C 
ATOM      9  C   UNL     1      46.472   2.301   7.244  0.00  0.00    +0.000 C 
ATOM     10  C   UNL     1      46.031   1.486   8.468  0.00  0.00    +0.000 C 
ATOM     11  C   UNL     1      44.659   1.921   8.965  0.00  0.00    +0.000 C 
ATOM     12  N   UNL     1      44.608   3.370   9.160  0.00  0.00    +0.000 N 
ATOM     13  C   UNL     1      45.034   4.222   8.048  0.00  0.00    +0.000 C 
ATOM     14  C   UNL     1      46.419   3.801   7.565  0.00  0.00    +0.000 C 
ENDBRANCH   2  12
ENDBRANCH   1   6
BRANCH   1  15
ATOM     15  C   UNL     1      47.153   6.908  11.781  0.00  0.00    +0.000 C 
BRANCH  15  16
ATOM     16  N   UNL     1      48.241   6.630  12.707  0.00  0.00    +0.000 N 
ATOM     17  H   UNL     1      49.068   7.215  12.676  0.00  0.00    +0.000 HD
BRANCH  16  18
ATOM     18  C   UNL     1      47.987   5.925  13.879  0.00  0.00    +0.000 A 
ATOM     19  C   UNL     1      47.411   4.648  13.882  0.00  0.00    +0.000 A 
ATOM     20  C   UNL     1      47.203   3.942  15.071  0.00  0.00    +0.000 A 
ATOM     21  C   UNL     1      47.601   4.487  16.290  0.00  0.00    +0.000 A 
ATOM     22  C   UNL     1      48.197   5.751  16.310  0.00  0.00    +0.000 A 
ATOM     23  C   UNL     1      48.390   6.456  15.109  0.00  0.00    +0.000 A 
BRANCH  21  24
ATOM     24  C   UNL     1      47.348   3.689  17.525  0.00  0.00    +0.000 C 
ATOM     25  N   UNL     1      48.092   3.946  18.632  0.00  0.00    +0.000 N 
ATOM     26  O   UNL     1      46.496   2.799  17.541  0.00  0.00    +0.000 OA
ATOM     27  H   UNL     1      48.803   4.659  18.705  0.00  0.00    +0.000 HD
ATOM     28  H   UNL     1      47.891   3.384  19.457  0.00  0.00    +0.000 HD
ENDBRANCH  21  24
ENDBRANCH  16  18
ENDBRANCH  15  16
ENDBRANCH   1  15
TORSDOF 6
ENDMDL
MODEL 7
REMARK VINA RESULT:    -7.182      2.898      7.301
REMARK INTER + INTRA:         -10.960
REMARK INTER:                  -9.672
REMARK INTRA:                  -1.288
REMARK UNBOUND:                -1.259
REMARK  Name = 
REMARK  7 active torsions:
REMARK  status: ('A' for Active; 'I' for Inactive)
REMARK    1  A    between atoms: C_1  and  C_2
REMARK    2  A    between atoms: N_5  and  C_6
REMARK    3  A    between atoms: C_10  and  C_11
REMARK    4  A    between atoms: C_11  and  C_12
REMARK    5  A    between atoms: C_12  and  N_13
REMARK    6  A    between atoms: N_13  and  C_14
REMARK    7  A    between atoms: C_17  and  C_18
REMARK                            x       y       z     vdW  Elec       q    Type
REMARK                         _______ _______ _______ _____ _____    ______ ____
ROOT
ATOM      1  C   UNL     1      46.639   4.059  13.768  0.00  0.00    +0.000 C 
ENDROOT
BRANCH   1   6
ATOM      2  C   UNL     1      44.461   3.743  10.627  0.00  0.00    +0.000 A 
ATOM      3  C   UNL     1      43.234   4.211  11.110  0.00  0.00    +0.000 A 
ATOM      4  C   UNL     1      43.097   4.662  12.418  0.00  0.00    +0.000 A 
ATOM      5  C   UNL     1      44.190   4.645  13.277  0.00  0.00    +0.000 A 
ATOM      6  C   UNL     1      45.436   4.167  12.848  0.00  0.00    +0.000 A 
ATOM      7  C   UNL     1      45.553   3.741  11.516  0.00  0.00    +0.000 A 
BRANCH   2  12
ATOM      8  C   UNL     1      47.766   2.158   6.658  0.00  0.00    +0.000 C 
ATOM      9  C   UNL     1      46.382   2.459   7.225  0.00  0.00    +0.000 C 
ATOM     10  C   UNL     1      46.072   1.539   8.414  0.00  0.00    +0.000 C 
ATOM     11  C   UNL     1      44.717   1.859   9.031  0.00  0.00    +0.000 C 
ATOM     12  N   UNL     1      44.602   3.286   9.331  0.00  0.00    +0.000 N 
ATOM     13  C   UNL     1      44.903   4.234   8.257  0.00  0.00    +0.000 C 
ATOM     14  C   UNL     1      46.271   3.928   7.655  0.00  0.00    +0.000 C 
ENDBRANCH   2  12
ENDBRANCH   1   6
BRANCH   1  15
ATOM     15  C   UNL     1      47.239   5.408  14.167  0.00  0.00    +0.000 C 
BRANCH  15  16
ATOM     16  N   UNL     1      47.840   6.120  13.050  0.00  0.00    +0.000 N 
ATOM     17  H   UNL     1      48.362   5.591  12.360  0.00  0.00    +0.000 HD
BRANCH  16  18
ATOM     18  C   UNL     1      47.342   7.364  12.676  0.00  0.00    +0.000 A 
ATOM     19  C   UNL     1      46.004   7.731  12.869  0.00  0.00    +0.000 A 
ATOM     20  C   UNL     1      45.537   9.003  12.522  0.00  0.00    +0.000 A 
ATOM     21  C   UNL     1      46.412   9.955  12.001  0.00  0.00    +0.000 A 
ATOM     22  C   UNL     1      47.756   9.618  11.820  0.00  0.00    +0.000 A 
ATOM     23  C   UNL     1      48.212   8.333  12.161  0.00  0.00    +0.000 A 
BRANCH  21  24
ATOM     24  C   UNL     1      45.854  11.291  11.645  0.00  0.00    +0.000 C 
ATOM     25  N   UNL     1      44.535  11.529  11.869  0.00  0.00    +0.000 N 
ATOM     26  O   UNL     1      46.564  12.160  11.136  0.00  0.00    +0.000 OA
ATOM     27  H   UNL     1      43.887  10.876  12.285  0.00  0.00    +0.000 HD
ATOM     28  H   UNL     1      44.189  12.452  11.615  0.00  0.00    +0.000 HD
ENDBRANCH  21  24
ENDBRANCH  16  18
ENDBRANCH  15  16
ENDBRANCH   1  15
TORSDOF 6
ENDMDL
MODEL 8
REMARK VINA RESULT:    -7.165      4.082      8.068
REMARK INTER + INTRA:         -10.936
REMARK INTER:                 -10.228
REMARK INTRA:                  -0.709
REMARK UNBOUND:                -1.259
REMARK  Name = 
REMARK  7 active torsions:
REMARK  status: ('A' for Active; 'I' for Inactive)
REMARK    1  A    between atoms: C_1  and  C_2
REMARK    2  A    between atoms: N_5  and  C_6
REMARK    3  A    between atoms: C_10  and  C_11
REMARK    4  A    between atoms: C_11  and  C_12
REMARK    5  A    between atoms: C_12  and  N_13
REMARK    6  A    between atoms: N_13  and  C_14
REMARK    7  A    between atoms: C_17  and  C_18
REMARK                            x       y       z     vdW  Elec       q    Type
REMARK                         _______ _______ _______ _____ _____    ______ ____
ROOT
ATOM      1  C   UNL     1      46.688   3.843  13.791  0.00  0.00    +0.000 C 
ENDROOT
BRANCH   1   6
ATOM      2  C   UNL     1      44.526   3.759  10.625  0.00  0.00    +0.000 A 
ATOM      3  C   UNL     1      43.343   4.337  11.100  0.00  0.00    +0.000 A 
ATOM      4  C   UNL     1      43.234   4.787  12.410  0.00  0.00    +0.000 A 
ATOM      5  C   UNL     1      44.310   4.661  13.280  0.00  0.00    +0.000 A 
ATOM      6  C   UNL     1      45.512   4.072  12.860  0.00  0.00    +0.000 A 
ATOM      7  C   UNL     1      45.602   3.648  11.525  0.00  0.00    +0.000 A 
BRANCH   2  12
ATOM      8  C   UNL     1      47.733   2.080   6.615  0.00  0.00    +0.000 C 
ATOM      9  C   UNL     1      46.366   2.424   7.199  0.00  0.00    +0.000 C 
ATOM     10  C   UNL     1      46.039   1.511   8.389  0.00  0.00    +0.000 C 
ATOM     11  C   UNL     1      44.702   1.872   9.021  0.00  0.00    +0.000 C 
ATOM     12  N   UNL     1      44.638   3.302   9.327  0.00  0.00    +0.000 N 
ATOM     13  C   UNL     1      44.957   4.243   8.252  0.00  0.00    +0.000 C 
ATOM     14  C   UNL     1      46.308   3.894   7.634  0.00  0.00    +0.000 C 
ENDBRANCH   2  12
ENDBRANCH   1   6
BRANCH   1  15
ATOM     15  C   UNL     1      46.915   4.975  14.795  0.00  0.00    +0.000 C 
BRANCH  15  16
ATOM     16  N   UNL     1      47.014   4.510  16.170  0.00  0.00    +0.000 N 
ATOM     17  H   UNL     1      46.162   4.267  16.664  0.00  0.00    +0.000 HD
BRANCH  16  18
ATOM     18  C   UNL     1      48.210   3.970  16.632  0.00  0.00    +0.000 A 
ATOM     19  C   UNL     1      48.499   2.602  16.559  0.00  0.00    +0.000 A 
ATOM     20  C   UNL     1      49.726   2.089  16.993  0.00  0.00    +0.000 A 
ATOM     21  C   UNL     1      50.711   2.944  17.482  0.00  0.00    +0.000 A 
ATOM     22  C   UNL     1      50.453   4.317  17.545  0.00  0.00    +0.000 A 
ATOM     23  C   UNL     1      49.212   4.819  17.116  0.00  0.00    +0.000 A 
BRANCH  21  24
ATOM     24  C   UNL     1      51.996   2.338  17.936  0.00  0.00    +0.000 C 
ATOM     25  N   UNL     1      52.714   2.974  18.898  0.00  0.00    +0.000 N 
ATOM     26  O   UNL     1      52.416   1.293  17.437  0.00  0.00    +0.000 OA
ATOM     27  H   UNL     1      52.441   3.829  19.361  0.00  0.00    +0.000 HD
ATOM     28  H   UNL     1      53.585   2.532  19.184  0.00  0.00    +0.000 HD
ENDBRANCH  21  24
ENDBRANCH  16  18
ENDBRANCH  15  16
ENDBRANCH   1  15
TORSDOF 6
ENDMDL
MODEL 9
REMARK VINA RESULT:    -6.961      1.606      2.696
REMARK INTER + INTRA:         -10.662
REMARK INTER:                  -9.776
REMARK INTRA:                  -0.886
REMARK UNBOUND:                -1.259
REMARK  Name = 
REMARK  7 active torsions:
REMARK  status: ('A' for Active; 'I' for Inactive)
REMARK    1  A    between atoms: C_1  and  C_2
REMARK    2  A    between atoms: N_5  and  C_6
REMARK    3  A    between atoms: C_10  and  C_11
REMARK    4  A    between atoms: C_11  and  C_12
REMARK    5  A    between atoms: C_12  and  N_13
REMARK    6  A    between atoms: N_13  and  C_14
REMARK    7  A    between atoms: C_17  and  C_18
REMARK                            x       y       z     vdW  Elec       q    Type
REMARK                         _______ _______ _______ _____ _____    ______ ____
ROOT
ATOM      1  C   UNL     1      45.317   5.166  11.787  0.00  0.00    +0.000 C 
ENDROOT
BRANCH   1   6
ATOM      2  C   UNL     1      47.509   8.284  12.215  0.00  0.00    +0.000 A 
ATOM      3  C   UNL     1      46.554   9.297  12.078  0.00  0.00    +0.000 A 
ATOM      4  C   UNL     1      45.209   9.001  11.885  0.00  0.00    +0.000 A 
ATOM      5  C   UNL     1      44.792   7.677  11.817  0.00  0.00    +0.000 A 
ATOM      6  C   UNL     1      45.712   6.625  11.929  0.00  0.00    +0.000 A 
ATOM      7  C   UNL     1      47.059   6.952  12.147  0.00  0.00    +0.000 A 
BRANCH   2  12
ATOM      8  C   UNL     1      52.309   9.376   9.990  0.00  0.00    +0.000 C 
ATOM      9  C   UNL     1      51.399   9.136  11.191  0.00  0.00    +0.000 C 
ATOM     10  C   UNL     1      50.294  10.200  11.253  0.00  0.00    +0.000 C 
ATOM     11  C   UNL     1      49.341   9.948  12.414  0.00  0.00    +0.000 C 
ATOM     12  N   UNL     1      48.848   8.571  12.398  0.00  0.00    +0.000 N 
ATOM     13  C   UNL     1      49.837   7.495  12.317  0.00  0.00    +0.000 C 
ATOM     14  C   UNL     1      50.777   7.735  11.139  0.00  0.00    +0.000 C 
ENDBRANCH   2  12
ENDBRANCH   1   6
BRANCH   1  15
ATOM     15  C   UNL     1      44.062   4.942  10.942  0.00  0.00    +0.000 C 
BRANCH  15  16
ATOM     16  N   UNL     1      43.997   3.612  10.355  0.00  0.00    +0.000 N 
ATOM     17  H   UNL     1      43.155   3.063  10.487  0.00  0.00    +0.000 HD
BRANCH  16  18
ATOM     18  C   UNL     1      44.824   3.287   9.285  0.00  0.00    +0.000 A 
ATOM     19  C   UNL     1      45.290   4.244   8.374  0.00  0.00    +0.000 A 
ATOM     20  C   UNL     1      46.154   3.900   7.329  0.00  0.00    +0.000 A 
ATOM     21  C   UNL     1      46.602   2.587   7.191  0.00  0.00    +0.000 A 
ATOM     22  C   UNL     1      46.167   1.619   8.101  0.00  0.00    +0.000 A 
ATOM     23  C   UNL     1      45.289   1.975   9.141  0.00  0.00    +0.000 A 
BRANCH  21  24
ATOM     24  C   UNL     1      47.517   2.280   6.054  0.00  0.00    +0.000 C 
ATOM     25  N   UNL     1      48.858   2.355   6.257  0.00  0.00    +0.000 N 
ATOM     26  O   UNL     1      47.072   1.984   4.944  0.00  0.00    +0.000 OA
ATOM     27  H   UNL     1      49.303   2.584   7.134  0.00  0.00    +0.000 HD
ATOM     28  H   UNL     1      49.452   2.138   5.460  0.00  0.00    +0.000 HD
ENDBRANCH  21  24
ENDBRANCH  16  18
ENDBRANCH  15  16
ENDBRANCH   1  15
TORSDOF 6
ENDMDL
