MODEL 1
REMARK VINA RESULT:    -6.883      0.000      0.000
REMARK INTER + INTRA:         -11.756
REMARK INTER:                 -10.504
REMARK INTRA:                  -1.251
REMARK UNBOUND:                -1.251
REMARK  Name = 
REMARK  12 active torsions:
REMARK  status: ('A' for Active; 'I' for Inactive)
REMARK    1  A    between atoms: C_1  and  O_2
REMARK    2  A    between atoms: O_2  and  C_3
REMARK    3  A    between atoms: C_8  and  C_9
REMARK    4  A    between atoms: C_9  and  O_10
REMARK    5  A    between atoms: O_10  and  C_11
REMARK    6  A    between atoms: C_11  and  C_12
REMARK    7  A    between atoms: C_15  and  C_16
REMARK    8  A    between atoms: C_16  and  N_17
REMARK    9  A    between atoms: N_17  and  C_18
REMARK   10  A    between atoms: C_19  and  C_21
REMARK   11  A    between atoms: C_28  and  O_29
REMARK   12  A    between atoms: O_29  and  C_30
REMARK                            x       y       z     vdW  Elec       q    Type
REMARK                         _______ _______ _______ _____ _____    ______ ____
ROOT
ATOM      1  C   UNL     1      47.320   7.325  13.158  0.00  0.00    +0.000 A 
ATOM      2  C   UNL     1      47.651   6.194  13.917  0.00  0.00    +0.000 A 
ATOM      3  C   UNL     1      48.390   6.322  15.095  0.00  0.00    +0.000 A 
ATOM      4  C   UNL     1      48.823   7.581  15.537  0.00  0.00    +0.000 A 
ATOM      5  C   UNL     1      48.543   8.703  14.744  0.00  0.00    +0.000 A 
ATOM      6  C   UNL     1      47.794   8.577  13.570  0.00  0.00    +0.000 A 
ENDROOT
BRANCH   1   7
ATOM      7  C   UNL     1      46.406   7.195  11.964  0.00  0.00    +0.000 C 
BRANCH   7   8
ATOM      8  O   UNL     1      45.770   5.917  11.923  0.00  0.00    +0.000 OA
BRANCH   8   9
ATOM      9  C   UNL     1      44.663   5.873  11.012  0.00  0.00    +0.000 C 
BRANCH   9  15
ATOM     10  C   UNL     1      44.171   3.580  10.037  0.00  0.00    +0.000 A 
ATOM     11  C   UNL     1      44.425   2.578   9.092  0.00  0.00    +0.000 A 
ATOM     12  C   UNL     1      45.378   2.771   8.090  0.00  0.00    +0.000 A 
ATOM     13  C   UNL     1      46.081   3.968   8.021  0.00  0.00    +0.000 A 
ATOM     14  C   UNL     1      45.829   4.975   8.951  0.00  0.00    +0.000 A 
ATOM     15  C   UNL     1      44.864   4.803   9.959  0.00  0.00    +0.000 A 
BRANCH  10  17
ATOM     16  C   UNL     1      43.663   2.698  12.189  0.00  0.00    +0.000 C 
ATOM     17  O   UNL     1      43.262   3.463  11.057  0.00  0.00    +0.000 OA
ENDBRANCH  10  17
ENDBRANCH   9  15
ENDBRANCH   8   9
ENDBRANCH   7   8
ENDBRANCH   1   7
BRANCH   4  18
ATOM     18  C   UNL     1      49.498   7.739  16.881  0.00  0.00    +0.000 C 
BRANCH  18  19
ATOM     19  N   UNL     1      50.621   6.832  17.125  0.00  0.00    +0.000 N 
ATOM     20  C   UNL     1      51.729   6.891  16.182  0.00  0.00    +0.000 C 
ATOM     21  C   UNL     1      50.463   5.850  18.117  0.00  0.00    +0.000 C 
ATOM     22  O   UNL     1      49.435   5.786  18.788  0.00  0.00    +0.000 OA
BRANCH  21  23
ATOM     23  C   UNL     1      51.556   4.904  18.384  0.00  0.00    +0.000 A 
ATOM     24  C   UNL     1      52.666   5.199  19.158  0.00  0.00    +0.000 A 
ATOM     25  S   UNL     1      53.720   3.874  19.362  0.00  0.00    +0.000 S 
ATOM     26  C   UNL     1      52.671   2.842  18.511  0.00  0.00    +0.000 A 
ATOM     27  N   UNL     1      52.967   1.537  18.390  0.00  0.00    +0.000 NA
ATOM     28  C   UNL     1      52.046   0.865  17.697  0.00  0.00    +0.000 A 
ATOM     29  N   UNL     1      50.950   1.358  17.112  0.00  0.00    +0.000 NA
ATOM     30  C   UNL     1      50.694   2.678  17.263  0.00  0.00    +0.000 A 
ATOM     31  C   UNL     1      51.561   3.496  18.002  0.00  0.00    +0.000 A 
BRANCH  30  32
ATOM     32  O   UNL     1      49.615   3.215  16.595  0.00  0.00    +0.000 OA
ATOM     33  C   UNL     1      48.375   2.794  17.153  0.00  0.00    +0.000 C 
ENDBRANCH  30  32
ENDBRANCH  21  23
ENDBRANCH  18  19
ENDBRANCH   4  18
TORSDOF 9
ENDMDL
MODEL 2
REMARK VINA RESULT:    -6.846      2.335      4.275
REMARK INTER + INTRA:         -11.699
REMARK INTER:                 -10.620
REMARK INTRA:                  -1.079
REMARK UNBOUND:                -1.251
REMARK  Name = 
REMARK  12 active torsions:
REMARK  status: ('A' for Active; 'I' for Inactive)
REMARK    1  A    between atoms: C_1  and  O_2
REMARK    2  A    between atoms: O_2  and  C_3
REMARK    3  A    between atoms: C_8  and  C_9
REMARK    4  A    between atoms: C_9  and  O_10
REMARK    5  A    between atoms: O_10  and  C_11
REMARK    6  A    between atoms: C_11  and  C_12
REMARK    7  A    between atoms: C_15  and  C_16
REMARK    8  A    between atoms: C_16  and  N_17
REMARK    9  A    between atoms: N_17  and  C_18
REMARK   10  A    between atoms: C_19  and  C_21
REMARK   11  A    between atoms: C_28  and  O_29
REMARK   12  A    between atoms: O_29  and  C_30
REMARK                            x       y       z     vdW  Elec       q    Type
REMARK                         _______ _______ _______ _____ _____    ______ ____
ROOT
ATOM      1  C   UNL     1      44.527   4.581  11.922  0.00  0.00    +0.000 A 
ATOM      2  C   UNL     1      44.132   5.836  11.444  0.00  0.00    +0.000 A 
ATOM      3  C   UNL     1      44.774   6.997  11.882  0.00  0.00    +0.000 A 
ATOM      4  C   UNL     1      45.819   6.929  12.815  0.00  0.00    +0.000 A 
ATOM      5  C   UNL     1      46.172   5.676  13.338  0.00  0.00    +0.000 A 
ATOM      6  C   UNL     1      45.536   4.513  12.891  0.00  0.00    +0.000 A 
ENDROOT
BRANCH   1   7
ATOM      7  C   UNL     1      43.923   3.324  11.342  0.00  0.00    +0.000 C 
BRANCH   7   8
ATOM      8  O   UNL     1      44.893   2.553  10.632  0.00  0.00    +0.000 OA
BRANCH   8   9
ATOM      9  C   UNL     1      44.480   2.227   9.297  0.00  0.00    +0.000 C 
BRANCH   9  15
ATOM     10  C   UNL     1      46.125   3.330   7.707  0.00  0.00    +0.000 A 
ATOM     11  C   UNL     1      47.179   3.240   6.789  0.00  0.00    +0.000 A 
ATOM     12  C   UNL     1      47.759   2.005   6.492  0.00  0.00    +0.000 A 
ATOM     13  C   UNL     1      47.296   0.852   7.115  0.00  0.00    +0.000 A 
ATOM     14  C   UNL     1      46.255   0.932   8.037  0.00  0.00    +0.000 A 
ATOM     15  C   UNL     1      45.666   2.168   8.358  0.00  0.00    +0.000 A 
BRANCH  10  17
ATOM     16  C   UNL     1      46.235   5.427   8.830  0.00  0.00    +0.000 C 
ATOM     17  O   UNL     1      45.494   4.500   8.042  0.00  0.00    +0.000 OA
ENDBRANCH  10  17
ENDBRANCH   9  15
ENDBRANCH   8   9
ENDBRANCH   7   8
ENDBRANCH   1   7
BRANCH   4  18
ATOM     18  C   UNL     1      46.609   8.165  13.183  0.00  0.00    +0.000 C 
BRANCH  18  19
ATOM     19  N   UNL     1      48.022   7.932  13.492  0.00  0.00    +0.000 N 
ATOM     20  C   UNL     1      48.785   7.154  12.526  0.00  0.00    +0.000 C 
ATOM     21  C   UNL     1      48.479   8.299  14.768  0.00  0.00    +0.000 C 
ATOM     22  O   UNL     1      47.732   8.840  15.579  0.00  0.00    +0.000 OA
BRANCH  21  23
ATOM     23  C   UNL     1      49.885   8.067  15.130  0.00  0.00    +0.000 A 
ATOM     24  C   UNL     1      50.901   8.986  14.927  0.00  0.00    +0.000 A 
ATOM     25  S   UNL     1      52.411   8.471  15.531  0.00  0.00    +0.000 S 
ATOM     26  C   UNL     1      51.728   7.051  16.171  0.00  0.00    +0.000 A 
ATOM     27  N   UNL     1      52.491   6.202  16.880  0.00  0.00    +0.000 NA
ATOM     28  C   UNL     1      51.809   5.141  17.312  0.00  0.00    +0.000 A 
ATOM     29  N   UNL     1      50.526   4.847  17.076  0.00  0.00    +0.000 NA
ATOM     30  C   UNL     1      49.798   5.735  16.358  0.00  0.00    +0.000 A 
ATOM     31  C   UNL     1      50.382   6.915  15.874  0.00  0.00    +0.000 A 
BRANCH  30  32
ATOM     32  O   UNL     1      48.500   5.406  16.036  0.00  0.00    +0.000 OA
ATOM     33  C   UNL     1      47.740   5.033  17.180  0.00  0.00    +0.000 C 
ENDBRANCH  30  32
ENDBRANCH  21  23
ENDBRANCH  18  19
ENDBRANCH   4  18
TORSDOF 9
ENDMDL
MODEL 3
REMARK VINA RESULT:    -6.536      0.864      1.981
REMARK INTER + INTRA:         -11.226
REMARK INTER:                  -9.898
REMARK INTRA:                  -1.328
REMARK UNBOUND:                -1.251
REMARK  Name = 
REMARK  12 active torsions:
REMARK  status: ('A' for Active; 'I' for Inactive)
REMARK    1  A    between atoms: C_1  and  O_2
REMARK    2  A    between atoms: O_2  and  C_3
REMARK    3  A    between atoms: C_8  and  C_9
REMARK    4  A    between atoms: C_9  and  O_10
REMARK    5  A    between atoms: O_10  and  C_11
REMARK    6  A    between atoms: C_11  and  C_12
REMARK    7  A    between atoms: C_15  and  C_16
REMARK    8  A    between atoms: C_16  and  N_17
REMARK    9  A    between atoms: N_17  and  C_18
REMARK   10  A    between atoms: C_19  and  C_21
REMARK   11  A    between atoms: C_28  and  O_29
REMARK   12  A    between atoms: O_29  and  C_30
REMARK                            x       y       z     vdW  Elec       q    Type
REMARK                         _______ _______ _______ _____ _____    ______ ____
ROOT
ATOM      1  C   UNL     1      47.824   7.773  13.374  0.00  0.00    +0.000 A 
ATOM      2  C   UNL     1      47.972   8.978  14.072  0.00  0.00    +0.000 A 
ATOM      3  C   UNL     1      48.469   8.985  15.377  0.00  0.00    +0.000 A 
ATOM      4  C   UNL     1      48.819   7.788  16.017  0.00  0.00    +0.000 A 
ATOM      5  C   UNL     1      48.613   6.578  15.339  0.00  0.00    +0.000 A 
ATOM      6  C   UNL     1      48.126   6.572  14.027  0.00  0.00    +0.000 A 
ENDROOT
BRANCH   1   7
ATOM      7  C   UNL     1      47.419   7.784  11.920  0.00  0.00    +0.000 C 
BRANCH   7   8
ATOM      8  O   UNL     1      46.916   6.514  11.503  0.00  0.00    +0.000 OA
BRANCH   8   9
ATOM      9  C   UNL     1      45.539   6.562  11.103  0.00  0.00    +0.000 C 
BRANCH   9  15
ATOM     10  C   UNL     1      44.650   4.302  10.362  0.00  0.00    +0.000 A 
ATOM     11  C   UNL     1      43.942   3.123  10.630  0.00  0.00    +0.000 A 
ATOM     12  C   UNL     1      43.400   2.892  11.896  0.00  0.00    +0.000 A 
ATOM     13  C   UNL     1      43.567   3.832  12.906  0.00  0.00    +0.000 A 
ATOM     14  C   UNL     1      44.279   5.003  12.652  0.00  0.00    +0.000 A 
ATOM     15  C   UNL     1      44.842   5.248  11.387  0.00  0.00    +0.000 A 
BRANCH  10  17
ATOM     16  C   UNL     1      45.070   3.632   8.116  0.00  0.00    +0.000 C 
ATOM     17  O   UNL     1      45.200   4.609   9.144  0.00  0.00    +0.000 OA
ENDBRANCH  10  17
ENDBRANCH   9  15
ENDBRANCH   8   9
ENDBRANCH   7   8
ENDBRANCH   1   7
BRANCH   4  18
ATOM     18  C   UNL     1      49.489   7.802  17.374  0.00  0.00    +0.000 C 
BRANCH  18  19
ATOM     19  N   UNL     1      50.608   6.870  17.526  0.00  0.00    +0.000 N 
ATOM     20  C   UNL     1      51.707   7.004  16.581  0.00  0.00    +0.000 C 
ATOM     21  C   UNL     1      50.451   5.806  18.430  0.00  0.00    +0.000 C 
ATOM     22  O   UNL     1      49.430   5.690  19.104  0.00  0.00    +0.000 OA
BRANCH  21  23
ATOM     23  C   UNL     1      51.540   4.833  18.602  0.00  0.00    +0.000 A 
ATOM     24  C   UNL     1      52.659   5.051  19.389  0.00  0.00    +0.000 A 
ATOM     25  S   UNL     1      53.705   3.706  19.466  0.00  0.00    +0.000 S 
ATOM     26  C   UNL     1      52.642   2.761  18.535  0.00  0.00    +0.000 A 
ATOM     27  N   UNL     1      52.928   1.470  18.297  0.00  0.00    +0.000 NA
ATOM     28  C   UNL     1      51.996   0.868  17.555  0.00  0.00    +0.000 A 
ATOM     29  N   UNL     1      50.898   1.418  17.025  0.00  0.00    +0.000 NA
ATOM     30  C   UNL     1      50.653   2.721  17.295  0.00  0.00    +0.000 A 
ATOM     31  C   UNL     1      51.532   3.465  18.097  0.00  0.00    +0.000 A 
BRANCH  30  32
ATOM     32  O   UNL     1      49.572   3.322  16.688  0.00  0.00    +0.000 OA
ATOM     33  C   UNL     1      48.334   2.868  17.224  0.00  0.00    +0.000 C 
ENDBRANCH  30  32
ENDBRANCH  21  23
ENDBRANCH  18  19
ENDBRANCH   4  18
TORSDOF 9
ENDMDL
MODEL 4
REMARK VINA RESULT:    -6.458      2.255      2.801
REMARK INTER + INTRA:         -11.107
REMARK INTER:                  -9.893
REMARK INTRA:                  -1.214
REMARK UNBOUND:                -1.251
REMARK  Name = 
REMARK  12 active torsions:
REMARK  status: ('A' for Active; 'I' for Inactive)
REMARK    1  A    between atoms: C_1  and  O_2
REMARK    2  A    between atoms: O_2  and  C_3
REMARK    3  A    between atoms: C_8  and  C_9
REMARK    4  A    between atoms: C_9  and  O_10
REMARK    5  A    between atoms: O_10  and  C_11
REMARK    6  A    between atoms: C_11  and  C_12
REMARK    7  A    between atoms: C_15  and  C_16
REMARK    8  A    between atoms: C_16  and  N_17
REMARK    9  A    between atoms: N_17  and  C_18
REMARK   10  A    between atoms: C_19  and  C_21
REMARK   11  A    between atoms: C_28  and  O_29
REMARK   12  A    between atoms: O_29  and  C_30
REMARK                            x       y       z     vdW  Elec       q    Type
REMARK                         _______ _______ _______ _____ _____    ______ ____
ROOT
ATOM      1  C   UNL     1      45.869   7.959  11.882  0.00  0.00    +0.000 A 
ATOM      2  C   UNL     1      47.043   7.195  11.860  0.00  0.00    +0.000 A 
ATOM      3  C   UNL     1      48.213   7.675  12.452  0.00  0.00    +0.000 A 
ATOM      4  C   UNL     1      48.239   8.933  13.071  0.00  0.00    +0.000 A 
ATOM      5  C   UNL     1      47.080   9.722  13.039  0.00  0.00    +0.000 A 
ATOM      6  C   UNL     1      45.905   9.237  12.455  0.00  0.00    +0.000 A 
ENDROOT
BRANCH   1   7
ATOM      7  C   UNL     1      44.576   7.378  11.364  0.00  0.00    +0.000 C 
BRANCH   7   8
ATOM      8  O   UNL     1      44.546   5.956  11.497  0.00  0.00    +0.000 OA
BRANCH   8   9
ATOM      9  C   UNL     1      43.630   5.328  10.589  0.00  0.00    +0.000 C 
BRANCH   9  15
ATOM     10  C   UNL     1      44.142   2.907  10.020  0.00  0.00    +0.000 A 
ATOM     11  C   UNL     1      44.849   1.953   9.278  0.00  0.00    +0.000 A 
ATOM     12  C   UNL     1      45.756   2.349   8.293  0.00  0.00    +0.000 A 
ATOM     13  C   UNL     1      45.958   3.700   8.036  0.00  0.00    +0.000 A 
ATOM     14  C   UNL     1      45.251   4.657   8.763  0.00  0.00    +0.000 A 
ATOM     15  C   UNL     1      44.326   4.277   9.751  0.00  0.00    +0.000 A 
BRANCH  10  17
ATOM     16  C   UNL     1      43.761   2.510  12.337  0.00  0.00    +0.000 C 
ATOM     17  O   UNL     1      43.246   2.600  11.012  0.00  0.00    +0.000 OA
ENDBRANCH  10  17
ENDBRANCH   9  15
ENDBRANCH   8   9
ENDBRANCH   7   8
ENDBRANCH   1   7
BRANCH   4  18
ATOM     18  C   UNL     1      49.461   9.394  13.836  0.00  0.00    +0.000 C 
BRANCH  18  19
ATOM     19  N   UNL     1      49.930   8.474  14.873  0.00  0.00    +0.000 N 
ATOM     20  C   UNL     1      51.110   7.678  14.559  0.00  0.00    +0.000 C 
ATOM     21  C   UNL     1      49.109   8.283  15.996  0.00  0.00    +0.000 C 
ATOM     22  O   UNL     1      48.057   8.904  16.126  0.00  0.00    +0.000 OA
BRANCH  21  23
ATOM     23  C   UNL     1      49.530   7.354  17.055  0.00  0.00    +0.000 A 
ATOM     24  C   UNL     1      50.228   7.734  18.189  0.00  0.00    +0.000 A 
ATOM     25  S   UNL     1      50.497   6.450  19.280  0.00  0.00    +0.000 S 
ATOM     26  C   UNL     1      49.600   5.375  18.316  0.00  0.00    +0.000 A 
ATOM     27  N   UNL     1      49.392   4.115  18.735  0.00  0.00    +0.000 NA
ATOM     28  C   UNL     1      48.671   3.401  17.869  0.00  0.00    +0.000 A 
ATOM     29  N   UNL     1      48.207   3.794  16.678  0.00  0.00    +0.000 NA
ATOM     30  C   UNL     1      48.441   5.073  16.302  0.00  0.00    +0.000 A 
ATOM     31  C   UNL     1      49.155   5.947  17.135  0.00  0.00    +0.000 A 
BRANCH  30  32
ATOM     32  O   UNL     1      48.043   5.467  15.043  0.00  0.00    +0.000 OA
ATOM     33  C   UNL     1      47.009   4.639  14.522  0.00  0.00    +0.000 C 
ENDBRANCH  30  32
ENDBRANCH  21  23
ENDBRANCH  18  19
ENDBRANCH   4  18
TORSDOF 9
ENDMDL
MODEL 5
REMARK VINA RESULT:    -6.307      4.639      6.551
REMARK INTER + INTRA:         -10.876
REMARK INTER:                  -9.472
REMARK INTRA:                  -1.405
REMARK UNBOUND:                -1.251
REMARK  Name = 
REMARK  12 active torsions:
REMARK  status: ('A' for Active; 'I' for Inactive)
REMARK    1  A    between atoms: C_1  and  O_2
REMARK    2  A    between atoms: O_2  and  C_3
REMARK    3  A    between atoms: C_8  and  C_9
REMARK    4  A    between atoms: C_9  and  O_10
REMARK    5  A    between atoms: O_10  and  C_11
REMARK    6  A    between atoms: C_11  and  C_12
REMARK    7  A    between atoms: C_15  and  C_16
REMARK    8  A    between atoms: C_16  and  N_17
REMARK    9  A    between atoms: N_17  and  C_18
REMARK   10  A    between atoms: C_19  and  C_21
REMARK   11  A    between atoms: C_28  and  O_29
REMARK   12  A    between atoms: O_29  and  C_30
REMARK                            x       y       z     vdW  Elec       q    Type
REMARK                         _______ _______ _______ _____ _____    ______ ____
ROOT
ATOM      1  C   UNL     1      44.848   4.865  12.185  0.00  0.00    +0.000 A 
ATOM      2  C   UNL     1      44.453   6.197  12.007  0.00  0.00    +0.000 A 
ATOM      3  C   UNL     1      45.227   7.241  12.518  0.00  0.00    +0.000 A 
ATOM      4  C   UNL     1      46.408   6.977  13.226  0.00  0.00    +0.000 A 
ATOM      5  C   UNL     1      46.770   5.642  13.456  0.00  0.00    +0.000 A 
ATOM      6  C   UNL     1      46.000   4.596  12.935  0.00  0.00    +0.000 A 
ENDROOT
BRANCH   1   7
ATOM      7  C   UNL     1      44.083   3.750  11.513  0.00  0.00    +0.000 C 
BRANCH   7   8
ATOM      8  O   UNL     1      44.953   2.860  10.814  0.00  0.00    +0.000 OA
BRANCH   8   9
ATOM      9  C   UNL     1      44.458   2.498   9.516  0.00  0.00    +0.000 C 
BRANCH   9  15
ATOM     10  C   UNL     1      46.059   3.461   7.796  0.00  0.00    +0.000 A 
ATOM     11  C   UNL     1      47.059   3.288   6.831  0.00  0.00    +0.000 A 
ATOM     12  C   UNL     1      47.576   2.019   6.563  0.00  0.00    +0.000 A 
ATOM     13  C   UNL     1      47.103   0.914   7.261  0.00  0.00    +0.000 A 
ATOM     14  C   UNL     1      46.115   1.078   8.230  0.00  0.00    +0.000 A 
ATOM     15  C   UNL     1      45.591   2.349   8.522  0.00  0.00    +0.000 A 
BRANCH  10  17
ATOM     16  C   UNL     1      46.250   5.541   8.941  0.00  0.00    +0.000 C 
ATOM     17  O   UNL     1      45.491   4.670   8.108  0.00  0.00    +0.000 OA
ENDBRANCH  10  17
ENDBRANCH   9  15
ENDBRANCH   8   9
ENDBRANCH   7   8
ENDBRANCH   1   7
BRANCH   4  18
ATOM     18  C   UNL     1      47.321   8.104  13.657  0.00  0.00    +0.000 C 
BRANCH  18  19
ATOM     19  N   UNL     1      48.723   7.956  13.260  0.00  0.00    +0.000 N 
ATOM     20  C   UNL     1      49.614   7.322  14.221  0.00  0.00    +0.000 C 
ATOM     21  C   UNL     1      49.139   8.602  12.085  0.00  0.00    +0.000 C 
ATOM     22  O   UNL     1      48.344   9.231  11.389  0.00  0.00    +0.000 OA
BRANCH  21  23
ATOM     23  C   UNL     1      50.542   8.499  11.655  0.00  0.00    +0.000 A 
ATOM     24  C   UNL     1      51.033   7.487  10.846  0.00  0.00    +0.000 A 
ATOM     25  S   UNL     1      52.679   7.682  10.444  0.00  0.00    +0.000 S 
ATOM     26  C   UNL     1      52.754   9.175  11.254  0.00  0.00    +0.000 A 
ATOM     27  N   UNL     1      53.887   9.896  11.225  0.00  0.00    +0.000 NA
ATOM     28  C   UNL     1      53.783  11.039  11.905  0.00  0.00    +0.000 A 
ATOM     29  N   UNL     1      52.731  11.476  12.605  0.00  0.00    +0.000 NA
ATOM     30  C   UNL     1      51.612  10.715  12.603  0.00  0.00    +0.000 A 
ATOM     31  C   UNL     1      51.570   9.505  11.895  0.00  0.00    +0.000 A 
BRANCH  30  32
ATOM     32  O   UNL     1      50.551  11.110  13.387  0.00  0.00    +0.000 OA
ATOM     33  C   UNL     1      50.770  10.835  14.766  0.00  0.00    +0.000 C 
ENDBRANCH  30  32
ENDBRANCH  21  23
ENDBRANCH  18  19
ENDBRANCH   4  18
TORSDOF 9
ENDMDL
MODEL 6
REMARK VINA RESULT:    -6.244      2.397      3.080
REMARK INTER + INTRA:         -10.780
REMARK INTER:                  -9.618
REMARK INTRA:                  -1.162
REMARK UNBOUND:                -1.251
REMARK  Name = 
REMARK  12 active torsions:
REMARK  status: ('A' for Active; 'I' for Inactive)
REMARK    1  A    between atoms: C_1  and  O_2
REMARK    2  A    between atoms: O_2  and  C_3
REMARK    3  A    between atoms: C_8  and  C_9
REMARK    4  A    between atoms: C_9  and  O_10
REMARK    5  A    between atoms: O_10  and  C_11
REMARK    6  A    between atoms: C_11  and  C_12
REMARK    7  A    between atoms: C_15  and  C_16
REMARK    8  A    between atoms: C_16  and  N_17
REMARK    9  A    between atoms: N_17  and  C_18
REMARK   10  A    between atoms: C_19  and  C_21
REMARK   11  A    between atoms: C_28  and  O_29
REMARK   12  A    between atoms: O_29  and  C_30
REMARK                            x       y       z     vdW  Elec       q    Type
REMARK                         _______ _______ _______ _____ _____    ______ ____
ROOT
ATOM      1  C   UNL     1      46.347   7.517  12.483  0.00  0.00    +0.000 A 
ATOM      2  C   UNL     1      47.345   6.558  12.266  0.00  0.00    +0.000 A 
ATOM      3  C   UNL     1      48.513   6.565  13.032  0.00  0.00    +0.000 A 
ATOM      4  C   UNL     1      48.714   7.535  14.024  0.00  0.00    +0.000 A 
ATOM      5  C   UNL     1      47.741   8.529  14.198  0.00  0.00    +0.000 A 
ATOM      6  C   UNL     1      46.566   8.517  13.439  0.00  0.00    +0.000 A 
ENDROOT
BRANCH   1   7
ATOM      7  C   UNL     1      45.031   7.421  11.749  0.00  0.00    +0.000 C 
BRANCH   7   8
ATOM      8  O   UNL     1      45.130   6.582  10.597  0.00  0.00    +0.000 OA
BRANCH   8   9
ATOM      9  C   UNL     1      44.133   5.551  10.569  0.00  0.00    +0.000 C 
BRANCH   9  15
ATOM     10  C   UNL     1      44.133   3.074  10.012  0.00  0.00    +0.000 A 
ATOM     11  C   UNL     1      44.619   1.992   9.266  0.00  0.00    +0.000 A 
ATOM     12  C   UNL     1      45.569   2.191   8.263  0.00  0.00    +0.000 A 
ATOM     13  C   UNL     1      46.036   3.471   7.992  0.00  0.00    +0.000 A 
ATOM     14  C   UNL     1      45.551   4.555   8.722  0.00  0.00    +0.000 A 
ATOM     15  C   UNL     1      44.586   4.376   9.728  0.00  0.00    +0.000 A 
BRANCH  10  17
ATOM     16  C   UNL     1      43.717   2.688  12.325  0.00  0.00    +0.000 C 
ATOM     17  O   UNL     1      43.211   2.960  11.022  0.00  0.00    +0.000 OA
ENDBRANCH  10  17
ENDBRANCH   9  15
ENDBRANCH   8   9
ENDBRANCH   7   8
ENDBRANCH   1   7
BRANCH   4  18
ATOM     18  C   UNL     1      49.909   7.460  14.949  0.00  0.00    +0.000 C 
BRANCH  18  19
ATOM     19  N   UNL     1      49.590   7.442  16.378  0.00  0.00    +0.000 N 
ATOM     20  C   UNL     1      49.895   8.650  17.133  0.00  0.00    +0.000 C 
ATOM     21  C   UNL     1      49.205   6.217  16.945  0.00  0.00    +0.000 C 
ATOM     22  O   UNL     1      49.094   5.205  16.256  0.00  0.00    +0.000 OA
BRANCH  21  23
ATOM     23  C   UNL     1      48.893   6.145  18.380  0.00  0.00    +0.000 A 
ATOM     24  C   UNL     1      47.634   6.368  18.913  0.00  0.00    +0.000 A 
ATOM     25  S   UNL     1      47.561   6.127  20.600  0.00  0.00    +0.000 S 
ATOM     26  C   UNL     1      49.183   5.619  20.649  0.00  0.00    +0.000 A 
ATOM     27  N   UNL     1      49.718   5.201  21.809  0.00  0.00    +0.000 NA
ATOM     28  C   UNL     1      50.995   4.836  21.680  0.00  0.00    +0.000 A 
ATOM     29  N   UNL     1      51.749   4.891  20.578  0.00  0.00    +0.000 NA
ATOM     30  C   UNL     1      51.164   5.318  19.435  0.00  0.00    +0.000 A 
ATOM     31  C   UNL     1      49.814   5.696  19.419  0.00  0.00    +0.000 A 
BRANCH  30  32
ATOM     32  O   UNL     1      51.950   5.460  18.312  0.00  0.00    +0.000 OA
ATOM     33  C   UNL     1      52.825   6.579  18.407  0.00  0.00    +0.000 C 
ENDBRANCH  30  32
ENDBRANCH  21  23
ENDBRANCH  18  19
ENDBRANCH   4  18
TORSDOF 9
ENDMDL
MODEL 7
REMARK VINA RESULT:    -6.204      4.830      6.484
REMARK INTER + INTRA:         -10.719
REMARK INTER:                  -9.169
REMARK INTRA:                  -1.550
REMARK UNBOUND:                -1.251
REMARK  Name = 
REMARK  12 active torsions:
REMARK  status: ('A' for Active; 'I' for Inactive)
REMARK    1  A    between atoms: C_1  and  O_2
REMARK    2  A    between atoms: O_2  and  C_3
REMARK    3  A    between atoms: C_8  and  C_9
REMARK    4  A    between atoms: C_9  and  O_10
REMARK    5  A    between atoms: O_10  and  C_11
REMARK    6  A    between atoms: C_11  and  C_12
REMARK    7  A    between atoms: C_15  and  C_16
REMARK    8  A    between atoms: C_16  and  N_17
REMARK    9  A    between atoms: N_17  and  C_18
REMARK   10  A    between atoms: C_19  and  C_21
REMARK   11  A    between atoms: C_28  and  O_29
REMARK   12  A    between atoms: O_29  and  C_30
REMARK                            x       y       z     vdW  Elec       q    Type
REMARK                         _______ _______ _______ _____ _____    ______ ____
ROOT
ATOM      1  C   UNL     1      44.566   4.533  11.522  0.00  0.00    +0.000 A 
ATOM      2  C   UNL     1      45.319   5.319  10.641  0.00  0.00    +0.000 A 
ATOM      3  C   UNL     1      45.948   6.482  11.090  0.00  0.00    +0.000 A 
ATOM      4  C   UNL     1      45.832   6.890  12.426  0.00  0.00    +0.000 A 
ATOM      5  C   UNL     1      45.029   6.134  13.292  0.00  0.00    +0.000 A 
ATOM      6  C   UNL     1      44.407   4.963  12.845  0.00  0.00    +0.000 A 
ENDROOT
BRANCH   1   7
ATOM      7  C   UNL     1      44.005   3.208  11.065  0.00  0.00    +0.000 C 
BRANCH   7   8
ATOM      8  O   UNL     1      44.989   2.423  10.390  0.00  0.00    +0.000 OA
BRANCH   8   9
ATOM      9  C   UNL     1      44.623   2.108   9.039  0.00  0.00    +0.000 C 
BRANCH   9  15
ATOM     10  C   UNL     1      46.651   1.327   7.725  0.00  0.00    +0.000 A 
ATOM     11  C   UNL     1      47.748   1.603   6.899  0.00  0.00    +0.000 A 
ATOM     12  C   UNL     1      47.995   2.904   6.456  0.00  0.00    +0.000 A 
ATOM     13  C   UNL     1      47.144   3.938   6.828  0.00  0.00    +0.000 A 
ATOM     14  C   UNL     1      46.044   3.672   7.642  0.00  0.00    +0.000 A 
ATOM     15  C   UNL     1      45.773   2.366   8.088  0.00  0.00    +0.000 A 
BRANCH  10  17
ATOM     16  C   UNL     1      46.753  -1.033   7.422  0.00  0.00    +0.000 C 
ATOM     17  O   UNL     1      46.348   0.081   8.212  0.00  0.00    +0.000 OA
ENDBRANCH  10  17
ENDBRANCH   9  15
ENDBRANCH   8   9
ENDBRANCH   7   8
ENDBRANCH   1   7
BRANCH   4  18
ATOM     18  C   UNL     1      46.627   8.067  12.948  0.00  0.00    +0.000 C 
BRANCH  18  19
ATOM     19  N   UNL     1      48.081   7.914  12.884  0.00  0.00    +0.000 N 
ATOM     20  C   UNL     1      48.678   6.927  13.773  0.00  0.00    +0.000 C 
ATOM     21  C   UNL     1      48.802   8.852  12.126  0.00  0.00    +0.000 C 
ATOM     22  O   UNL     1      48.228   9.740  11.501  0.00  0.00    +0.000 OA
BRANCH  21  23
ATOM     23  C   UNL     1      50.267   8.750  12.047  0.00  0.00    +0.000 A 
ATOM     24  C   UNL     1      50.944   8.029  11.078  0.00  0.00    +0.000 A 
ATOM     25  S   UNL     1      52.640   8.171  11.190  0.00  0.00    +0.000 S 
ATOM     26  C   UNL     1      52.514   9.281  12.471  0.00  0.00    +0.000 A 
ATOM     27  N   UNL     1      53.623   9.843  12.981  0.00  0.00    +0.000 NA
ATOM     28  C   UNL     1      53.356  10.691  13.976  0.00  0.00    +0.000 A 
ATOM     29  N   UNL     1      52.160  10.973  14.504  0.00  0.00    +0.000 NA
ATOM     30  C   UNL     1      51.073  10.383  13.955  0.00  0.00    +0.000 A 
ATOM     31  C   UNL     1      51.207   9.498  12.875  0.00  0.00    +0.000 A 
BRANCH  30  32
ATOM     32  O   UNL     1      49.846  10.599  14.542  0.00  0.00    +0.000 OA
ATOM     33  C   UNL     1      49.334  11.896  14.256  0.00  0.00    +0.000 C 
ENDBRANCH  30  32
ENDBRANCH  21  23
ENDBRANCH  18  19
ENDBRANCH   4  18
TORSDOF 9
ENDMDL
MODEL 8
REMARK VINA RESULT:    -6.063      3.511      6.294
REMARK INTER + INTRA:         -10.504
REMARK INTER:                 -10.510
REMARK INTRA:                   0.006
REMARK UNBOUND:                -1.251
REMARK  Name = 
REMARK  12 active torsions:
REMARK  status: ('A' for Active; 'I' for Inactive)
REMARK    1  A    between atoms: C_1  and  O_2
REMARK    2  A    between atoms: O_2  and  C_3
REMARK    3  A    between atoms: C_8  and  C_9
REMARK    4  A    between atoms: C_9  and  O_10
REMARK    5  A    between atoms: O_10  and  C_11
REMARK    6  A    between atoms: C_11  and  C_12
REMARK    7  A    between atoms: C_15  and  C_16
REMARK    8  A    between atoms: C_16  and  N_17
REMARK    9  A    between atoms: N_17  and  C_18
REMARK   10  A    between atoms: C_19  and  C_21
REMARK   11  A    between atoms: C_28  and  O_29
REMARK   12  A    between atoms: O_29  and  C_30
REMARK                            x       y       z     vdW  Elec       q    Type
REMARK                         _______ _______ _______ _____ _____    ______ ____
ROOT
ATOM      1  C   UNL     1      45.063   3.489   8.386  0.00  0.00    +0.000 A 
ATOM      2  C   UNL     1      45.426   4.701   8.987  0.00  0.00    +0.000 A 
ATOM      3  C   UNL     1      45.240   4.896  10.357  0.00  0.00    +0.000 A 
ATOM      4  C   UNL     1      44.678   3.889  11.155  0.00  0.00    +0.000 A 
ATOM      5  C   UNL     1      44.260   2.700  10.541  0.00  0.00    +0.000 A 
ATOM      6  C   UNL     1      44.456   2.500   9.170  0.00  0.00    +0.000 A 
ENDROOT
BRANCH   1   7
ATOM      7  C   UNL     1      45.393   3.234   6.935  0.00  0.00    +0.000 C 
BRANCH   7   8
ATOM      8  O   UNL     1      46.797   3.064   6.736  0.00  0.00    +0.000 OA
BRANCH   8   9
ATOM      9  C   UNL     1      47.169   3.062   5.350  0.00  0.00    +0.000 C 
BRANCH   9  15
ATOM     10  C   UNL     1      47.187   0.523   5.350  0.00  0.00    +0.000 A 
ATOM     11  C   UNL     1      46.953  -0.698   4.704  0.00  0.00    +0.000 A 
ATOM     12  C   UNL     1      46.422  -0.727   3.413  0.00  0.00    +0.000 A 
ATOM     13  C   UNL     1      46.114   0.460   2.760  0.00  0.00    +0.000 A 
ATOM     14  C   UNL     1      46.334   1.679   3.399  0.00  0.00    +0.000 A 
ATOM     15  C   UNL     1      46.857   1.729   4.703  0.00  0.00    +0.000 A 
BRANCH  10  17
ATOM     16  C   UNL     1      47.033  -0.042   7.659  0.00  0.00    +0.000 C 
ATOM     17  O   UNL     1      47.717   0.637   6.610  0.00  0.00    +0.000 OA
ENDBRANCH  10  17
ENDBRANCH   9  15
ENDBRANCH   8   9
ENDBRANCH   7   8
ENDBRANCH   1   7
BRANCH   4  18
ATOM     18  C   UNL     1      44.607   4.042  12.659  0.00  0.00    +0.000 C 
BRANCH  18  19
ATOM     19  N   UNL     1      45.527   5.029  13.229  0.00  0.00    +0.000 N 
ATOM     20  C   UNL     1      45.149   6.429  13.099  0.00  0.00    +0.000 C 
ATOM     21  C   UNL     1      46.777   4.572  13.675  0.00  0.00    +0.000 C 
ATOM     22  O   UNL     1      47.071   3.380  13.632  0.00  0.00    +0.000 OA
BRANCH  21  23
ATOM     23  C   UNL     1      47.742   5.529  14.237  0.00  0.00    +0.000 A 
ATOM     24  C   UNL     1      48.389   6.505  13.497  0.00  0.00    +0.000 A 
ATOM     25  S   UNL     1      49.382   7.522  14.439  0.00  0.00    +0.000 S 
ATOM     26  C   UNL     1      48.896   6.753  15.875  0.00  0.00    +0.000 A 
ATOM     27  N   UNL     1      49.340   7.204  17.060  0.00  0.00    +0.000 NA
ATOM     28  C   UNL     1      48.868   6.496  18.087  0.00  0.00    +0.000 A 
ATOM     29  N   UNL     1      48.078   5.418  18.037  0.00  0.00    +0.000 NA
ATOM     30  C   UNL     1      47.655   5.003  16.820  0.00  0.00    +0.000 A 
ATOM     31  C   UNL     1      48.045   5.682  15.656  0.00  0.00    +0.000 A 
BRANCH  30  32
ATOM     32  O   UNL     1      46.911   3.846  16.746  0.00  0.00    +0.000 OA
ATOM     33  C   UNL     1      47.634   2.712  17.211  0.00  0.00    +0.000 C 
ENDBRANCH  30  32
ENDBRANCH  21  23
ENDBRANCH  18  19
ENDBRANCH   4  18
TORSDOF 9
ENDMDL
MODEL 9
REMARK VINA RESULT:    -5.850      5.906      8.590
REMARK INTER + INTRA:         -10.179
REMARK INTER:                  -8.733
REMARK INTRA:                  -1.446
REMARK UNBOUND:                -1.251
REMARK  Name = 
REMARK  12 active torsions:
REMARK  status: ('A' for Active; 'I' for Inactive)
REMARK    1  A    between atoms: C_1  and  O_2
REMARK    2  A    between atoms: O_2  and  C_3
REMARK    3  A    between atoms: C_8  and  C_9
REMARK    4  A    between atoms: C_9  and  O_10
REMARK    5  A    between atoms: O_10  and  C_11
REMARK    6  A    between atoms: C_11  and  C_12
REMARK    7  A    between atoms: C_15  and  C_16
REMARK    8  A    between atoms: C_16  and  N_17
REMARK    9  A    between atoms: N_17  and  C_18
REMARK   10  A    between atoms: C_19  and  C_21
REMARK   11  A    between atoms: C_28  and  O_29
REMARK   12  A    between atoms: O_29  and  C_30
REMARK                            x       y       z     vdW  Elec       q    Type
REMARK                         _______ _______ _______ _____ _____    ______ ____
ROOT
ATOM      1  C   UNL     1      50.157  10.820  10.562  0.00  0.00    +0.000 A 
ATOM      2  C   UNL     1      50.519   9.737  11.373  0.00  0.00    +0.000 A 
ATOM      3  C   UNL     1      49.565   9.092  12.163  0.00  0.00    +0.000 A 
ATOM      4  C   UNL     1      48.230   9.521  12.168  0.00  0.00    +0.000 A 
ATOM      5  C   UNL     1      47.882  10.643  11.402  0.00  0.00    +0.000 A 
ATOM      6  C   UNL     1      48.835  11.282  10.603  0.00  0.00    +0.000 A 
ENDROOT
BRANCH   1   7
ATOM      7  C   UNL     1      51.160  11.423   9.609  0.00  0.00    +0.000 C 
BRANCH   7   8
ATOM      8  O   UNL     1      52.423  10.759   9.684  0.00  0.00    +0.000 OA
BRANCH   8   9
ATOM      9  C   UNL     1      52.892  10.306   8.406  0.00  0.00    +0.000 C 
BRANCH   9  15
ATOM     10  C   UNL     1      52.767   8.076   7.198  0.00  0.00    +0.000 A 
ATOM     11  C   UNL     1      52.831   6.676   7.213  0.00  0.00    +0.000 A 
ATOM     12  C   UNL     1      53.126   5.991   8.393  0.00  0.00    +0.000 A 
ATOM     13  C   UNL     1      53.365   6.697   9.566  0.00  0.00    +0.000 A 
ATOM     14  C   UNL     1      53.313   8.090   9.559  0.00  0.00    +0.000 A 
ATOM     15  C   UNL     1      53.029   8.798   8.378  0.00  0.00    +0.000 A 
BRANCH  10  17
ATOM     16  C   UNL     1      53.426   8.805   5.029  0.00  0.00    +0.000 C 
ATOM     17  O   UNL     1      52.470   8.820   6.085  0.00  0.00    +0.000 OA
ENDBRANCH  10  17
ENDBRANCH   9  15
ENDBRANCH   8   9
ENDBRANCH   7   8
ENDBRANCH   1   7
BRANCH   4  18
ATOM     18  C   UNL     1      47.169   8.738  12.910  0.00  0.00    +0.000 C 
BRANCH  18  19
ATOM     19  N   UNL     1      46.312   7.899  12.070  0.00  0.00    +0.000 N 
ATOM     20  C   UNL     1      44.992   8.423  11.747  0.00  0.00    +0.000 C 
ATOM     21  C   UNL     1      46.742   6.589  11.805  0.00  0.00    +0.000 C 
ATOM     22  O   UNL     1      47.822   6.177  12.225  0.00  0.00    +0.000 OA
BRANCH  21  23
ATOM     23  C   UNL     1      45.907   5.702  10.981  0.00  0.00    +0.000 A 
ATOM     24  C   UNL     1      45.954   5.655   9.598  0.00  0.00    +0.000 A 
ATOM     25  S   UNL     1      44.933   4.466   8.926  0.00  0.00    +0.000 S 
ATOM     26  C   UNL     1      44.478   3.911  10.467  0.00  0.00    +0.000 A 
ATOM     27  N   UNL     1      43.664   2.849  10.583  0.00  0.00    +0.000 NA
ATOM     28  C   UNL     1      43.404   2.540  11.854  0.00  0.00    +0.000 A 
ATOM     29  N   UNL     1      43.822   3.184  12.949  0.00  0.00    +0.000 NA
ATOM     30  C   UNL     1      44.642   4.248  12.781  0.00  0.00    +0.000 A 
ATOM     31  C   UNL     1      45.028   4.659  11.496  0.00  0.00    +0.000 A 
BRANCH  30  32
ATOM     32  O   UNL     1      45.011   4.971  13.894  0.00  0.00    +0.000 OA
ATOM     33  C   UNL     1      46.170   4.436  14.522  0.00  0.00    +0.000 C 
ENDBRANCH  30  32
ENDBRANCH  21  23
ENDBRANCH  18  19
ENDBRANCH   4  18
TORSDOF 9
ENDMDL
