MODEL 1
REMARK VINA RESULT:    -8.285      0.000      0.000
REMARK INTER + INTRA:         -12.005
REMARK INTER:                 -11.191
REMARK INTRA:                  -0.814
REMARK UNBOUND:                -0.814
REMARK  Name = 
REMARK  6 active torsions:
REMARK  status: ('A' for Active; 'I' for Inactive)
REMARK    1  A    between atoms: C_2  and  C_4
REMARK    2  A    between atoms: C_7  and  N_8
REMARK    3  A    between atoms: N_8  and  C_9
REMARK    4  A    between atoms: C_9  and  C_10
REMARK    5  A    between atoms: C_10  and  C_12
REMARK    6  A    between atoms: C_16  and  N_17
REMARK                            x       y       z     vdW  Elec       q    Type
REMARK                         _______ _______ _______ _____ _____    ______ ____
ROOT
ATOM      1  C   UNL     1      44.390   4.683  12.475  0.00  0.00    +0.000 C 
ATOM      2  F   UNL     1      44.316   3.314  12.495  0.00  0.00    +0.000 F 
ENDROOT
BRANCH   1   3
ATOM      3  C   UNL     1      45.714   5.191  13.006  0.00  0.00    +0.000 A 
ATOM      4  C   UNL     1      46.359   6.253  12.364  0.00  0.00    +0.000 A 
ATOM      5  C   UNL     1      47.535   6.773  12.892  0.00  0.00    +0.000 A 
ATOM      6  C   UNL     1      48.060   6.250  14.075  0.00  0.00    +0.000 A 
ATOM      7  C   UNL     1      47.435   5.200  14.765  0.00  0.00    +0.000 A 
ATOM      8  C   UNL     1      46.272   4.665  14.191  0.00  0.00    +0.000 A 
BRANCH   7   9
ATOM      9  N   UNL     1      47.937   4.735  15.964  0.00  0.00    +0.000 N 
ATOM     10  C   UNL     1      47.988   3.299  16.278  0.00  0.00    +0.000 C 
ATOM     11  C   UNL     1      47.272   3.017  17.615  0.00  0.00    +0.000 C 
ATOM     12  N   UNL     1      47.798   3.826  18.736  0.00  0.00    +0.000 NA
ATOM     13  C   UNL     1      47.701   5.258  18.371  0.00  0.00    +0.000 C 
ATOM     14  C   UNL     1      48.397   5.628  17.034  0.00  0.00    +0.000 C 
ATOM     15  H   UNL     1      48.786   3.598  18.851  0.00  0.00    +0.000 HD
ENDBRANCH   7   9
ENDBRANCH   1   3
BRANCH   1  16
ATOM     16  C   UNL     1      44.195   5.140  11.016  0.00  0.00    +0.000 C 
BRANCH  16  17
ATOM     17  N   UNL     1      43.710   4.052  10.157  0.00  0.00    +0.000 N 
ATOM     18  H   UNL     1      43.143   3.365  10.657  0.00  0.00    +0.000 HD
BRANCH  17  22
ATOM     19  C   UNL     1      46.536   2.372   7.504  0.00  0.00    +0.000 A 
ATOM     20  C   UNL     1      45.831   1.538   8.374  0.00  0.00    +0.000 A 
ATOM     21  C   UNL     1      44.875   2.079   9.240  0.00  0.00    +0.000 A 
ATOM     22  C   UNL     1      44.581   3.449   9.245  0.00  0.00    +0.000 A 
ATOM     23  C   UNL     1      45.299   4.271   8.365  0.00  0.00    +0.000 A 
ATOM     24  C   UNL     1      46.272   3.743   7.506  0.00  0.00    +0.000 A 
BRANCH  19  26
ATOM     25  N   UNL     1      48.719   2.616   6.444  0.00  0.00    +0.000 N 
ATOM     26  C   UNL     1      47.602   1.845   6.612  0.00  0.00    +0.000 C 
ATOM     27  O   UNL     1      47.501   0.758   6.062  0.00  0.00    +0.000 OA
ATOM     28  H   UNL     1      49.468   2.206   5.901  0.00  0.00    +0.000 HD
ATOM     29  H   UNL     1      48.947   3.384   7.058  0.00  0.00    +0.000 HD
ENDBRANCH  19  26
ENDBRANCH  17  22
ENDBRANCH  16  17
ENDBRANCH   1  16
TORSDOF 6
ENDMDL
MODEL 2
REMARK VINA RESULT:    -8.213      0.944      1.391
REMARK INTER + INTRA:         -11.908
REMARK INTER:                 -11.124
REMARK INTRA:                  -0.783
REMARK UNBOUND:                -0.814
REMARK  Name = 
REMARK  6 active torsions:
REMARK  status: ('A' for Active; 'I' for Inactive)
REMARK    1  A    between atoms: C_2  and  C_4
REMARK    2  A    between atoms: C_7  and  N_8
REMARK    3  A    between atoms: N_8  and  C_9
REMARK    4  A    between atoms: C_9  and  C_10
REMARK    5  A    between atoms: C_10  and  C_12
REMARK    6  A    between atoms: C_16  and  N_17
REMARK                            x       y       z     vdW  Elec       q    Type
REMARK                         _______ _______ _______ _____ _____    ______ ____
ROOT
ATOM      1  C   UNL     1      43.512   5.343  12.353  0.00  0.00    +0.000 C 
ATOM      2  F   UNL     1      42.892   5.010  13.530  0.00  0.00    +0.000 F 
ENDROOT
BRANCH   1   3
ATOM      3  C   UNL     1      44.981   5.655  12.551  0.00  0.00    +0.000 A 
ATOM      4  C   UNL     1      45.634   6.521  11.667  0.00  0.00    +0.000 A 
ATOM      5  C   UNL     1      46.960   6.870  11.889  0.00  0.00    +0.000 A 
ATOM      6  C   UNL     1      47.634   6.376  13.006  0.00  0.00    +0.000 A 
ATOM      7  C   UNL     1      47.013   5.523  13.932  0.00  0.00    +0.000 A 
ATOM      8  C   UNL     1      45.686   5.153  13.665  0.00  0.00    +0.000 A 
BRANCH   7   9
ATOM      9  N   UNL     1      47.678   5.092  15.063  0.00  0.00    +0.000 N 
ATOM     10  C   UNL     1      47.410   3.777  15.664  0.00  0.00    +0.000 C 
ATOM     11  C   UNL     1      47.045   3.933  17.154  0.00  0.00    +0.000 C 
ATOM     12  N   UNL     1      48.066   4.673  17.927  0.00  0.00    +0.000 NA
ATOM     13  C   UNL     1      48.277   5.993  17.288  0.00  0.00    +0.000 C 
ATOM     14  C   UNL     1      48.648   5.926  15.783  0.00  0.00    +0.000 C 
ATOM     15  H   UNL     1      48.942   4.153  17.868  0.00  0.00    +0.000 HD
ENDBRANCH   7   9
ENDBRANCH   1   3
BRANCH   1  16
ATOM     16  C   UNL     1      43.350   4.155  11.386  0.00  0.00    +0.000 C 
BRANCH  16  17
ATOM     17  N   UNL     1      43.612   4.538   9.992  0.00  0.00    +0.000 N 
ATOM     18  H   UNL     1      42.763   4.635   9.434  0.00  0.00    +0.000 HD
BRANCH  17  22
ATOM     19  C   UNL     1      46.529   2.501   7.713  0.00  0.00    +0.000 A 
ATOM     20  C   UNL     1      46.464   3.894   7.657  0.00  0.00    +0.000 A 
ATOM     21  C   UNL     1      45.517   4.582   8.425  0.00  0.00    +0.000 A 
ATOM     22  C   UNL     1      44.638   3.908   9.282  0.00  0.00    +0.000 A 
ATOM     23  C   UNL     1      44.718   2.509   9.326  0.00  0.00    +0.000 A 
ATOM     24  C   UNL     1      45.648   1.807   8.546  0.00  0.00    +0.000 A 
BRANCH  19  26
ATOM     25  N   UNL     1      48.548   2.403   6.350  0.00  0.00    +0.000 N 
ATOM     26  C   UNL     1      47.477   1.730   6.867  0.00  0.00    +0.000 C 
ATOM     27  O   UNL     1      47.322   0.536   6.653  0.00  0.00    +0.000 OA
ATOM     28  H   UNL     1      49.227   1.846   5.846  0.00  0.00    +0.000 HD
ATOM     29  H   UNL     1      48.842   3.305   6.696  0.00  0.00    +0.000 HD
ENDBRANCH  19  26
ENDBRANCH  17  22
ENDBRANCH  16  17
ENDBRANCH   1  16
TORSDOF 6
ENDMDL
MODEL 3
REMARK VINA RESULT:    -8.149      2.567      3.755
REMARK INTER + INTRA:         -11.821
REMARK INTER:                 -10.872
REMARK INTRA:                  -0.949
REMARK UNBOUND:                -0.814
REMARK  Name = 
REMARK  6 active torsions:
REMARK  status: ('A' for Active; 'I' for Inactive)
REMARK    1  A    between atoms: C_2  and  C_4
REMARK    2  A    between atoms: C_7  and  N_8
REMARK    3  A    between atoms: N_8  and  C_9
REMARK    4  A    between atoms: C_9  and  C_10
REMARK    5  A    between atoms: C_10  and  C_12
REMARK    6  A    between atoms: C_16  and  N_17
REMARK                            x       y       z     vdW  Elec       q    Type
REMARK                         _______ _______ _______ _____ _____    ______ ____
ROOT
ATOM      1  C   UNL     1      43.328   5.347  12.336  0.00  0.00    +0.000 C 
ATOM      2  F   UNL     1      42.536   4.919  13.371  0.00  0.00    +0.000 F 
ENDROOT
BRANCH   1   3
ATOM      3  C   UNL     1      44.776   5.500  12.751  0.00  0.00    +0.000 A 
ATOM      4  C   UNL     1      45.448   4.425  13.342  0.00  0.00    +0.000 A 
ATOM      5  C   UNL     1      46.797   4.536  13.654  0.00  0.00    +0.000 A 
ATOM      6  C   UNL     1      47.488   5.711  13.357  0.00  0.00    +0.000 A 
ATOM      7  C   UNL     1      46.861   6.807  12.744  0.00  0.00    +0.000 A 
ATOM      8  C   UNL     1      45.489   6.686  12.475  0.00  0.00    +0.000 A 
BRANCH   7   9
ATOM      9  N   UNL     1      47.574   7.940  12.405  0.00  0.00    +0.000 N 
ATOM     10  C   UNL     1      48.781   7.874  11.567  0.00  0.00    +0.000 C 
ATOM     11  C   UNL     1      49.966   8.555  12.280  0.00  0.00    +0.000 C 
ATOM     12  N   UNL     1      49.677   9.947  12.686  0.00  0.00    +0.000 NA
ATOM     13  C   UNL     1      48.468   9.947  13.542  0.00  0.00    +0.000 C 
ATOM     14  C   UNL     1      47.225   9.278  12.898  0.00  0.00    +0.000 C 
ATOM     15  H   UNL     1      49.464  10.482  11.843  0.00  0.00    +0.000 HD
ENDBRANCH   7   9
ENDBRANCH   1   3
BRANCH   1  16
ATOM     16  C   UNL     1      43.211   4.312  11.199  0.00  0.00    +0.000 C 
BRANCH  16  17
ATOM     17  N   UNL     1      43.777   4.811   9.939  0.00  0.00    +0.000 N 
ATOM     18  H   UNL     1      43.075   5.194   9.305  0.00  0.00    +0.000 HD
BRANCH  17  22
ATOM     19  C   UNL     1      46.479   2.387   7.776  0.00  0.00    +0.000 A 
ATOM     20  C   UNL     1      46.511   3.772   7.604  0.00  0.00    +0.000 A 
ATOM     21  C   UNL     1      45.637   4.587   8.333  0.00  0.00    +0.000 A 
ATOM     22  C   UNL     1      44.736   4.051   9.262  0.00  0.00    +0.000 A 
ATOM     23  C   UNL     1      44.717   2.659   9.421  0.00  0.00    +0.000 A 
ATOM     24  C   UNL     1      45.574   1.830   8.683  0.00  0.00    +0.000 A 
BRANCH  19  26
ATOM     25  N   UNL     1      48.484   2.016   6.440  0.00  0.00    +0.000 N 
ATOM     26  C   UNL     1      47.346   1.482   6.977  0.00  0.00    +0.000 C 
ATOM     27  O   UNL     1      47.070   0.302   6.818  0.00  0.00    +0.000 OA
ATOM     28  H   UNL     1      49.104   1.368   5.970  0.00  0.00    +0.000 HD
ATOM     29  H   UNL     1      48.868   2.897   6.745  0.00  0.00    +0.000 HD
ENDBRANCH  19  26
ENDBRANCH  17  22
ENDBRANCH  16  17
ENDBRANCH   1  16
TORSDOF 6
ENDMDL
MODEL 4
REMARK VINA RESULT:    -7.199      2.208      2.800
REMARK INTER + INTRA:         -10.537
REMARK INTER:                  -9.712
REMARK INTRA:                  -0.826
REMARK UNBOUND:                -0.814
REMARK  Name = 
REMARK  6 active torsions:
REMARK  status: ('A' for Active; 'I' for Inactive)
REMARK    1  A    between atoms: C_2  and  C_4
REMARK    2  A    between atoms: C_7  and  N_8
REMARK    3  A    between atoms: N_8  and  C_9
REMARK    4  A    between atoms: C_9  and  C_10
REMARK    5  A    between atoms: C_10  and  C_12
REMARK    6  A    between atoms: C_16  and  N_17
REMARK                            x       y       z     vdW  Elec       q    Type
REMARK                         _______ _______ _______ _____ _____    ______ ____
ROOT
ATOM      1  C   UNL     1      43.763   4.840  12.593  0.00  0.00    +0.000 C 
ATOM      2  F   UNL     1      43.601   4.515  13.916  0.00  0.00    +0.000 F 
ENDROOT
BRANCH   1   3
ATOM      3  C   UNL     1      44.772   5.953  12.398  0.00  0.00    +0.000 A 
ATOM      4  C   UNL     1      44.390   7.131  11.749  0.00  0.00    +0.000 A 
ATOM      5  C   UNL     1      45.289   8.184  11.636  0.00  0.00    +0.000 A 
ATOM      6  C   UNL     1      46.565   8.076  12.190  0.00  0.00    +0.000 A 
ATOM      7  C   UNL     1      46.984   6.921  12.870  0.00  0.00    +0.000 A 
ATOM      8  C   UNL     1      46.072   5.856  12.936  0.00  0.00    +0.000 A 
BRANCH   7   9
ATOM      9  N   UNL     1      48.229   6.854  13.462  0.00  0.00    +0.000 N 
ATOM     10  C   UNL     1      48.402   6.412  14.854  0.00  0.00    +0.000 C 
ATOM     11  C   UNL     1      49.179   7.472  15.660  0.00  0.00    +0.000 C 
ATOM     12  N   UNL     1      50.479   7.827  15.050  0.00  0.00    +0.000 NA
ATOM     13  C   UNL     1      50.239   8.283  13.661  0.00  0.00    +0.000 C 
ATOM     14  C   UNL     1      49.459   7.273  12.779  0.00  0.00    +0.000 C 
ATOM     15  H   UNL     1      51.047   6.980  15.007  0.00  0.00    +0.000 HD
ENDBRANCH   7   9
ENDBRANCH   1   3
BRANCH   1  16
ATOM     16  C   UNL     1      44.227   3.570  11.854  0.00  0.00    +0.000 C 
BRANCH  16  17
ATOM     17  N   UNL     1      43.723   3.520  10.474  0.00  0.00    +0.000 N 
ATOM     18  H   UNL     1      42.826   3.042  10.390  0.00  0.00    +0.000 HD
BRANCH  17  22
ATOM     19  C   UNL     1      46.534   2.678   7.434  0.00  0.00    +0.000 A 
ATOM     20  C   UNL     1      46.027   1.633   8.208  0.00  0.00    +0.000 A 
ATOM     21  C   UNL     1      45.078   1.896   9.203  0.00  0.00    +0.000 A 
ATOM     22  C   UNL     1      44.594   3.190   9.431  0.00  0.00    +0.000 A 
ATOM     23  C   UNL     1      45.114   4.227   8.644  0.00  0.00    +0.000 A 
ATOM     24  C   UNL     1      46.079   3.979   7.658  0.00  0.00    +0.000 A 
BRANCH  19  26
ATOM     25  N   UNL     1      47.393   3.000   5.174  0.00  0.00    +0.000 N 
ATOM     26  C   UNL     1      47.587   2.450   6.410  0.00  0.00    +0.000 C 
ATOM     27  O   UNL     1      48.600   1.812   6.662  0.00  0.00    +0.000 OA
ATOM     28  H   UNL     1      48.156   2.906   4.517  0.00  0.00    +0.000 HD
ATOM     29  H   UNL     1      46.710   3.723   5.003  0.00  0.00    +0.000 HD
ENDBRANCH  19  26
ENDBRANCH  17  22
ENDBRANCH  16  17
ENDBRANCH   1  16
TORSDOF 6
ENDMDL
MODEL 5
REMARK VINA RESULT:    -6.942      2.587      4.172
REMARK INTER + INTRA:         -10.190
REMARK INTER:                  -9.334
REMARK INTRA:                  -0.856
REMARK UNBOUND:                -0.814
REMARK  Name = 
REMARK  6 active torsions:
REMARK  status: ('A' for Active; 'I' for Inactive)
REMARK    1  A    between atoms: C_2  and  C_4
REMARK    2  A    between atoms: C_7  and  N_8
REMARK    3  A    between atoms: N_8  and  C_9
REMARK    4  A    between atoms: C_9  and  C_10
REMARK    5  A    between atoms: C_10  and  C_12
REMARK    6  A    between atoms: C_16  and  N_17
REMARK                            x       y       z     vdW  Elec       q    Type
REMARK                         _______ _______ _______ _____ _____    ______ ____
ROOT
ATOM      1  C   UNL     1      45.523   4.758  12.911  0.00  0.00    +0.000 C 
ATOM      2  F   UNL     1      45.864   3.441  12.734  0.00  0.00    +0.000 F 
ENDROOT
BRANCH   1   3
ATOM      3  C   UNL     1      46.704   5.600  13.347  0.00  0.00    +0.000 A 
ATOM      4  C   UNL     1      47.254   5.419  14.621  0.00  0.00    +0.000 A 
ATOM      5  C   UNL     1      48.384   6.134  14.997  0.00  0.00    +0.000 A 
ATOM      6  C   UNL     1      48.985   7.014  14.097  0.00  0.00    +0.000 A 
ATOM      7  C   UNL     1      48.482   7.211  12.801  0.00  0.00    +0.000 A 
ATOM      8  C   UNL     1      47.317   6.508  12.458  0.00  0.00    +0.000 A 
BRANCH   7   9
ATOM      9  N   UNL     1      49.123   8.041  11.904  0.00  0.00    +0.000 N 
ATOM     10  C   UNL     1      50.390   7.660  11.263  0.00  0.00    +0.000 C 
ATOM     11  C   UNL     1      51.460   8.745  11.501  0.00  0.00    +0.000 C 
ATOM     12  N   UNL     1      51.028  10.091  11.065  0.00  0.00    +0.000 NA
ATOM     13  C   UNL     1      49.762  10.428  11.757  0.00  0.00    +0.000 C 
ATOM     14  C   UNL     1      48.630   9.384  11.570  0.00  0.00    +0.000 C 
ATOM     15  H   UNL     1      50.835  10.048  10.063  0.00  0.00    +0.000 HD
ENDBRANCH   7   9
ENDBRANCH   1   3
BRANCH   1  16
ATOM     16  C   UNL     1      44.968   5.281  11.572  0.00  0.00    +0.000 C 
BRANCH  16  17
ATOM     17  N   UNL     1      44.326   4.217  10.788  0.00  0.00    +0.000 N 
ATOM     18  H   UNL     1      43.934   3.471  11.364  0.00  0.00    +0.000 HD
BRANCH  17  22
ATOM     19  C   UNL     1      46.468   2.823   7.423  0.00  0.00    +0.000 A 
ATOM     20  C   UNL     1      45.856   1.903   8.276  0.00  0.00    +0.000 A 
ATOM     21  C   UNL     1      45.124   2.353   9.381  0.00  0.00    +0.000 A 
ATOM     22  C   UNL     1      44.962   3.719   9.646  0.00  0.00    +0.000 A 
ATOM     23  C   UNL     1      45.583   4.628   8.779  0.00  0.00    +0.000 A 
ATOM     24  C   UNL     1      46.336   4.189   7.681  0.00  0.00    +0.000 A 
BRANCH  19  26
ATOM     25  N   UNL     1      48.660   2.522   6.398  0.00  0.00    +0.000 N 
ATOM     26  C   UNL     1      47.305   2.385   6.276  0.00  0.00    +0.000 C 
ATOM     27  O   UNL     1      46.811   1.903   5.267  0.00  0.00    +0.000 OA
ATOM     28  H   UNL     1      49.218   2.142   5.643  0.00  0.00    +0.000 HD
ATOM     29  H   UNL     1      49.113   2.678   7.286  0.00  0.00    +0.000 HD
ENDBRANCH  19  26
ENDBRANCH  17  22
ENDBRANCH  16  17
ENDBRANCH   1  16
TORSDOF 6
ENDMDL
MODEL 6
REMARK VINA RESULT:    -6.901      1.679      2.016
REMARK INTER + INTRA:         -10.136
REMARK INTER:                  -9.428
REMARK INTRA:                  -0.708
REMARK UNBOUND:                -0.814
REMARK  Name = 
REMARK  6 active torsions:
REMARK  status: ('A' for Active; 'I' for Inactive)
REMARK    1  A    between atoms: C_2  and  C_4
REMARK    2  A    between atoms: C_7  and  N_8
REMARK    3  A    between atoms: N_8  and  C_9
REMARK    4  A    between atoms: C_9  and  C_10
REMARK    5  A    between atoms: C_10  and  C_12
REMARK    6  A    between atoms: C_16  and  N_17
REMARK                            x       y       z     vdW  Elec       q    Type
REMARK                         _______ _______ _______ _____ _____    ______ ____
ROOT
ATOM      1  C   UNL     1      45.336   5.963  12.239  0.00  0.00    +0.000 C 
ATOM      2  F   UNL     1      44.472   6.206  13.276  0.00  0.00    +0.000 F 
ENDROOT
BRANCH   1   3
ATOM      3  C   UNL     1      46.741   6.440  12.543  0.00  0.00    +0.000 A 
ATOM      4  C   UNL     1      47.539   6.952  11.514  0.00  0.00    +0.000 A 
ATOM      5  C   UNL     1      48.799   7.462  11.802  0.00  0.00    +0.000 A 
ATOM      6  C   UNL     1      49.260   7.485  13.119  0.00  0.00    +0.000 A 
ATOM      7  C   UNL     1      48.484   7.003  14.185  0.00  0.00    +0.000 A 
ATOM      8  C   UNL     1      47.232   6.456  13.865  0.00  0.00    +0.000 A 
BRANCH   7   9
ATOM      9  N   UNL     1      48.932   7.087  15.488  0.00  0.00    +0.000 N 
ATOM     10  C   UNL     1      49.118   5.891  16.323  0.00  0.00    +0.000 C 
ATOM     11  C   UNL     1      48.328   6.028  17.640  0.00  0.00    +0.000 C 
ATOM     12  N   UNL     1      48.662   7.257  18.392  0.00  0.00    +0.000 NA
ATOM     13  C   UNL     1      48.435   8.425  17.510  0.00  0.00    +0.000 C 
ATOM     14  C   UNL     1      49.195   8.367  16.159  0.00  0.00    +0.000 C 
ATOM     15  H   UNL     1      49.656   7.225  18.620  0.00  0.00    +0.000 HD
ENDBRANCH   7   9
ENDBRANCH   1   3
BRANCH   1  16
ATOM     16  C   UNL     1      45.339   4.444  11.978  0.00  0.00    +0.000 C 
BRANCH  16  17
ATOM     17  N   UNL     1      44.483   4.078  10.842  0.00  0.00    +0.000 N 
ATOM     18  H   UNL     1      43.688   3.494  11.106  0.00  0.00    +0.000 HD
BRANCH  17  22
ATOM     19  C   UNL     1      46.473   2.905   7.304  0.00  0.00    +0.000 A 
ATOM     20  C   UNL     1      45.872   1.934   8.107  0.00  0.00    +0.000 A 
ATOM     21  C   UNL     1      45.189   2.312   9.269  0.00  0.00    +0.000 A 
ATOM     22  C   UNL     1      45.066   3.657   9.643  0.00  0.00    +0.000 A 
ATOM     23  C   UNL     1      45.676   4.617   8.825  0.00  0.00    +0.000 A 
ATOM     24  C   UNL     1      46.379   4.250   7.669  0.00  0.00    +0.000 A 
BRANCH  19  26
ATOM     25  N   UNL     1      48.614   2.434   6.237  0.00  0.00    +0.000 N 
ATOM     26  C   UNL     1      47.259   2.540   6.096  0.00  0.00    +0.000 C 
ATOM     27  O   UNL     1      46.720   2.323   5.020  0.00  0.00    +0.000 OA
ATOM     28  H   UNL     1      49.124   2.104   5.427  0.00  0.00    +0.000 HD
ATOM     29  H   UNL     1      49.063   2.362   7.138  0.00  0.00    +0.000 HD
ENDBRANCH  19  26
ENDBRANCH  17  22
ENDBRANCH  16  17
ENDBRANCH   1  16
TORSDOF 6
ENDMDL
MODEL 7
REMARK VINA RESULT:    -6.601      3.647      7.584
REMARK INTER + INTRA:          -9.730
REMARK INTER:                  -8.659
REMARK INTRA:                  -1.071
REMARK UNBOUND:                -0.814
REMARK  Name = 
REMARK  6 active torsions:
REMARK  status: ('A' for Active; 'I' for Inactive)
REMARK    1  A    between atoms: C_2  and  C_4
REMARK    2  A    between atoms: C_7  and  N_8
REMARK    3  A    between atoms: N_8  and  C_9
REMARK    4  A    between atoms: C_9  and  C_10
REMARK    5  A    between atoms: C_10  and  C_12
REMARK    6  A    between atoms: C_16  and  N_17
REMARK                            x       y       z     vdW  Elec       q    Type
REMARK                         _______ _______ _______ _____ _____    ______ ____
ROOT
ATOM      1  C   UNL     1      46.811   4.545  13.868  0.00  0.00    +0.000 C 
ATOM      2  F   UNL     1      46.607   4.144  15.164  0.00  0.00    +0.000 F 
ENDROOT
BRANCH   1   3
ATOM      3  C   UNL     1      45.593   4.309  12.999  0.00  0.00    +0.000 A 
ATOM      4  C   UNL     1      44.324   4.661  13.470  0.00  0.00    +0.000 A 
ATOM      5  C   UNL     1      43.214   4.519  12.648  0.00  0.00    +0.000 A 
ATOM      6  C   UNL     1      43.367   4.046  11.344  0.00  0.00    +0.000 A 
ATOM      7  C   UNL     1      44.623   3.702  10.821  0.00  0.00    +0.000 A 
ATOM      8  C   UNL     1      45.724   3.816  11.683  0.00  0.00    +0.000 A 
BRANCH   7   9
ATOM      9  N   UNL     1      44.763   3.292   9.510  0.00  0.00    +0.000 N 
ATOM     10  C   UNL     1      44.754   1.869   9.138  0.00  0.00    +0.000 C 
ATOM     11  C   UNL     1      46.022   1.516   8.336  0.00  0.00    +0.000 C 
ATOM     12  N   UNL     1      46.214   2.375   7.147  0.00  0.00    +0.000 NA
ATOM     13  C   UNL     1      46.237   3.790   7.585  0.00  0.00    +0.000 C 
ATOM     14  C   UNL     1      44.993   4.228   8.403  0.00  0.00    +0.000 C 
ATOM     15  H   UNL     1      45.406   2.249   6.536  0.00  0.00    +0.000 HD
ENDBRANCH   7   9
ENDBRANCH   1   3
BRANCH   1  16
ATOM     16  C   UNL     1      47.161   6.046  13.892  0.00  0.00    +0.000 C 
BRANCH  16  17
ATOM     17  N   UNL     1      47.312   6.599  12.539  0.00  0.00    +0.000 N 
ATOM     18  H   UNL     1      48.286   6.697  12.250  0.00  0.00    +0.000 HD
BRANCH  17  22
ATOM     19  C   UNL     1      44.774   9.818  11.514  0.00  0.00    +0.000 A 
ATOM     20  C   UNL     1      46.011  10.080  12.105  0.00  0.00    +0.000 A 
ATOM     21  C   UNL     1      46.871   9.024  12.428  0.00  0.00    +0.000 A 
ATOM     22  C   UNL     1      46.535   7.693  12.148  0.00  0.00    +0.000 A 
ATOM     23  C   UNL     1      45.289   7.448  11.555  0.00  0.00    +0.000 A 
ATOM     24  C   UNL     1      44.411   8.496  11.245  0.00  0.00    +0.000 A 
BRANCH  19  26
ATOM     25  N   UNL     1      42.770  11.083  12.085  0.00  0.00    +0.000 N 
ATOM     26  C   UNL     1      43.808  10.905  11.213  0.00  0.00    +0.000 C 
ATOM     27  O   UNL     1      43.938  11.629  10.236  0.00  0.00    +0.000 OA
ATOM     28  H   UNL     1      42.170  11.880  11.911  0.00  0.00    +0.000 HD
ATOM     29  H   UNL     1      42.764  10.683  13.011  0.00  0.00    +0.000 HD
ENDBRANCH  19  26
ENDBRANCH  17  22
ENDBRANCH  16  17
ENDBRANCH   1  16
TORSDOF 6
ENDMDL
MODEL 8
REMARK VINA RESULT:    -6.513      3.611      7.722
REMARK INTER + INTRA:          -9.611
REMARK INTER:                  -8.588
REMARK INTRA:                  -1.023
REMARK UNBOUND:                -0.814
REMARK  Name = 
REMARK  6 active torsions:
REMARK  status: ('A' for Active; 'I' for Inactive)
REMARK    1  A    between atoms: C_2  and  C_4
REMARK    2  A    between atoms: C_7  and  N_8
REMARK    3  A    between atoms: N_8  and  C_9
REMARK    4  A    between atoms: C_9  and  C_10
REMARK    5  A    between atoms: C_10  and  C_12
REMARK    6  A    between atoms: C_16  and  N_17
REMARK                            x       y       z     vdW  Elec       q    Type
REMARK                         _______ _______ _______ _____ _____    ______ ____
ROOT
ATOM      1  C   UNL     1      48.623   7.952  11.980  0.00  0.00    +0.000 C 
ATOM      2  F   UNL     1      49.212   7.742  10.760  0.00  0.00    +0.000 F 
ENDROOT
BRANCH   1   3
ATOM      3  C   UNL     1      47.111   7.905  11.900  0.00  0.00    +0.000 A 
ATOM      4  C   UNL     1      46.372   9.088  12.002  0.00  0.00    +0.000 A 
ATOM      5  C   UNL     1      44.991   9.059  11.852  0.00  0.00    +0.000 A 
ATOM      6  C   UNL     1      44.343   7.855  11.575  0.00  0.00    +0.000 A 
ATOM      7  C   UNL     1      45.047   6.647  11.441  0.00  0.00    +0.000 A 
ATOM      8  C   UNL     1      46.435   6.694  11.637  0.00  0.00    +0.000 A 
BRANCH   7   9
ATOM      9  N   UNL     1      44.396   5.476  11.110  0.00  0.00    +0.000 N 
ATOM     10  C   UNL     1      43.289   4.947  11.922  0.00  0.00    +0.000 C 
ATOM     11  C   UNL     1      43.581   3.493  12.345  0.00  0.00    +0.000 C 
ATOM     12  N   UNL     1      43.872   2.603  11.200  0.00  0.00    +0.000 NA
ATOM     13  C   UNL     1      45.005   3.174  10.435  0.00  0.00    +0.000 C 
ATOM     14  C   UNL     1      44.793   4.639   9.971  0.00  0.00    +0.000 C 
ATOM     15  H   UNL     1      43.053   2.599  10.590  0.00  0.00    +0.000 HD
ENDBRANCH   7   9
ENDBRANCH   1   3
BRANCH   1  16
ATOM     16  C   UNL     1      49.135   6.861  12.941  0.00  0.00    +0.000 C 
BRANCH  16  17
ATOM     17  N   UNL     1      49.039   7.275  14.347  0.00  0.00    +0.000 N 
ATOM     18  H   UNL     1      49.840   7.823  14.662  0.00  0.00    +0.000 HD
BRANCH  17  22
ATOM     19  C   UNL     1      47.861   4.301  17.108  0.00  0.00    +0.000 A 
ATOM     20  C   UNL     1      48.796   5.262  17.493  0.00  0.00    +0.000 A 
ATOM     21  C   UNL     1      49.177   6.267  16.596  0.00  0.00    +0.000 A 
ATOM     22  C   UNL     1      48.621   6.354  15.313  0.00  0.00    +0.000 A 
ATOM     23  C   UNL     1      47.683   5.380  14.943  0.00  0.00    +0.000 A 
ATOM     24  C   UNL     1      47.308   4.357  15.826  0.00  0.00    +0.000 A 
BRANCH  19  26
ATOM     25  N   UNL     1      48.176   3.046  19.175  0.00  0.00    +0.000 N 
ATOM     26  C   UNL     1      47.476   3.183  18.008  0.00  0.00    +0.000 C 
ATOM     27  O   UNL     1      46.560   2.422  17.733  0.00  0.00    +0.000 OA
ATOM     28  H   UNL     1      47.848   2.333  19.813  0.00  0.00    +0.000 HD
ATOM     29  H   UNL     1      48.758   3.781  19.548  0.00  0.00    +0.000 HD
ENDBRANCH  19  26
ENDBRANCH  17  22
ENDBRANCH  16  17
ENDBRANCH   1  16
TORSDOF 6
ENDMDL
MODEL 9
REMARK VINA RESULT:    -6.310      2.102      3.017
REMARK INTER + INTRA:          -9.337
REMARK INTER:                  -8.834
REMARK INTRA:                  -0.503
REMARK UNBOUND:                -0.814
REMARK  Name = 
REMARK  6 active torsions:
REMARK  status: ('A' for Active; 'I' for Inactive)
REMARK    1  A    between atoms: C_2  and  C_4
REMARK    2  A    between atoms: C_7  and  N_8
REMARK    3  A    between atoms: N_8  and  C_9
REMARK    4  A    between atoms: C_9  and  C_10
REMARK    5  A    between atoms: C_10  and  C_12
REMARK    6  A    between atoms: C_16  and  N_17
REMARK                            x       y       z     vdW  Elec       q    Type
REMARK                         _______ _______ _______ _____ _____    ______ ____
ROOT
ATOM      1  C   UNL     1      45.824   5.406  11.927  0.00  0.00    +0.000 C 
ATOM      2  F   UNL     1      45.406   6.659  11.556  0.00  0.00    +0.000 F 
ENDROOT
BRANCH   1   3
ATOM      3  C   UNL     1      46.572   5.421  13.244  0.00  0.00    +0.000 A 
ATOM      4  C   UNL     1      46.555   4.290  14.067  0.00  0.00    +0.000 A 
ATOM      5  C   UNL     1      47.301   4.272  15.238  0.00  0.00    +0.000 A 
ATOM      6  C   UNL     1      48.088   5.372  15.582  0.00  0.00    +0.000 A 
ATOM      7  C   UNL     1      48.154   6.519  14.776  0.00  0.00    +0.000 A 
ATOM      8  C   UNL     1      47.360   6.530  13.619  0.00  0.00    +0.000 A 
BRANCH   7   9
ATOM      9  N   UNL     1      48.982   7.574  15.102  0.00  0.00    +0.000 N 
ATOM     10  C   UNL     1      50.447   7.455  15.050  0.00  0.00    +0.000 C 
ATOM     11  C   UNL     1      51.067   7.851  16.405  0.00  0.00    +0.000 C 
ATOM     12  N   UNL     1      50.659   9.200  16.856  0.00  0.00    +0.000 NA
ATOM     13  C   UNL     1      49.180   9.253  16.910  0.00  0.00    +0.000 C 
ATOM     14  C   UNL     1      48.475   8.866  15.583  0.00  0.00    +0.000 C 
ATOM     15  H   UNL     1      50.972   9.873  16.155  0.00  0.00    +0.000 HD
ENDBRANCH   7   9
ENDBRANCH   1   3
BRANCH   1  16
ATOM     16  C   UNL     1      44.575   4.510  12.039  0.00  0.00    +0.000 C 
BRANCH  16  17
ATOM     17  N   UNL     1      44.023   4.167  10.722  0.00  0.00    +0.000 N 
ATOM     18  H   UNL     1      43.191   3.578  10.774  0.00  0.00    +0.000 HD
BRANCH  17  22
ATOM     19  C   UNL     1      46.421   2.828   7.511  0.00  0.00    +0.000 A 
ATOM     20  C   UNL     1      46.221   4.197   7.694  0.00  0.00    +0.000 A 
ATOM     21  C   UNL     1      45.449   4.654   8.767  0.00  0.00    +0.000 A 
ATOM     22  C   UNL     1      44.883   3.769   9.693  0.00  0.00    +0.000 A 
ATOM     23  C   UNL     1      45.094   2.397   9.494  0.00  0.00    +0.000 A 
ATOM     24  C   UNL     1      45.850   1.927   8.411  0.00  0.00    +0.000 A 
BRANCH  19  26
ATOM     25  N   UNL     1      48.061   1.279   6.585  0.00  0.00    +0.000 N 
ATOM     26  C   UNL     1      47.183   2.300   6.349  0.00  0.00    +0.000 C 
ATOM     27  O   UNL     1      47.024   2.744   5.221  0.00  0.00    +0.000 OA
ATOM     28  H   UNL     1      48.509   0.876   5.772  0.00  0.00    +0.000 HD
ATOM     29  H   UNL     1      48.041   0.730   7.432  0.00  0.00    +0.000 HD
ENDBRANCH  19  26
ENDBRANCH  17  22
ENDBRANCH  16  17
ENDBRANCH   1  16
TORSDOF 6
ENDMDL
