MODEL 1
REMARK VINA RESULT:    -6.454      0.000      0.000
REMARK INTER + INTRA:          -8.028
REMARK INTER:                  -7.586
REMARK INTRA:                  -0.443
REMARK UNBOUND:                -0.443
REMARK  Name = 
REMARK  3 active torsions:
REMARK  status: ('A' for Active; 'I' for Inactive)
REMARK    1  A    between atoms: C_3  and  N_4
REMARK    2  A    between atoms: C_11  and  C_12
REMARK    3  A    between atoms: C_12  and  C_13
REMARK                            x       y       z     vdW  Elec       q    Type
REMARK                         _______ _______ _______ _____ _____    ______ ____
ROOT
ATOM      1  C   UNL     1      46.772   3.882  13.706  0.00  0.00    +0.000 A 
ATOM      2  C   UNL     1      47.508   5.064  13.855  0.00  0.00    +0.000 A 
ATOM      3  C   UNL     1      47.064   6.265  13.302  0.00  0.00    +0.000 A 
ATOM      4  C   UNL     1      45.871   6.227  12.570  0.00  0.00    +0.000 A 
ATOM      5  C   UNL     1      45.135   5.044  12.343  0.00  0.00    +0.000 A 
ATOM      6  C   UNL     1      45.596   3.874  12.956  0.00  0.00    +0.000 A 
ENDROOT
BRANCH   3   7
ATOM      7  N   UNL     1      47.762   7.455  13.393  0.00  0.00    +0.000 N 
ATOM      8  C   UNL     1      47.113   8.770  13.470  0.00  0.00    +0.000 C 
ATOM      9  C   UNL     1      47.388   9.597  12.208  0.00  0.00    +0.000 C 
ATOM     10  O   UNL     1      48.794   9.670  11.912  0.00  0.00    +0.000 OA
ATOM     11  C   UNL     1      49.324   8.349  11.712  0.00  0.00    +0.000 C 
ATOM     12  C   UNL     1      49.172   7.485  12.972  0.00  0.00    +0.000 C 
ENDBRANCH   3   7
BRANCH   5  13
ATOM     13  C   UNL     1      44.021   5.021  11.300  0.00  0.00    +0.000 C 
ATOM     14  C   UNL     1      43.168   6.273  11.163  0.00  0.00    +0.000 C 
ATOM     15  C   UNL     1      42.560   5.032  11.730  0.00  0.00    +0.000 C 
BRANCH  13  16
ATOM     16  C   UNL     1      44.387   4.168  10.079  0.00  0.00    +0.000 A 
ATOM     17  C   UNL     1      45.219   4.679   9.092  0.00  0.00    +0.000 A 
ATOM     18  C   UNL     1      45.736   3.786   8.182  0.00  0.00    +0.000 A 
ATOM     19  N   UNL     1      45.434   2.478   8.176  0.00  0.00    +0.000 NA
ATOM     20  C   UNL     1      44.583   2.083   9.131  0.00  0.00    +0.000 A 
ATOM     21  N   UNL     1      44.040   2.858  10.082  0.00  0.00    +0.000 NA
ENDBRANCH  13  16
ENDBRANCH   5  13
TORSDOF 3
ENDMDL
MODEL 2
REMARK VINA RESULT:    -6.013      1.436      2.314
REMARK INTER + INTRA:          -7.510
REMARK INTER:                  -7.511
REMARK INTRA:                   0.000
REMARK UNBOUND:                -0.443
REMARK  Name = 
REMARK  3 active torsions:
REMARK  status: ('A' for Active; 'I' for Inactive)
REMARK    1  A    between atoms: C_3  and  N_4
REMARK    2  A    between atoms: C_11  and  C_12
REMARK    3  A    between atoms: C_12  and  C_13
REMARK                            x       y       z     vdW  Elec       q    Type
REMARK                         _______ _______ _______ _____ _____    ______ ____
ROOT
ATOM      1  C   UNL     1      45.292   8.678  11.820  0.00  0.00    +0.000 A 
ATOM      2  C   UNL     1      46.532   8.396  12.406  0.00  0.00    +0.000 A 
ATOM      3  C   UNL     1      46.986   7.083  12.541  0.00  0.00    +0.000 A 
ATOM      4  C   UNL     1      46.134   6.066  12.094  0.00  0.00    +0.000 A 
ATOM      5  C   UNL     1      44.850   6.306  11.557  0.00  0.00    +0.000 A 
ATOM      6  C   UNL     1      44.460   7.640  11.401  0.00  0.00    +0.000 A 
ENDROOT
BRANCH   3   7
ATOM      7  N   UNL     1      48.187   6.745  13.136  0.00  0.00    +0.000 N 
ATOM      8  C   UNL     1      48.312   6.379  14.553  0.00  0.00    +0.000 C 
ATOM      9  C   UNL     1      49.111   7.435  15.327  0.00  0.00    +0.000 C 
ATOM     10  O   UNL     1      50.371   7.722  14.697  0.00  0.00    +0.000 OA
ATOM     11  C   UNL     1      50.155   8.208  13.361  0.00  0.00    +0.000 C 
ATOM     12  C   UNL     1      49.442   7.162  12.491  0.00  0.00    +0.000 C 
ENDBRANCH   3   7
BRANCH   5  13
ATOM     13  C   UNL     1      43.868   5.153  11.371  0.00  0.00    +0.000 C 
ATOM     14  C   UNL     1      42.414   5.409  11.736  0.00  0.00    +0.000 C 
ATOM     15  C   UNL     1      43.227   4.481  12.578  0.00  0.00    +0.000 C 
BRANCH  13  16
ATOM     16  C   UNL     1      44.246   4.255  10.186  0.00  0.00    +0.000 A 
ATOM     17  C   UNL     1      45.019   4.755   9.148  0.00  0.00    +0.000 A 
ATOM     18  C   UNL     1      45.559   3.842   8.270  0.00  0.00    +0.000 A 
ATOM     19  N   UNL     1      45.331   2.521   8.344  0.00  0.00    +0.000 NA
ATOM     20  C   UNL     1      44.531   2.134   9.346  0.00  0.00    +0.000 A 
ATOM     21  N   UNL     1      43.974   2.930  10.270  0.00  0.00    +0.000 NA
ENDBRANCH  13  16
ENDBRANCH   5  13
TORSDOF 3
ENDMDL
MODEL 3
REMARK VINA RESULT:    -5.852      2.729      3.891
REMARK INTER + INTRA:          -7.321
REMARK INTER:                  -7.229
REMARK INTRA:                  -0.091
REMARK UNBOUND:                -0.443
REMARK  Name = 
REMARK  3 active torsions:
REMARK  status: ('A' for Active; 'I' for Inactive)
REMARK    1  A    between atoms: C_3  and  N_4
REMARK    2  A    between atoms: C_11  and  C_12
REMARK    3  A    between atoms: C_12  and  C_13
REMARK                            x       y       z     vdW  Elec       q    Type
REMARK                         _______ _______ _______ _____ _____    ______ ____
ROOT
ATOM      1  C   UNL     1      48.534   6.981  12.847  0.00  0.00    +0.000 A 
ATOM      2  C   UNL     1      48.634   6.461  14.143  0.00  0.00    +0.000 A 
ATOM      3  C   UNL     1      47.683   5.568  14.639  0.00  0.00    +0.000 A 
ATOM      4  C   UNL     1      46.613   5.244  13.795  0.00  0.00    +0.000 A 
ATOM      5  C   UNL     1      46.443   5.797  12.508  0.00  0.00    +0.000 A 
ATOM      6  C   UNL     1      47.446   6.651  12.039  0.00  0.00    +0.000 A 
ENDROOT
BRANCH   3   7
ATOM      7  N   UNL     1      47.715   5.046  15.918  0.00  0.00    +0.000 N 
ATOM      8  C   UNL     1      48.526   5.614  17.003  0.00  0.00    +0.000 C 
ATOM      9  C   UNL     1      49.651   4.655  17.413  0.00  0.00    +0.000 C 
ATOM     10  O   UNL     1      49.152   3.338  17.702  0.00  0.00    +0.000 OA
ATOM     11  C   UNL     1      48.494   2.795  16.545  0.00  0.00    +0.000 C 
ATOM     12  C   UNL     1      47.290   3.653  16.129  0.00  0.00    +0.000 C 
ENDBRANCH   3   7
BRANCH   5  13
ATOM     13  C   UNL     1      45.116   5.633  11.771  0.00  0.00    +0.000 C 
ATOM     14  C   UNL     1      44.241   6.869  11.626  0.00  0.00    +0.000 C 
ATOM     15  C   UNL     1      43.796   5.759  12.521  0.00  0.00    +0.000 C 
BRANCH  13  16
ATOM     16  C   UNL     1      45.195   4.577  10.661  0.00  0.00    +0.000 A 
ATOM     17  C   UNL     1      44.802   3.270  10.910  0.00  0.00    +0.000 A 
ATOM     18  C   UNL     1      44.626   2.449   9.819  0.00  0.00    +0.000 A 
ATOM     19  N   UNL     1      44.864   2.836   8.556  0.00  0.00    +0.000 NA
ATOM     20  C   UNL     1      45.290   4.097   8.415  0.00  0.00    +0.000 A 
ATOM     21  N   UNL     1      45.471   4.989   9.400  0.00  0.00    +0.000 NA
ENDBRANCH  13  16
ENDBRANCH   5  13
TORSDOF 3
ENDMDL
MODEL 4
REMARK VINA RESULT:    -5.805      2.728      6.318
REMARK INTER + INTRA:          -7.266
REMARK INTER:                  -7.086
REMARK INTRA:                  -0.180
REMARK UNBOUND:                -0.443
REMARK  Name = 
REMARK  3 active torsions:
REMARK  status: ('A' for Active; 'I' for Inactive)
REMARK    1  A    between atoms: C_3  and  N_4
REMARK    2  A    between atoms: C_11  and  C_12
REMARK    3  A    between atoms: C_12  and  C_13
REMARK                            x       y       z     vdW  Elec       q    Type
REMARK                         _______ _______ _______ _____ _____    ______ ____
ROOT
ATOM      1  C   UNL     1      44.917   8.833  12.037  0.00  0.00    +0.000 A 
ATOM      2  C   UNL     1      44.203   7.799  11.418  0.00  0.00    +0.000 A 
ATOM      3  C   UNL     1      44.651   6.479  11.471  0.00  0.00    +0.000 A 
ATOM      4  C   UNL     1      45.857   6.243  12.142  0.00  0.00    +0.000 A 
ATOM      5  C   UNL     1      46.638   7.265  12.722  0.00  0.00    +0.000 A 
ATOM      6  C   UNL     1      46.124   8.566  12.683  0.00  0.00    +0.000 A 
ENDROOT
BRANCH   3   7
ATOM      7  N   UNL     1      44.003   5.425  10.856  0.00  0.00    +0.000 N 
ATOM      8  C   UNL     1      42.844   4.737  11.438  0.00  0.00    +0.000 C 
ATOM      9  C   UNL     1      43.193   3.292  11.820  0.00  0.00    +0.000 C 
ATOM     10  O   UNL     1      43.789   2.579  10.723  0.00  0.00    +0.000 OA
ATOM     11  C   UNL     1      44.995   3.239  10.302  0.00  0.00    +0.000 C 
ATOM     12  C   UNL     1      44.711   4.667   9.812  0.00  0.00    +0.000 C 
ENDBRANCH   3   7
BRANCH   5  13
ATOM     13  C   UNL     1      48.069   6.979  13.169  0.00  0.00    +0.000 C 
ATOM     14  C   UNL     1      49.101   8.074  12.948  0.00  0.00    +0.000 C 
ATOM     15  C   UNL     1      49.182   6.820  12.141  0.00  0.00    +0.000 C 
BRANCH  13  16
ATOM     16  C   UNL     1      48.120   6.072  14.406  0.00  0.00    +0.000 A 
ATOM     17  C   UNL     1      48.716   6.519  15.577  0.00  0.00    +0.000 A 
ATOM     18  C   UNL     1      48.483   5.788  16.719  0.00  0.00    +0.000 A 
ATOM     19  N   UNL     1      47.761   4.657  16.738  0.00  0.00    +0.000 NA
ATOM     20  C   UNL     1      47.269   4.272  15.554  0.00  0.00    +0.000 A 
ATOM     21  N   UNL     1      47.411   4.918  14.387  0.00  0.00    +0.000 NA
ENDBRANCH  13  16
ENDBRANCH   5  13
TORSDOF 3
ENDMDL
MODEL 5
REMARK VINA RESULT:    -5.504      2.689      7.005
REMARK INTER + INTRA:          -6.912
REMARK INTER:                  -6.575
REMARK INTRA:                  -0.337
REMARK UNBOUND:                -0.443
REMARK  Name = 
REMARK  3 active torsions:
REMARK  status: ('A' for Active; 'I' for Inactive)
REMARK    1  A    between atoms: C_3  and  N_4
REMARK    2  A    between atoms: C_11  and  C_12
REMARK    3  A    between atoms: C_12  and  C_13
REMARK                            x       y       z     vdW  Elec       q    Type
REMARK                         _______ _______ _______ _____ _____    ______ ____
ROOT
ATOM      1  C   UNL     1      45.513   9.094  11.918  0.00  0.00    +0.000 A 
ATOM      2  C   UNL     1      44.966   7.814  11.766  0.00  0.00    +0.000 A 
ATOM      3  C   UNL     1      45.728   6.669  12.002  0.00  0.00    +0.000 A 
ATOM      4  C   UNL     1      47.067   6.860  12.366  0.00  0.00    +0.000 A 
ATOM      5  C   UNL     1      47.672   8.131  12.467  0.00  0.00    +0.000 A 
ATOM      6  C   UNL     1      46.855   9.248  12.265  0.00  0.00    +0.000 A 
ENDROOT
BRANCH   3   7
ATOM      7  N   UNL     1      45.249   5.383  11.840  0.00  0.00    +0.000 N 
ATOM      8  C   UNL     1      45.183   4.702  10.541  0.00  0.00    +0.000 C 
ATOM      9  C   UNL     1      43.729   4.472  10.110  0.00  0.00    +0.000 C 
ATOM     10  O   UNL     1      42.964   3.818  11.138  0.00  0.00    +0.000 OA
ATOM     11  C   UNL     1      42.961   4.616  12.333  0.00  0.00    +0.000 C 
ATOM     12  C   UNL     1      44.382   4.810  12.883  0.00  0.00    +0.000 C 
ENDBRANCH   3   7
BRANCH   5  13
ATOM     13  C   UNL     1      49.190   8.252  12.573  0.00  0.00    +0.000 C 
ATOM     14  C   UNL     1      49.885   9.190  11.598  0.00  0.00    +0.000 C 
ATOM     15  C   UNL     1      50.087   7.716  11.464  0.00  0.00    +0.000 C 
BRANCH  13  16
ATOM     16  C   UNL     1      49.685   8.092  14.016  0.00  0.00    +0.000 A 
ATOM     17  C   UNL     1      50.014   9.210  14.770  0.00  0.00    +0.000 A 
ATOM     18  C   UNL     1      50.174   9.028  16.125  0.00  0.00    +0.000 A 
ATOM     19  N   UNL     1      50.079   7.832  16.727  0.00  0.00    +0.000 NA
ATOM     20  C   UNL     1      49.811   6.802  15.915  0.00  0.00    +0.000 A 
ATOM     21  N   UNL     1      49.611   6.867  14.590  0.00  0.00    +0.000 NA
ENDBRANCH  13  16
ENDBRANCH   5  13
TORSDOF 3
ENDMDL
MODEL 6
REMARK VINA RESULT:    -5.488      2.467      6.033
REMARK INTER + INTRA:          -6.894
REMARK INTER:                  -6.624
REMARK INTRA:                  -0.270
REMARK UNBOUND:                -0.443
REMARK  Name = 
REMARK  3 active torsions:
REMARK  status: ('A' for Active; 'I' for Inactive)
REMARK    1  A    between atoms: C_3  and  N_4
REMARK    2  A    between atoms: C_11  and  C_12
REMARK    3  A    between atoms: C_12  and  C_13
REMARK                            x       y       z     vdW  Elec       q    Type
REMARK                         _______ _______ _______ _____ _____    ______ ____
ROOT
ATOM      1  C   UNL     1      44.591   4.128  13.113  0.00  0.00    +0.000 A 
ATOM      2  C   UNL     1      44.467   3.546  11.846  0.00  0.00    +0.000 A 
ATOM      3  C   UNL     1      44.977   4.174  10.709  0.00  0.00    +0.000 A 
ATOM      4  C   UNL     1      45.588   5.420  10.890  0.00  0.00    +0.000 A 
ATOM      5  C   UNL     1      45.676   6.069  12.141  0.00  0.00    +0.000 A 
ATOM      6  C   UNL     1      45.191   5.379  13.257  0.00  0.00    +0.000 A 
ENDROOT
BRANCH   3   7
ATOM      7  N   UNL     1      44.857   3.661   9.431  0.00  0.00    +0.000 N 
ATOM      8  C   UNL     1      44.679   2.230   9.148  0.00  0.00    +0.000 C 
ATOM      9  C   UNL     1      45.907   1.651   8.435  0.00  0.00    +0.000 C 
ATOM     10  O   UNL     1      46.266   2.423   7.276  0.00  0.00    +0.000 OA
ATOM     11  C   UNL     1      46.562   3.777   7.657  0.00  0.00    +0.000 C 
ATOM     12  C   UNL     1      45.343   4.460   8.295  0.00  0.00    +0.000 C 
ENDBRANCH   3   7
BRANCH   5  13
ATOM     13  C   UNL     1      46.082   7.539  12.217  0.00  0.00    +0.000 C 
ATOM     14  C   UNL     1      45.071   8.512  12.803  0.00  0.00    +0.000 C 
ATOM     15  C   UNL     1      45.388   8.578  11.345  0.00  0.00    +0.000 C 
BRANCH  13  16
ATOM     16  C   UNL     1      47.588   7.714  12.454  0.00  0.00    +0.000 A 
ATOM     17  C   UNL     1      48.498   7.338  11.477  0.00  0.00    +0.000 A 
ATOM     18  C   UNL     1      49.795   7.775  11.625  0.00  0.00    +0.000 A 
ATOM     19  N   UNL     1      50.218   8.491  12.679  0.00  0.00    +0.000 NA
ATOM     20  C   UNL     1      49.283   8.763  13.598  0.00  0.00    +0.000 A 
ATOM     21  N   UNL     1      47.990   8.410  13.544  0.00  0.00    +0.000 NA
ENDBRANCH  13  16
ENDBRANCH   5  13
TORSDOF 3
ENDMDL
MODEL 7
REMARK VINA RESULT:    -5.178      2.703      6.657
REMARK INTER + INTRA:          -6.529
REMARK INTER:                  -6.147
REMARK INTRA:                  -0.382
REMARK UNBOUND:                -0.443
REMARK  Name = 
REMARK  3 active torsions:
REMARK  status: ('A' for Active; 'I' for Inactive)
REMARK    1  A    between atoms: C_3  and  N_4
REMARK    2  A    between atoms: C_11  and  C_12
REMARK    3  A    between atoms: C_12  and  C_13
REMARK                            x       y       z     vdW  Elec       q    Type
REMARK                         _______ _______ _______ _____ _____    ______ ____
ROOT
ATOM      1  C   UNL     1      45.251   8.671  12.031  0.00  0.00    +0.000 A 
ATOM      2  C   UNL     1      44.928   7.386  11.578  0.00  0.00    +0.000 A 
ATOM      3  C   UNL     1      45.650   6.268  11.998  0.00  0.00    +0.000 A 
ATOM      4  C   UNL     1      46.726   6.495  12.864  0.00  0.00    +0.000 A 
ATOM      5  C   UNL     1      47.123   7.780  13.292  0.00  0.00    +0.000 A 
ATOM      6  C   UNL     1      46.340   8.864  12.880  0.00  0.00    +0.000 A 
ENDROOT
BRANCH   3   7
ATOM      7  N   UNL     1      45.394   4.982  11.562  0.00  0.00    +0.000 N 
ATOM      8  C   UNL     1      45.045   4.653  10.174  0.00  0.00    +0.000 C 
ATOM      9  C   UNL     1      43.599   4.150  10.072  0.00  0.00    +0.000 C 
ATOM     10  O   UNL     1      43.340   3.079  10.996  0.00  0.00    +0.000 OA
ATOM     11  C   UNL     1      43.571   3.523  12.344  0.00  0.00    +0.000 C 
ATOM     12  C   UNL     1      45.030   3.955  12.551  0.00  0.00    +0.000 C 
ENDBRANCH   3   7
BRANCH   5  13
ATOM     13  C   UNL     1      48.469   7.977  13.986  0.00  0.00    +0.000 C 
ATOM     14  C   UNL     1      48.824   7.012  15.106  0.00  0.00    +0.000 C 
ATOM     15  C   UNL     1      48.530   8.438  15.436  0.00  0.00    +0.000 C 
BRANCH  13  16
ATOM     16  C   UNL     1      49.540   8.519  13.031  0.00  0.00    +0.000 A 
ATOM     17  C   UNL     1      50.196   7.663  12.157  0.00  0.00    +0.000 A 
ATOM     18  C   UNL     1      50.926   8.240  11.143  0.00  0.00    +0.000 A 
ATOM     19  N   UNL     1      51.071   9.567  10.998  0.00  0.00    +0.000 NA
ATOM     20  C   UNL     1      50.447  10.314  11.917  0.00  0.00    +0.000 A 
ATOM     21  N   UNL     1      49.691   9.862  12.929  0.00  0.00    +0.000 NA
ENDBRANCH  13  16
ENDBRANCH   5  13
TORSDOF 3
ENDMDL
MODEL 8
REMARK VINA RESULT:    -5.170      2.750      6.429
REMARK INTER + INTRA:          -6.519
REMARK INTER:                  -6.384
REMARK INTRA:                  -0.135
REMARK UNBOUND:                -0.443
REMARK  Name = 
REMARK  3 active torsions:
REMARK  status: ('A' for Active; 'I' for Inactive)
REMARK    1  A    between atoms: C_3  and  N_4
REMARK    2  A    between atoms: C_11  and  C_12
REMARK    3  A    between atoms: C_12  and  C_13
REMARK                            x       y       z     vdW  Elec       q    Type
REMARK                         _______ _______ _______ _____ _____    ______ ____
ROOT
ATOM      1  C   UNL     1      47.310   5.224  14.471  0.00  0.00    +0.000 A 
ATOM      2  C   UNL     1      46.236   4.847  13.656  0.00  0.00    +0.000 A 
ATOM      3  C   UNL     1      45.980   5.500  12.450  0.00  0.00    +0.000 A 
ATOM      4  C   UNL     1      46.825   6.564  12.110  0.00  0.00    +0.000 A 
ATOM      5  C   UNL     1      47.878   7.015  12.935  0.00  0.00    +0.000 A 
ATOM      6  C   UNL     1      48.123   6.299  14.111  0.00  0.00    +0.000 A 
ENDROOT
BRANCH   3   7
ATOM      7  N   UNL     1      44.919   5.191  11.621  0.00  0.00    +0.000 N 
ATOM      8  C   UNL     1      43.623   4.704  12.113  0.00  0.00    +0.000 C 
ATOM      9  C   UNL     1      43.381   3.250  11.686  0.00  0.00    +0.000 C 
ATOM     10  O   UNL     1      43.558   3.073  10.270  0.00  0.00    +0.000 OA
ATOM     11  C   UNL     1      44.895   3.438   9.890  0.00  0.00    +0.000 C 
ATOM     12  C   UNL     1      45.183   4.915  10.200  0.00  0.00    +0.000 C 
ENDBRANCH   3   7
BRANCH   5  13
ATOM     13  C   UNL     1      48.560   8.350  12.648  0.00  0.00    +0.000 C 
ATOM     14  C   UNL     1      48.045   9.571  13.394  0.00  0.00    +0.000 C 
ATOM     15  C   UNL     1      47.810   9.460  11.924  0.00  0.00    +0.000 C 
BRANCH  13  16
ATOM     16  C   UNL     1      50.051   8.183  12.326  0.00  0.00    +0.000 A 
ATOM     17  C   UNL     1      50.448   7.641  11.111  0.00  0.00    +0.000 A 
ATOM     18  C   UNL     1      51.773   7.779  10.766  0.00  0.00    +0.000 A 
ATOM     19  N   UNL     1      52.688   8.356  11.559  0.00  0.00    +0.000 NA
ATOM     20  C   UNL     1      52.227   8.803  12.734  0.00  0.00    +0.000 A 
ATOM     21  N   UNL     1      50.957   8.746  13.162  0.00  0.00    +0.000 NA
ENDBRANCH  13  16
ENDBRANCH   5  13
TORSDOF 3
ENDMDL
MODEL 9
REMARK VINA RESULT:    -5.043      2.614      4.203
REMARK INTER + INTRA:          -6.370
REMARK INTER:                  -6.273
REMARK INTRA:                  -0.097
REMARK UNBOUND:                -0.443
REMARK  Name = 
REMARK  3 active torsions:
REMARK  status: ('A' for Active; 'I' for Inactive)
REMARK    1  A    between atoms: C_3  and  N_4
REMARK    2  A    between atoms: C_11  and  C_12
REMARK    3  A    between atoms: C_12  and  C_13
REMARK                            x       y       z     vdW  Elec       q    Type
REMARK                         _______ _______ _______ _____ _____    ______ ____
ROOT
ATOM      1  C   UNL     1      48.225   8.050  11.781  0.00  0.00    +0.000 A 
ATOM      2  C   UNL     1      48.837   8.615  12.906  0.00  0.00    +0.000 A 
ATOM      3  C   UNL     1      48.820   7.966  14.141  0.00  0.00    +0.000 A 
ATOM      4  C   UNL     1      48.140   6.744  14.208  0.00  0.00    +0.000 A 
ATOM      5  C   UNL     1      47.456   6.173  13.113  0.00  0.00    +0.000 A 
ATOM      6  C   UNL     1      47.541   6.839  11.886  0.00  0.00    +0.000 A 
ENDROOT
BRANCH   3   7
ATOM      7  N   UNL     1      49.382   8.490  15.290  0.00  0.00    +0.000 N 
ATOM      8  C   UNL     1      50.013   7.666  16.329  0.00  0.00    +0.000 C 
ATOM      9  C   UNL     1      49.203   7.705  17.632  0.00  0.00    +0.000 C 
ATOM     10  O   UNL     1      48.935   9.052  18.055  0.00  0.00    +0.000 OA
ATOM     11  C   UNL     1      48.192   9.749  17.040  0.00  0.00    +0.000 C 
ATOM     12  C   UNL     1      48.982   9.837  15.726  0.00  0.00    +0.000 C 
ENDBRANCH   3   7
BRANCH   5  13
ATOM     13  C   UNL     1      46.498   5.005  13.331  0.00  0.00    +0.000 C 
ATOM     14  C   UNL     1      46.536   4.315  14.686  0.00  0.00    +0.000 C 
ATOM     15  C   UNL     1      47.030   3.586  13.480  0.00  0.00    +0.000 C 
BRANCH  13  16
ATOM     16  C   UNL     1      45.181   5.184  12.564  0.00  0.00    +0.000 A 
ATOM     17  C   UNL     1      45.114   4.887  11.211  0.00  0.00    +0.000 A 
ATOM     18  C   UNL     1      43.860   4.793  10.650  0.00  0.00    +0.000 A 
ATOM     19  N   UNL     1      42.726   5.024  11.330  0.00  0.00    +0.000 NA
ATOM     20  C   UNL     1      42.889   5.357  12.617  0.00  0.00    +0.000 A 
ATOM     21  N   UNL     1      44.056   5.452  13.271  0.00  0.00    +0.000 NA
ENDBRANCH  13  16
ENDBRANCH   5  13
TORSDOF 3
ENDMDL
