MODEL 1
REMARK VINA RESULT:    -8.198      0.000      0.000
REMARK INTER + INTRA:          -9.854
REMARK INTER:                 -10.115
REMARK INTRA:                   0.261
REMARK UNBOUND:                 0.261
REMARK  Name = 
REMARK  6 active torsions:
REMARK  status: ('A' for Active; 'I' for Inactive)
REMARK    1  A    between atoms: C_1  and  C_2
REMARK    2  A    between atoms: C_5  and  N_6
REMARK    3  A    between atoms: N_6  and  C_7
REMARK    4  A    between atoms: C_7  and  C_8
REMARK    5  A    between atoms: C_12  and  C_13
REMARK    6  A    between atoms: C_22  and  C_23
REMARK                            x       y       z     vdW  Elec       q    Type
REMARK                         _______ _______ _______ _____ _____    ______ ____
ROOT
ATOM      1  C   UNL     1      43.940   4.768  10.867  0.00  0.00    +0.000 C 
ATOM      2  C   UNL     1      43.269   3.692  11.719  0.00  0.00    +0.000 C 
ATOM      3  C   UNL     1      42.648   5.043  11.617  0.00  0.00    +0.000 C 
ENDROOT
BRANCH   1   4
ATOM      4  C   UNL     1      45.248   5.338  11.417  0.00  0.00    +0.000 A 
ATOM      5  C   UNL     1      45.920   6.393  10.785  0.00  0.00    +0.000 A 
ATOM      6  C   UNL     1      47.064   6.960  11.342  0.00  0.00    +0.000 A 
ATOM      7  C   UNL     1      47.547   6.499  12.567  0.00  0.00    +0.000 A 
ATOM      8  C   UNL     1      46.913   5.448  13.246  0.00  0.00    +0.000 A 
ATOM      9  C   UNL     1      45.797   4.858  12.624  0.00  0.00    +0.000 A 
BRANCH   8  10
ATOM     10  C   UNL     1      47.335   5.028  14.599  0.00  0.00    +0.000 A 
ATOM     11  C   UNL     1      48.154   5.819  15.416  0.00  0.00    +0.000 A 
ATOM     12  C   UNL     1      48.587   5.347  16.656  0.00  0.00    +0.000 A 
ATOM     13  C   UNL     1      48.177   4.091  17.059  0.00  0.00    +0.000 A 
ATOM     14  N   UNL     1      47.383   3.290  16.321  0.00  0.00    +0.000 NA
ATOM     15  C   UNL     1      46.992   3.778  15.113  0.00  0.00    +0.000 A 
ENDBRANCH   8  10
ENDBRANCH   1   4
BRANCH   1  16
ATOM     16  N   UNL     1      43.909   4.594   9.390  0.00  0.00    +0.000 N 
ATOM     17  H   UNL     1      43.044   4.177   9.059  0.00  0.00    +0.000 HD
BRANCH  16  22
ATOM     18  C   UNL     1      48.074   2.105   6.417  0.00  0.00    +0.000 C 
ATOM     19  C   UNL     1      47.024   2.728   7.278  0.00  0.00    +0.000 A 
ATOM     20  C   UNL     1      46.847   4.098   7.327  0.00  0.00    +0.000 A 
ATOM     21  N   UNL     1      45.859   4.708   8.017  0.00  0.00    +0.000 NA
ATOM     22  C   UNL     1      44.997   3.955   8.737  0.00  0.00    +0.000 A 
ATOM     23  C   UNL     1      45.124   2.558   8.786  0.00  0.00    +0.000 A 
ATOM     24  C   UNL     1      44.201   1.656   9.555  0.00  0.00    +0.000 C 
ATOM     25  C   UNL     1      46.145   1.955   8.029  0.00  0.00    +0.000 A 
ENDBRANCH  16  22
ENDBRANCH   1  16
TORSDOF 4
ENDMDL
MODEL 2
REMARK VINA RESULT:    -7.847      1.685      7.143
REMARK INTER + INTRA:          -9.420
REMARK INTER:                  -8.462
REMARK INTRA:                  -0.959
REMARK UNBOUND:                 0.261
REMARK  Name = 
REMARK  6 active torsions:
REMARK  status: ('A' for Active; 'I' for Inactive)
REMARK    1  A    between atoms: C_1  and  C_2
REMARK    2  A    between atoms: C_5  and  N_6
REMARK    3  A    between atoms: N_6  and  C_7
REMARK    4  A    between atoms: C_7  and  C_8
REMARK    5  A    between atoms: C_12  and  C_13
REMARK    6  A    between atoms: C_22  and  C_23
REMARK                            x       y       z     vdW  Elec       q    Type
REMARK                         _______ _______ _______ _____ _____    ______ ____
ROOT
ATOM      1  C   UNL     1      46.397   7.291  12.416  0.00  0.00    +0.000 C 
ATOM      2  C   UNL     1      46.431   8.720  11.877  0.00  0.00    +0.000 C 
ATOM      3  C   UNL     1      45.875   8.459  13.235  0.00  0.00    +0.000 C 
ENDROOT
BRANCH   1   4
ATOM      4  C   UNL     1      45.394   6.348  11.751  0.00  0.00    +0.000 A 
ATOM      5  C   UNL     1      44.012   6.493  11.929  0.00  0.00    +0.000 A 
ATOM      6  C   UNL     1      43.105   5.683  11.249  0.00  0.00    +0.000 A 
ATOM      7  C   UNL     1      43.566   4.721  10.350  0.00  0.00    +0.000 A 
ATOM      8  C   UNL     1      44.938   4.535  10.129  0.00  0.00    +0.000 A 
ATOM      9  C   UNL     1      45.826   5.328  10.878  0.00  0.00    +0.000 A 
BRANCH   8  10
ATOM     10  C   UNL     1      45.442   3.609   9.092  0.00  0.00    +0.000 A 
ATOM     11  C   UNL     1      45.384   2.215   9.228  0.00  0.00    +0.000 A 
ATOM     12  C   UNL     1      45.940   1.383   8.256  0.00  0.00    +0.000 A 
ATOM     13  C   UNL     1      46.532   1.968   7.153  0.00  0.00    +0.000 A 
ATOM     14  N   UNL     1      46.609   3.301   6.963  0.00  0.00    +0.000 NA
ATOM     15  C   UNL     1      46.068   4.080   7.939  0.00  0.00    +0.000 A 
ENDBRANCH   8  10
ENDBRANCH   1   4
BRANCH   1  16
ATOM     16  N   UNL     1      47.696   6.662  12.780  0.00  0.00    +0.000 N 
ATOM     17  H   UNL     1      48.064   6.063  12.047  0.00  0.00    +0.000 HD
BRANCH  16  22
ATOM     18  C   UNL     1      47.809   4.040  17.829  0.00  0.00    +0.000 C 
ATOM     19  C   UNL     1      47.875   4.717  16.498  0.00  0.00    +0.000 A 
ATOM     20  C   UNL     1      47.281   4.169  15.377  0.00  0.00    +0.000 A 
ATOM     21  N   UNL     1      47.233   4.779  14.173  0.00  0.00    +0.000 NA
ATOM     22  C   UNL     1      47.823   5.987  14.023  0.00  0.00    +0.000 A 
ATOM     23  C   UNL     1      48.491   6.602  15.092  0.00  0.00    +0.000 A 
ATOM     24  C   UNL     1      49.161   7.944  15.005  0.00  0.00    +0.000 C 
ATOM     25  C   UNL     1      48.493   5.953  16.340  0.00  0.00    +0.000 A 
ENDBRANCH  16  22
ENDBRANCH   1  16
TORSDOF 4
ENDMDL
MODEL 3
REMARK VINA RESULT:    -7.802      3.207      7.137
REMARK INTER + INTRA:          -9.366
REMARK INTER:                  -8.456
REMARK INTRA:                  -0.910
REMARK UNBOUND:                 0.261
REMARK  Name = 
REMARK  6 active torsions:
REMARK  status: ('A' for Active; 'I' for Inactive)
REMARK    1  A    between atoms: C_1  and  C_2
REMARK    2  A    between atoms: C_5  and  N_6
REMARK    3  A    between atoms: N_6  and  C_7
REMARK    4  A    between atoms: C_7  and  C_8
REMARK    5  A    between atoms: C_12  and  C_13
REMARK    6  A    between atoms: C_22  and  C_23
REMARK                            x       y       z     vdW  Elec       q    Type
REMARK                         _______ _______ _______ _____ _____    ______ ____
ROOT
ATOM      1  C   UNL     1      45.800   7.662  12.426  0.00  0.00    +0.000 C 
ATOM      2  C   UNL     1      46.939   7.334  13.390  0.00  0.00    +0.000 C 
ATOM      3  C   UNL     1      47.254   7.790  12.006  0.00  0.00    +0.000 C 
ENDROOT
BRANCH   1   4
ATOM      4  C   UNL     1      44.987   6.469  11.920  0.00  0.00    +0.000 A 
ATOM      5  C   UNL     1      43.669   6.242  12.335  0.00  0.00    +0.000 A 
ATOM      6  C   UNL     1      42.910   5.203  11.802  0.00  0.00    +0.000 A 
ATOM      7  C   UNL     1      43.450   4.379  10.814  0.00  0.00    +0.000 A 
ATOM      8  C   UNL     1      44.764   4.563  10.357  0.00  0.00    +0.000 A 
ATOM      9  C   UNL     1      45.521   5.583  10.962  0.00  0.00    +0.000 A 
BRANCH   8  10
ATOM     10  C   UNL     1      45.311   3.782   9.227  0.00  0.00    +0.000 A 
ATOM     11  C   UNL     1      45.374   2.382   9.234  0.00  0.00    +0.000 A 
ATOM     12  C   UNL     1      45.968   1.693   8.176  0.00  0.00    +0.000 A 
ATOM     13  C   UNL     1      46.477   2.424   7.120  0.00  0.00    +0.000 A 
ATOM     14  N   UNL     1      46.437   3.770   7.055  0.00  0.00    +0.000 NA
ATOM     15  C   UNL     1      45.862   4.408   8.110  0.00  0.00    +0.000 A 
ENDBRANCH   8  10
ENDBRANCH   1   4
BRANCH   1  16
ATOM     16  N   UNL     1      45.003   8.889  12.695  0.00  0.00    +0.000 N 
ATOM     17  H   UNL     1      44.159   8.703  13.228  0.00  0.00    +0.000 HD
BRANCH  16  22
ATOM     18  C   UNL     1      43.835  12.096   8.142  0.00  0.00    +0.000 C 
ATOM     19  C   UNL     1      44.121  11.330   9.393  0.00  0.00    +0.000 A 
ATOM     20  C   UNL     1      43.345  10.253   9.776  0.00  0.00    +0.000 A 
ATOM     21  N   UNL     1      43.610   9.473  10.845  0.00  0.00    +0.000 NA
ATOM     22  C   UNL     1      44.679   9.762  11.623  0.00  0.00    +0.000 A 
ATOM     23  C   UNL     1      45.500  10.864  11.341  0.00  0.00    +0.000 A 
ATOM     24  C   UNL     1      46.707  11.243  12.151  0.00  0.00    +0.000 C 
ATOM     25  C   UNL     1      45.213  11.635  10.200  0.00  0.00    +0.000 A 
ENDBRANCH  16  22
ENDBRANCH   1  16
TORSDOF 4
ENDMDL
MODEL 4
REMARK VINA RESULT:    -7.526      2.057      2.879
REMARK INTER + INTRA:          -9.024
REMARK INTER:                  -7.907
REMARK INTRA:                  -1.118
REMARK UNBOUND:                 0.261
REMARK  Name = 
REMARK  6 active torsions:
REMARK  status: ('A' for Active; 'I' for Inactive)
REMARK    1  A    between atoms: C_1  and  C_2
REMARK    2  A    between atoms: C_5  and  N_6
REMARK    3  A    between atoms: N_6  and  C_7
REMARK    4  A    between atoms: C_7  and  C_8
REMARK    5  A    between atoms: C_12  and  C_13
REMARK    6  A    between atoms: C_22  and  C_23
REMARK                            x       y       z     vdW  Elec       q    Type
REMARK                         _______ _______ _______ _____ _____    ______ ____
ROOT
ATOM      1  C   UNL     1      43.804   5.446  11.026  0.00  0.00    +0.000 C 
ATOM      2  C   UNL     1      42.562   6.001  11.723  0.00  0.00    +0.000 C 
ATOM      3  C   UNL     1      43.379   6.895  10.853  0.00  0.00    +0.000 C 
ENDROOT
BRANCH   1   4
ATOM      4  C   UNL     1      44.995   5.130  11.931  0.00  0.00    +0.000 A 
ATOM      5  C   UNL     1      45.140   3.883  12.553  0.00  0.00    +0.000 A 
ATOM      6  C   UNL     1      46.272   3.576  13.305  0.00  0.00    +0.000 A 
ATOM      7  C   UNL     1      47.302   4.509  13.428  0.00  0.00    +0.000 A 
ATOM      8  C   UNL     1      47.212   5.771  12.824  0.00  0.00    +0.000 A 
ATOM      9  C   UNL     1      46.029   6.069  12.124  0.00  0.00    +0.000 A 
BRANCH   8  10
ATOM     10  C   UNL     1      48.342   6.725  12.839  0.00  0.00    +0.000 A 
ATOM     11  C   UNL     1      49.105   6.976  13.988  0.00  0.00    +0.000 A 
ATOM     12  C   UNL     1      50.114   7.940  13.973  0.00  0.00    +0.000 A 
ATOM     13  C   UNL     1      50.349   8.625  12.797  0.00  0.00    +0.000 A 
ATOM     14  N   UNL     1      49.654   8.420  11.659  0.00  0.00    +0.000 NA
ATOM     15  C   UNL     1      48.670   7.482  11.716  0.00  0.00    +0.000 A 
ENDBRANCH   8  10
ENDBRANCH   1   4
BRANCH   1  16
ATOM     16  N   UNL     1      43.594   4.482   9.912  0.00  0.00    +0.000 N 
ATOM     17  H   UNL     1      43.026   3.685  10.181  0.00  0.00    +0.000 HD
BRANCH  16  22
ATOM     18  C   UNL     1      47.865   2.689   6.607  0.00  0.00    +0.000 C 
ATOM     19  C   UNL     1      46.791   3.126   7.551  0.00  0.00    +0.000 A 
ATOM     20  C   UNL     1      46.504   4.462   7.753  0.00  0.00    +0.000 A 
ATOM     21  N   UNL     1      45.489   4.908   8.524  0.00  0.00    +0.000 NA
ATOM     22  C   UNL     1      44.712   4.012   9.173  0.00  0.00    +0.000 A 
ATOM     23  C   UNL     1      44.954   2.634   9.066  0.00  0.00    +0.000 A 
ATOM     24  C   UNL     1      44.130   1.579   9.748  0.00  0.00    +0.000 C 
ATOM     25  C   UNL     1      45.999   2.204   8.228  0.00  0.00    +0.000 A 
ENDBRANCH  16  22
ENDBRANCH   1  16
TORSDOF 4
ENDMDL
MODEL 5
REMARK VINA RESULT:    -7.303      2.969      7.199
REMARK INTER + INTRA:          -8.750
REMARK INTER:                  -7.870
REMARK INTRA:                  -0.880
REMARK UNBOUND:                 0.261
REMARK  Name = 
REMARK  6 active torsions:
REMARK  status: ('A' for Active; 'I' for Inactive)
REMARK    1  A    between atoms: C_1  and  C_2
REMARK    2  A    between atoms: C_5  and  N_6
REMARK    3  A    between atoms: N_6  and  C_7
REMARK    4  A    between atoms: C_7  and  C_8
REMARK    5  A    between atoms: C_12  and  C_13
REMARK    6  A    between atoms: C_22  and  C_23
REMARK                            x       y       z     vdW  Elec       q    Type
REMARK                         _______ _______ _______ _____ _____    ______ ____
ROOT
ATOM      1  C   UNL     1      46.349   6.587  12.996  0.00  0.00    +0.000 C 
ATOM      2  C   UNL     1      47.093   5.742  14.029  0.00  0.00    +0.000 C 
ATOM      3  C   UNL     1      47.834   6.296  12.860  0.00  0.00    +0.000 C 
ENDROOT
BRANCH   1   4
ATOM      4  C   UNL     1      45.365   5.835  12.100  0.00  0.00    +0.000 A 
ATOM      5  C   UNL     1      43.979   6.002  12.220  0.00  0.00    +0.000 A 
ATOM      6  C   UNL     1      43.095   5.378  11.342  0.00  0.00    +0.000 A 
ATOM      7  C   UNL     1      43.586   4.590  10.300  0.00  0.00    +0.000 A 
ATOM      8  C   UNL     1      44.964   4.391  10.130  0.00  0.00    +0.000 A 
ATOM      9  C   UNL     1      45.823   4.986  11.071  0.00  0.00    +0.000 A 
BRANCH   8  10
ATOM     10  C   UNL     1      45.507   3.663   8.963  0.00  0.00    +0.000 A 
ATOM     11  C   UNL     1      45.626   2.267   8.930  0.00  0.00    +0.000 A 
ATOM     12  C   UNL     1      46.214   1.630   7.837  0.00  0.00    +0.000 A 
ATOM     13  C   UNL     1      46.660   2.409   6.786  0.00  0.00    +0.000 A 
ATOM     14  N   UNL     1      46.565   3.754   6.758  0.00  0.00    +0.000 NA
ATOM     15  C   UNL     1      45.998   4.340   7.847  0.00  0.00    +0.000 A 
ENDBRANCH   8  10
ENDBRANCH   1   4
BRANCH   1  16
ATOM     16  N   UNL     1      45.903   7.944  13.410  0.00  0.00    +0.000 N 
ATOM     17  H   UNL     1      44.894   8.053  13.388  0.00  0.00    +0.000 HD
BRANCH  16  22
ATOM     18  C   UNL     1      48.192  12.735  11.364  0.00  0.00    +0.000 C 
ATOM     19  C   UNL     1      47.601  11.439  11.814  0.00  0.00    +0.000 A 
ATOM     20  C   UNL     1      48.232  10.640  12.747  0.00  0.00    +0.000 A 
ATOM     21  N   UNL     1      47.703   9.506  13.254  0.00  0.00    +0.000 NA
ATOM     22  C   UNL     1      46.494   9.089  12.812  0.00  0.00    +0.000 A 
ATOM     23  C   UNL     1      45.795   9.810  11.832  0.00  0.00    +0.000 A 
ATOM     24  C   UNL     1      44.447   9.415  11.299  0.00  0.00    +0.000 C 
ATOM     25  C   UNL     1      46.363  11.003  11.350  0.00  0.00    +0.000 A 
ENDBRANCH  16  22
ENDBRANCH   1  16
TORSDOF 4
ENDMDL
MODEL 6
REMARK VINA RESULT:    -7.242      2.693      3.711
REMARK INTER + INTRA:          -8.675
REMARK INTER:                  -8.520
REMARK INTRA:                  -0.154
REMARK UNBOUND:                 0.261
REMARK  Name = 
REMARK  6 active torsions:
REMARK  status: ('A' for Active; 'I' for Inactive)
REMARK    1  A    between atoms: C_1  and  C_2
REMARK    2  A    between atoms: C_5  and  N_6
REMARK    3  A    between atoms: N_6  and  C_7
REMARK    4  A    between atoms: C_7  and  C_8
REMARK    5  A    between atoms: C_12  and  C_13
REMARK    6  A    between atoms: C_22  and  C_23
REMARK                            x       y       z     vdW  Elec       q    Type
REMARK                         _______ _______ _______ _____ _____    ______ ____
ROOT
ATOM      1  C   UNL     1      45.095   5.622  11.695  0.00  0.00    +0.000 C 
ATOM      2  C   UNL     1      45.850   4.490  12.391  0.00  0.00    +0.000 C 
ATOM      3  C   UNL     1      44.544   4.951  12.942  0.00  0.00    +0.000 C 
ENDROOT
BRANCH   1   4
ATOM      4  C   UNL     1      45.714   7.014  11.818  0.00  0.00    +0.000 A 
ATOM      5  C   UNL     1      44.944   8.142  12.129  0.00  0.00    +0.000 A 
ATOM      6  C   UNL     1      45.532   9.390  12.324  0.00  0.00    +0.000 A 
ATOM      7  C   UNL     1      46.917   9.530  12.237  0.00  0.00    +0.000 A 
ATOM      8  C   UNL     1      47.738   8.434  11.933  0.00  0.00    +0.000 A 
ATOM      9  C   UNL     1      47.105   7.203  11.682  0.00  0.00    +0.000 A 
BRANCH   8  10
ATOM     10  C   UNL     1      49.213   8.535  11.958  0.00  0.00    +0.000 A 
ATOM     11  C   UNL     1      50.039   7.770  11.123  0.00  0.00    +0.000 A 
ATOM     12  C   UNL     1      51.427   7.845  11.236  0.00  0.00    +0.000 A 
ATOM     13  C   UNL     1      51.963   8.702  12.178  0.00  0.00    +0.000 A 
ATOM     14  N   UNL     1      51.220   9.469  13.001  0.00  0.00    +0.000 NA
ATOM     15  C   UNL     1      49.870   9.359  12.871  0.00  0.00    +0.000 A 
ENDBRANCH   8  10
ENDBRANCH   1   4
BRANCH   1  16
ATOM     16  N   UNL     1      44.481   5.327  10.372  0.00  0.00    +0.000 N 
ATOM     17  H   UNL     1      43.542   4.948  10.447  0.00  0.00    +0.000 HD
BRANCH  16  22
ATOM     18  C   UNL     1      47.132   2.412   6.267  0.00  0.00    +0.000 C 
ATOM     19  C   UNL     1      46.488   3.129   7.409  0.00  0.00    +0.000 A 
ATOM     20  C   UNL     1      46.661   4.486   7.603  0.00  0.00    +0.000 A 
ATOM     21  N   UNL     1      46.034   5.198   8.563  0.00  0.00    +0.000 NA
ATOM     22  C   UNL     1      45.204   4.561   9.420  0.00  0.00    +0.000 A 
ATOM     23  C   UNL     1      44.999   3.176   9.331  0.00  0.00    +0.000 A 
ATOM     24  C   UNL     1      44.087   2.400  10.239  0.00  0.00    +0.000 C 
ATOM     25  C   UNL     1      45.644   2.471   8.298  0.00  0.00    +0.000 A 
ENDBRANCH  16  22
ENDBRANCH   1  16
TORSDOF 4
ENDMDL
MODEL 7
REMARK VINA RESULT:    -7.102      2.513      7.648
REMARK INTER + INTRA:          -8.502
REMARK INTER:                  -7.553
REMARK INTRA:                  -0.949
REMARK UNBOUND:                 0.261
REMARK  Name = 
REMARK  6 active torsions:
REMARK  status: ('A' for Active; 'I' for Inactive)
REMARK    1  A    between atoms: C_1  and  C_2
REMARK    2  A    between atoms: C_5  and  N_6
REMARK    3  A    between atoms: N_6  and  C_7
REMARK    4  A    between atoms: C_7  and  C_8
REMARK    5  A    between atoms: C_12  and  C_13
REMARK    6  A    between atoms: C_22  and  C_23
REMARK                            x       y       z     vdW  Elec       q    Type
REMARK                         _______ _______ _______ _____ _____    ______ ____
ROOT
ATOM      1  C   UNL     1      48.810   8.401  12.620  0.00  0.00    +0.000 C 
ATOM      2  C   UNL     1      49.496   9.410  11.700  0.00  0.00    +0.000 C 
ATOM      3  C   UNL     1      49.159   9.800  13.099  0.00  0.00    +0.000 C 
ENDROOT
BRANCH   1   4
ATOM      4  C   UNL     1      47.353   8.076  12.289  0.00  0.00    +0.000 A 
ATOM      5  C   UNL     1      46.333   9.025  12.431  0.00  0.00    +0.000 A 
ATOM      6  C   UNL     1      45.024   8.745  12.044  0.00  0.00    +0.000 A 
ATOM      7  C   UNL     1      44.713   7.509  11.477  0.00  0.00    +0.000 A 
ATOM      8  C   UNL     1      45.695   6.522  11.307  0.00  0.00    +0.000 A 
ATOM      9  C   UNL     1      46.992   6.817  11.765  0.00  0.00    +0.000 A 
BRANCH   8  10
ATOM     10  C   UNL     1      45.413   5.256  10.597  0.00  0.00    +0.000 A 
ATOM     11  C   UNL     1      45.612   5.100   9.219  0.00  0.00    +0.000 A 
ATOM     12  C   UNL     1      45.260   3.910   8.581  0.00  0.00    +0.000 A 
ATOM     13  C   UNL     1      44.728   2.889   9.345  0.00  0.00    +0.000 A 
ATOM     14  N   UNL     1      44.523   2.978  10.675  0.00  0.00    +0.000 NA
ATOM     15  C   UNL     1      44.865   4.158  11.259  0.00  0.00    +0.000 A 
ENDBRANCH   8  10
ENDBRANCH   1   4
BRANCH   1  16
ATOM     16  N   UNL     1      49.615   7.242  13.091  0.00  0.00    +0.000 N 
ATOM     17  H   UNL     1      49.434   6.393  12.563  0.00  0.00    +0.000 HD
BRANCH  16  22
ATOM     18  C   UNL     1      49.403   6.231  18.686  0.00  0.00    +0.000 C 
ATOM     19  C   UNL     1      49.534   6.438  17.212  0.00  0.00    +0.000 A 
ATOM     20  C   UNL     1      48.562   6.007  16.331  0.00  0.00    +0.000 A 
ATOM     21  N   UNL     1      48.587   6.246  15.002  0.00  0.00    +0.000 NA
ATOM     22  C   UNL     1      49.635   6.918  14.473  0.00  0.00    +0.000 A 
ATOM     23  C   UNL     1      50.694   7.356  15.283  0.00  0.00    +0.000 A 
ATOM     24  C   UNL     1      51.886   8.115  14.771  0.00  0.00    +0.000 C 
ATOM     25  C   UNL     1      50.619   7.118  16.667  0.00  0.00    +0.000 A 
ENDBRANCH  16  22
ENDBRANCH   1  16
TORSDOF 4
ENDMDL
MODEL 8
REMARK VINA RESULT:    -6.793      3.201      7.708
REMARK INTER + INTRA:          -8.120
REMARK INTER:                  -6.910
REMARK INTRA:                  -1.210
REMARK UNBOUND:                 0.261
REMARK  Name = 
REMARK  6 active torsions:
REMARK  status: ('A' for Active; 'I' for Inactive)
REMARK    1  A    between atoms: C_1  and  C_2
REMARK    2  A    between atoms: C_5  and  N_6
REMARK    3  A    between atoms: N_6  and  C_7
REMARK    4  A    between atoms: C_7  and  C_8
REMARK    5  A    between atoms: C_12  and  C_13
REMARK    6  A    between atoms: C_22  and  C_23
REMARK                            x       y       z     vdW  Elec       q    Type
REMARK                         _______ _______ _______ _____ _____    ______ ____
ROOT
ATOM      1  C   UNL     1      49.496   7.916  12.539  0.00  0.00    +0.000 C 
ATOM      2  C   UNL     1      50.237   7.585  11.244  0.00  0.00    +0.000 C 
ATOM      3  C   UNL     1      50.329   8.959  11.814  0.00  0.00    +0.000 C 
ENDROOT
BRANCH   1   4
ATOM      4  C   UNL     1      47.972   7.988  12.438  0.00  0.00    +0.000 A 
ATOM      5  C   UNL     1      47.298   9.204  12.267  0.00  0.00    +0.000 A 
ATOM      6  C   UNL     1      45.916   9.249  12.089  0.00  0.00    +0.000 A 
ATOM      7  C   UNL     1      45.179   8.065  12.051  0.00  0.00    +0.000 A 
ATOM      8  C   UNL     1      45.802   6.818  12.212  0.00  0.00    +0.000 A 
ATOM      9  C   UNL     1      47.188   6.816  12.451  0.00  0.00    +0.000 A 
BRANCH   8  10
ATOM     10  C   UNL     1      45.059   5.550  12.052  0.00  0.00    +0.000 A 
ATOM     11  C   UNL     1      43.891   5.448  11.283  0.00  0.00    +0.000 A 
ATOM     12  C   UNL     1      43.184   4.248  11.223  0.00  0.00    +0.000 A 
ATOM     13  C   UNL     1      43.671   3.163  11.926  0.00  0.00    +0.000 A 
ATOM     14  N   UNL     1      44.793   3.199  12.674  0.00  0.00    +0.000 NA
ATOM     15  C   UNL     1      45.448   4.390  12.720  0.00  0.00    +0.000 A 
ENDBRANCH   8  10
ENDBRANCH   1   4
BRANCH   1  16
ATOM     16  N   UNL     1      50.009   7.313  13.798  0.00  0.00    +0.000 N 
ATOM     17  H   UNL     1      49.837   6.314  13.857  0.00  0.00    +0.000 HD
BRANCH  16  22
ATOM     18  C   UNL     1      49.053   9.623  18.910  0.00  0.00    +0.000 C 
ATOM     19  C   UNL     1      49.209   9.021  17.551  0.00  0.00    +0.000 A 
ATOM     20  C   UNL     1      49.888   9.677  16.542  0.00  0.00    +0.000 A 
ATOM     21  N   UNL     1      50.135   9.143  15.327  0.00  0.00    +0.000 NA
ATOM     22  C   UNL     1      49.672   7.903  15.045  0.00  0.00    +0.000 A 
ATOM     23  C   UNL     1      48.933   7.177  15.991  0.00  0.00    +0.000 A 
ATOM     24  C   UNL     1      48.395   5.794  15.755  0.00  0.00    +0.000 C 
ATOM     25  C   UNL     1      48.722   7.751  17.258  0.00  0.00    +0.000 A 
ENDBRANCH  16  22
ENDBRANCH   1  16
TORSDOF 4
ENDMDL
MODEL 9
REMARK VINA RESULT:    -6.761      2.557      4.993
REMARK INTER + INTRA:          -8.081
REMARK INTER:                  -7.179
REMARK INTRA:                  -0.903
REMARK UNBOUND:                 0.261
REMARK  Name = 
REMARK  6 active torsions:
REMARK  status: ('A' for Active; 'I' for Inactive)
REMARK    1  A    between atoms: C_1  and  C_2
REMARK    2  A    between atoms: C_5  and  N_6
REMARK    3  A    between atoms: N_6  and  C_7
REMARK    4  A    between atoms: C_7  and  C_8
REMARK    5  A    between atoms: C_12  and  C_13
REMARK    6  A    between atoms: C_22  and  C_23
REMARK                            x       y       z     vdW  Elec       q    Type
REMARK                         _______ _______ _______ _____ _____    ______ ____
ROOT
ATOM      1  C   UNL     1      47.755   7.728  13.272  0.00  0.00    +0.000 C 
ATOM      2  C   UNL     1      48.200   8.735  12.212  0.00  0.00    +0.000 C 
ATOM      3  C   UNL     1      48.631   7.312  12.102  0.00  0.00    +0.000 C 
ENDROOT
BRANCH   1   4
ATOM      4  C   UNL     1      48.393   7.883  14.653  0.00  0.00    +0.000 A 
ATOM      5  C   UNL     1      48.104   8.974  15.483  0.00  0.00    +0.000 A 
ATOM      6  C   UNL     1      48.624   9.060  16.773  0.00  0.00    +0.000 A 
ATOM      7  C   UNL     1      49.428   8.035  17.272  0.00  0.00    +0.000 A 
ATOM      8  C   UNL     1      49.747   6.918  16.487  0.00  0.00    +0.000 A 
ATOM      9  C   UNL     1      49.255   6.893  15.169  0.00  0.00    +0.000 A 
BRANCH   8  10
ATOM     10  C   UNL     1      50.493   5.766  17.037  0.00  0.00    +0.000 A 
ATOM     11  C   UNL     1      51.890   5.752  17.147  0.00  0.00    +0.000 A 
ATOM     12  C   UNL     1      52.555   4.613  17.604  0.00  0.00    +0.000 A 
ATOM     13  C   UNL     1      51.800   3.511  17.957  0.00  0.00    +0.000 A 
ATOM     14  N   UNL     1      50.454   3.470  17.881  0.00  0.00    +0.000 NA
ATOM     15  C   UNL     1      49.843   4.593  17.419  0.00  0.00    +0.000 A 
ENDBRANCH   8  10
ENDBRANCH   1   4
BRANCH   1  16
ATOM     16  N   UNL     1      46.320   7.337  13.290  0.00  0.00    +0.000 N 
ATOM     17  H   UNL     1      45.939   7.273  14.228  0.00  0.00    +0.000 HD
BRANCH  16  22
ATOM     18  C   UNL     1      44.226   2.901  10.405  0.00  0.00    +0.000 C 
ATOM     19  C   UNL     1      44.863   4.027  11.152  0.00  0.00    +0.000 A 
ATOM     20  C   UNL     1      44.859   5.318  10.659  0.00  0.00    +0.000 A 
ATOM     21  N   UNL     1      45.340   6.385  11.331  0.00  0.00    +0.000 NA
ATOM     22  C   UNL     1      45.894   6.201  12.551  0.00  0.00    +0.000 A 
ATOM     23  C   UNL     1      45.986   4.920  13.116  0.00  0.00    +0.000 A 
ATOM     24  C   UNL     1      46.578   4.637  14.467  0.00  0.00    +0.000 C 
ATOM     25  C   UNL     1      45.445   3.835  12.402  0.00  0.00    +0.000 A 
ENDBRANCH  16  22
ENDBRANCH   1  16
TORSDOF 4
ENDMDL
