MODEL 1
REMARK VINA RESULT:    -7.737      0.000      0.000
REMARK INTER + INTRA:         -11.637
REMARK INTER:                 -10.903
REMARK INTRA:                  -0.734
REMARK UNBOUND:                -0.734
REMARK  Name = 
REMARK  7 active torsions:
REMARK  status: ('A' for Active; 'I' for Inactive)
REMARK    1  A    between atoms: C_2  and  C_4
REMARK    2  A    between atoms: C_7  and  N_8
REMARK    3  A    between atoms: N_8  and  C_9
REMARK    4  A    between atoms: C_9  and  C_10
REMARK    5  A    between atoms: C_10  and  C_11
REMARK    6  A    between atoms: C_15  and  O_16
REMARK    7  A    between atoms: O_16  and  C_17
REMARK                            x       y       z     vdW  Elec       q    Type
REMARK                         _______ _______ _______ _____ _____    ______ ____
ROOT
ATOM      1  C   UNL     1      43.947   3.171  11.865  0.00  0.00    +0.000 C 
ENDROOT
BRANCH   1   2
ATOM      2  N   UNL     1      43.635   3.519  10.473  0.00  0.00    +0.000 N 
ATOM      3  H   UNL     1      43.224   4.446  10.382  0.00  0.00    +0.000 HD
BRANCH   2   7
ATOM      4  C   UNL     1      46.375   2.925   7.383  0.00  0.00    +0.000 A 
ATOM      5  C   UNL     1      45.989   1.821   8.126  0.00  0.00    +0.000 A 
ATOM      6  C   UNL     1      45.099   2.009   9.183  0.00  0.00    +0.000 A 
ATOM      7  C   UNL     1      44.621   3.284   9.500  0.00  0.00    +0.000 A 
ATOM      8  C   UNL     1      45.068   4.320   8.667  0.00  0.00    +0.000 A 
ATOM      9  N   UNL     1      45.943   4.189   7.634  0.00  0.00    +0.000 NA
BRANCH   4  11
ATOM     10  N   UNL     1      48.612   2.559   6.512  0.00  0.00    +0.000 N 
ATOM     11  C   UNL     1      47.289   2.734   6.212  0.00  0.00    +0.000 C 
ATOM     12  O   UNL     1      46.888   2.733   5.054  0.00  0.00    +0.000 OA
ATOM     13  H   UNL     1      49.276   2.427   5.764  0.00  0.00    +0.000 HD
ATOM     14  H   UNL     1      48.909   2.545   7.480  0.00  0.00    +0.000 HD
ENDBRANCH   4  11
ENDBRANCH   2   7
ENDBRANCH   1   2
BRANCH   1  15
ATOM     15  C   UNL     1      43.902   4.408  12.771  0.00  0.00    +0.000 C 
BRANCH  15  16
ATOM     16  C   UNL     1      45.279   5.012  12.923  0.00  0.00    +0.000 A 
ATOM     17  C   UNL     1      45.743   5.975  12.019  0.00  0.00    +0.000 A 
ATOM     18  C   UNL     1      46.989   6.580  12.210  0.00  0.00    +0.000 A 
ATOM     19  C   UNL     1      47.785   6.231  13.305  0.00  0.00    +0.000 A 
ATOM     20  C   UNL     1      47.336   5.265  14.204  0.00  0.00    +0.000 A 
ATOM     21  C   UNL     1      46.087   4.667  14.015  0.00  0.00    +0.000 A 
BRANCH  20  22
ATOM     22  O   UNL     1      48.012   4.863  15.327  0.00  0.00    +0.000 OA
BRANCH  22  23
ATOM     23  C   UNL     1      47.310   4.108  16.339  0.00  0.00    +0.000 C 
ATOM     24  C   UNL     1      47.281   4.674  17.774  0.00  0.00    +0.000 C 
ATOM     25  N   UNL     1      47.805   3.407  18.303  0.00  0.00    +0.000 NA
ATOM     26  C   UNL     1      48.111   2.938  16.947  0.00  0.00    +0.000 C 
ATOM     27  H   UNL     1      47.117   2.840  18.796  0.00  0.00    +0.000 HD
ENDBRANCH  22  23
ENDBRANCH  20  22
ENDBRANCH  15  16
ENDBRANCH   1  15
TORSDOF 7
ENDMDL
MODEL 2
REMARK VINA RESULT:    -7.209      1.896      8.097
REMARK INTER + INTRA:         -10.893
REMARK INTER:                 -10.217
REMARK INTRA:                  -0.676
REMARK UNBOUND:                -0.734
REMARK  Name = 
REMARK  7 active torsions:
REMARK  status: ('A' for Active; 'I' for Inactive)
REMARK    1  A    between atoms: C_2  and  C_4
REMARK    2  A    between atoms: C_7  and  N_8
REMARK    3  A    between atoms: N_8  and  C_9
REMARK    4  A    between atoms: C_9  and  C_10
REMARK    5  A    between atoms: C_10  and  C_11
REMARK    6  A    between atoms: C_15  and  O_16
REMARK    7  A    between atoms: O_16  and  C_17
REMARK                            x       y       z     vdW  Elec       q    Type
REMARK                         _______ _______ _______ _____ _____    ______ ____
ROOT
ATOM      1  C   UNL     1      45.564   6.374  12.227  0.00  0.00    +0.000 C 
ENDROOT
BRANCH   1   2
ATOM      2  N   UNL     1      46.989   6.300  12.575  0.00  0.00    +0.000 N 
ATOM      3  H   UNL     1      47.434   7.215  12.607  0.00  0.00    +0.000 HD
BRANCH   2   7
ATOM      4  C   UNL     1      47.805   3.838  15.842  0.00  0.00    +0.000 A 
ATOM      5  C   UNL     1      48.104   5.186  15.958  0.00  0.00    +0.000 A 
ATOM      6  C   UNL     1      47.867   6.016  14.863  0.00  0.00    +0.000 A 
ATOM      7  C   UNL     1      47.358   5.498  13.667  0.00  0.00    +0.000 A 
ATOM      8  C   UNL     1      47.079   4.124  13.676  0.00  0.00    +0.000 A 
ATOM      9  N   UNL     1      47.304   3.273  14.712  0.00  0.00    +0.000 NA
BRANCH   4  11
ATOM     10  N   UNL     1      46.882   2.674  17.762  0.00  0.00    +0.000 N 
ATOM     11  C   UNL     1      48.003   2.942  17.026  0.00  0.00    +0.000 C 
ATOM     12  O   UNL     1      49.095   2.473  17.325  0.00  0.00    +0.000 OA
ATOM     13  H   UNL     1      46.953   2.077  18.573  0.00  0.00    +0.000 HD
ATOM     14  H   UNL     1      45.990   3.060  17.477  0.00  0.00    +0.000 HD
ENDBRANCH   4  11
ENDBRANCH   2   7
ENDBRANCH   1   2
BRANCH   1  15
ATOM     15  C   UNL     1      45.362   6.374  10.707  0.00  0.00    +0.000 C 
BRANCH  15  16
ATOM     16  C   UNL     1      45.140   4.969  10.196  0.00  0.00    +0.000 A 
ATOM     17  C   UNL     1      44.499   4.010  10.989  0.00  0.00    +0.000 A 
ATOM     18  C   UNL     1      44.235   2.735  10.479  0.00  0.00    +0.000 A 
ATOM     19  C   UNL     1      44.607   2.403   9.173  0.00  0.00    +0.000 A 
ATOM     20  C   UNL     1      45.256   3.349   8.380  0.00  0.00    +0.000 A 
ATOM     21  C   UNL     1      45.512   4.625   8.888  0.00  0.00    +0.000 A 
BRANCH  20  22
ATOM     22  O   UNL     1      45.641   3.150   7.079  0.00  0.00    +0.000 OA
BRANCH  22  23
ATOM     23  C   UNL     1      47.046   3.004   6.776  0.00  0.00    +0.000 C 
ATOM     24  C   UNL     1      47.445   2.723   5.312  0.00  0.00    +0.000 C 
ATOM     25  N   UNL     1      48.211   1.540   5.729  0.00  0.00    +0.000 NA
ATOM     26  C   UNL     1      47.631   1.608   7.075  0.00  0.00    +0.000 C 
ATOM     27  H   UNL     1      49.222   1.664   5.704  0.00  0.00    +0.000 HD
ENDBRANCH  22  23
ENDBRANCH  20  22
ENDBRANCH  15  16
ENDBRANCH   1  15
TORSDOF 7
ENDMDL
MODEL 3
REMARK VINA RESULT:    -6.874      1.377      1.616
REMARK INTER + INTRA:         -10.421
REMARK INTER:                  -9.719
REMARK INTRA:                  -0.702
REMARK UNBOUND:                -0.734
REMARK  Name = 
REMARK  7 active torsions:
REMARK  status: ('A' for Active; 'I' for Inactive)
REMARK    1  A    between atoms: C_2  and  C_4
REMARK    2  A    between atoms: C_7  and  N_8
REMARK    3  A    between atoms: N_8  and  C_9
REMARK    4  A    between atoms: C_9  and  C_10
REMARK    5  A    between atoms: C_10  and  C_11
REMARK    6  A    between atoms: C_15  and  O_16
REMARK    7  A    between atoms: O_16  and  C_17
REMARK                            x       y       z     vdW  Elec       q    Type
REMARK                         _______ _______ _______ _____ _____    ______ ____
ROOT
ATOM      1  C   UNL     1      44.141   4.530  11.182  0.00  0.00    +0.000 C 
ENDROOT
BRANCH   1   2
ATOM      2  N   UNL     1      43.831   3.369  10.339  0.00  0.00    +0.000 N 
ATOM      3  H   UNL     1      42.862   3.358  10.025  0.00  0.00    +0.000 HD
BRANCH   2   7
ATOM      4  C   UNL     1      46.664   2.337   7.456  0.00  0.00    +0.000 A 
ATOM      5  C   UNL     1      46.265   3.662   7.524  0.00  0.00    +0.000 A 
ATOM      6  C   UNL     1      45.295   4.016   8.461  0.00  0.00    +0.000 A 
ATOM      7  C   UNL     1      44.722   3.054   9.300  0.00  0.00    +0.000 A 
ATOM      8  C   UNL     1      45.219   1.751   9.150  0.00  0.00    +0.000 A 
ATOM      9  N   UNL     1      46.153   1.355   8.245  0.00  0.00    +0.000 NA
BRANCH   4  11
ATOM     10  N   UNL     1      48.793   2.820   6.393  0.00  0.00    +0.000 N 
ATOM     11  C   UNL     1      47.743   1.948   6.492  0.00  0.00    +0.000 C 
ATOM     12  O   UNL     1      47.699   0.918   5.830  0.00  0.00    +0.000 OA
ATOM     13  H   UNL     1      49.549   2.612   5.759  0.00  0.00    +0.000 HD
ATOM     14  H   UNL     1      48.810   3.653   6.969  0.00  0.00    +0.000 HD
ENDBRANCH   4  11
ENDBRANCH   2   7
ENDBRANCH   1   2
BRANCH   1  15
ATOM     15  C   UNL     1      45.072   4.146  12.338  0.00  0.00    +0.000 C 
BRANCH  15  16
ATOM     16  C   UNL     1      46.017   5.279  12.666  0.00  0.00    +0.000 A 
ATOM     17  C   UNL     1      45.862   6.537  12.072  0.00  0.00    +0.000 A 
ATOM     18  C   UNL     1      46.696   7.597  12.437  0.00  0.00    +0.000 A 
ATOM     19  C   UNL     1      47.695   7.415  13.397  0.00  0.00    +0.000 A 
ATOM     20  C   UNL     1      47.865   6.162  13.986  0.00  0.00    +0.000 A 
ATOM     21  C   UNL     1      47.025   5.105  13.626  0.00  0.00    +0.000 A 
BRANCH  20  22
ATOM     22  O   UNL     1      48.787   5.870  14.957  0.00  0.00    +0.000 OA
BRANCH  22  23
ATOM     23  C   UNL     1      48.354   5.775  16.333  0.00  0.00    +0.000 C 
ATOM     24  C   UNL     1      49.260   6.390  17.420  0.00  0.00    +0.000 C 
ATOM     25  N   UNL     1      49.273   5.116  18.154  0.00  0.00    +0.000 NA
ATOM     26  C   UNL     1      48.657   4.425  17.015  0.00  0.00    +0.000 C 
ATOM     27  H   UNL     1      48.706   5.113  19.001  0.00  0.00    +0.000 HD
ENDBRANCH  22  23
ENDBRANCH  20  22
ENDBRANCH  15  16
ENDBRANCH   1  15
TORSDOF 7
ENDMDL
MODEL 4
REMARK VINA RESULT:    -6.774      2.633      4.328
REMARK INTER + INTRA:         -10.281
REMARK INTER:                  -9.400
REMARK INTRA:                  -0.880
REMARK UNBOUND:                -0.734
REMARK  Name = 
REMARK  7 active torsions:
REMARK  status: ('A' for Active; 'I' for Inactive)
REMARK    1  A    between atoms: C_2  and  C_4
REMARK    2  A    between atoms: C_7  and  N_8
REMARK    3  A    between atoms: N_8  and  C_9
REMARK    4  A    between atoms: C_9  and  C_10
REMARK    5  A    between atoms: C_10  and  C_11
REMARK    6  A    between atoms: C_15  and  O_16
REMARK    7  A    between atoms: O_16  and  C_17
REMARK                            x       y       z     vdW  Elec       q    Type
REMARK                         _______ _______ _______ _____ _____    ______ ____
ROOT
ATOM      1  C   UNL     1      42.998   4.322  11.615  0.00  0.00    +0.000 C 
ENDROOT
BRANCH   1   2
ATOM      2  N   UNL     1      43.442   3.017  11.107  0.00  0.00    +0.000 N 
ATOM      3  H   UNL     1      42.686   2.336  11.060  0.00  0.00    +0.000 HD
BRANCH   2   7
ATOM      4  C   UNL     1      46.013   2.825   7.828  0.00  0.00    +0.000 A 
ATOM      5  C   UNL     1      45.594   4.078   8.248  0.00  0.00    +0.000 A 
ATOM      6  C   UNL     1      44.709   4.156   9.323  0.00  0.00    +0.000 A 
ATOM      7  C   UNL     1      44.238   2.998   9.950  0.00  0.00    +0.000 A 
ATOM      8  C   UNL     1      44.746   1.791   9.449  0.00  0.00    +0.000 A 
ATOM      9  N   UNL     1      45.599   1.663   8.398  0.00  0.00    +0.000 NA
BRANCH   4  11
ATOM     10  N   UNL     1      48.118   1.972   6.969  0.00  0.00    +0.000 N 
ATOM     11  C   UNL     1      47.005   2.725   6.710  0.00  0.00    +0.000 C 
ATOM     12  O   UNL     1      46.842   3.278   5.629  0.00  0.00    +0.000 OA
ATOM     13  H   UNL     1      48.822   1.868   6.255  0.00  0.00    +0.000 HD
ATOM     14  H   UNL     1      48.214   1.510   7.866  0.00  0.00    +0.000 HD
ENDBRANCH   4  11
ENDBRANCH   2   7
ENDBRANCH   1   2
BRANCH   1  15
ATOM     15  C   UNL     1      43.445   4.535  13.067  0.00  0.00    +0.000 C 
BRANCH  15  16
ATOM     16  C   UNL     1      44.768   5.264  13.120  0.00  0.00    +0.000 A 
ATOM     17  C   UNL     1      45.881   4.686  13.742  0.00  0.00    +0.000 A 
ATOM     18  C   UNL     1      47.118   5.337  13.722  0.00  0.00    +0.000 A 
ATOM     19  C   UNL     1      47.259   6.571  13.081  0.00  0.00    +0.000 A 
ATOM     20  C   UNL     1      46.153   7.159  12.468  0.00  0.00    +0.000 A 
ATOM     21  C   UNL     1      44.919   6.504  12.482  0.00  0.00    +0.000 A 
BRANCH  20  22
ATOM     22  O   UNL     1      46.175   8.348  11.785  0.00  0.00    +0.000 OA
BRANCH  22  23
ATOM     23  C   UNL     1      45.158   9.337  12.063  0.00  0.00    +0.000 C 
ATOM     24  C   UNL     1      44.112   9.626  10.966  0.00  0.00    +0.000 C 
ATOM     25  N   UNL     1      44.419  11.062  11.026  0.00  0.00    +0.000 NA
ATOM     26  C   UNL     1      45.603  10.800  11.853  0.00  0.00    +0.000 C 
ATOM     27  H   UNL     1      43.706  11.626  11.486  0.00  0.00    +0.000 HD
ENDBRANCH  22  23
ENDBRANCH  20  22
ENDBRANCH  15  16
ENDBRANCH   1  15
TORSDOF 7
ENDMDL
MODEL 5
REMARK VINA RESULT:    -6.702      3.082      3.601
REMARK INTER + INTRA:         -10.178
REMARK INTER:                  -9.487
REMARK INTRA:                  -0.691
REMARK UNBOUND:                -0.734
REMARK  Name = 
REMARK  7 active torsions:
REMARK  status: ('A' for Active; 'I' for Inactive)
REMARK    1  A    between atoms: C_2  and  C_4
REMARK    2  A    between atoms: C_7  and  N_8
REMARK    3  A    between atoms: N_8  and  C_9
REMARK    4  A    between atoms: C_9  and  C_10
REMARK    5  A    between atoms: C_10  and  C_11
REMARK    6  A    between atoms: C_15  and  O_16
REMARK    7  A    between atoms: O_16  and  C_17
REMARK                            x       y       z     vdW  Elec       q    Type
REMARK                         _______ _______ _______ _____ _____    ______ ____
ROOT
ATOM      1  C   UNL     1      43.859   4.801  11.383  0.00  0.00    +0.000 C 
ENDROOT
BRANCH   1   2
ATOM      2  N   UNL     1      43.821   4.907   9.919  0.00  0.00    +0.000 N 
ATOM      3  H   UNL     1      43.920   5.866   9.591  0.00  0.00    +0.000 HD
BRANCH   2   7
ATOM      4  C   UNL     1      46.267   2.153   7.961  0.00  0.00    +0.000 A 
ATOM      5  C   UNL     1      46.447   3.496   7.673  0.00  0.00    +0.000 A 
ATOM      6  C   UNL     1      45.616   4.426   8.295  0.00  0.00    +0.000 A 
ATOM      7  C   UNL     1      44.609   4.014   9.174  0.00  0.00    +0.000 A 
ATOM      8  C   UNL     1      44.535   2.632   9.401  0.00  0.00    +0.000 A 
ATOM      9  N   UNL     1      45.313   1.686   8.810  0.00  0.00    +0.000 NA
BRANCH   4  11
ATOM     10  N   UNL     1      46.871  -0.167   7.573  0.00  0.00    +0.000 N 
ATOM     11  C   UNL     1      47.186   1.144   7.343  0.00  0.00    +0.000 C 
ATOM     12  O   UNL     1      48.162   1.461   6.674  0.00  0.00    +0.000 OA
ATOM     13  H   UNL     1      47.454  -0.892   7.184  0.00  0.00    +0.000 HD
ATOM     14  H   UNL     1      46.046  -0.397   8.114  0.00  0.00    +0.000 HD
ENDBRANCH   4  11
ENDBRANCH   2   7
ENDBRANCH   1   2
BRANCH   1  15
ATOM     15  C   UNL     1      45.302   4.814  11.904  0.00  0.00    +0.000 C 
BRANCH  15  16
ATOM     16  C   UNL     1      45.808   6.231  12.045  0.00  0.00    +0.000 A 
ATOM     17  C   UNL     1      44.953   7.262  12.455  0.00  0.00    +0.000 A 
ATOM     18  C   UNL     1      45.448   8.554  12.652  0.00  0.00    +0.000 A 
ATOM     19  C   UNL     1      46.802   8.833  12.442  0.00  0.00    +0.000 A 
ATOM     20  C   UNL     1      47.659   7.816  12.024  0.00  0.00    +0.000 A 
ATOM     21  C   UNL     1      47.164   6.523  11.835  0.00  0.00    +0.000 A 
BRANCH  20  22
ATOM     22  O   UNL     1      49.006   7.961  11.815  0.00  0.00    +0.000 OA
BRANCH  22  23
ATOM     23  C   UNL     1      49.821   8.542  12.858  0.00  0.00    +0.000 C 
ATOM     24  C   UNL     1      51.353   8.519  12.676  0.00  0.00    +0.000 C 
ATOM     25  N   UNL     1      51.517   7.872  13.985  0.00  0.00    +0.000 NA
ATOM     26  C   UNL     1      50.074   7.621  14.070  0.00  0.00    +0.000 C 
ATOM     27  H   UNL     1      51.877   8.485  14.715  0.00  0.00    +0.000 HD
ENDBRANCH  22  23
ENDBRANCH  20  22
ENDBRANCH  15  16
ENDBRANCH   1  15
TORSDOF 7
ENDMDL
MODEL 6
REMARK VINA RESULT:    -6.333      2.247      7.768
REMARK INTER + INTRA:          -9.659
REMARK INTER:                  -9.141
REMARK INTRA:                  -0.518
REMARK UNBOUND:                -0.734
REMARK  Name = 
REMARK  7 active torsions:
REMARK  status: ('A' for Active; 'I' for Inactive)
REMARK    1  A    between atoms: C_2  and  C_4
REMARK    2  A    between atoms: C_7  and  N_8
REMARK    3  A    between atoms: N_8  and  C_9
REMARK    4  A    between atoms: C_9  and  C_10
REMARK    5  A    between atoms: C_10  and  C_11
REMARK    6  A    between atoms: C_15  and  O_16
REMARK    7  A    between atoms: O_16  and  C_17
REMARK                            x       y       z     vdW  Elec       q    Type
REMARK                         _______ _______ _______ _____ _____    ______ ____
ROOT
ATOM      1  C   UNL     1      46.153   7.596  12.893  0.00  0.00    +0.000 C 
ENDROOT
BRANCH   1   2
ATOM      2  N   UNL     1      47.425   6.865  12.959  0.00  0.00    +0.000 N 
ATOM      3  H   UNL     1      48.230   7.459  12.773  0.00  0.00    +0.000 HD
BRANCH   2   7
ATOM      4  C   UNL     1      47.778   4.369  16.283  0.00  0.00    +0.000 A 
ATOM      5  C   UNL     1      48.510   5.546  16.277  0.00  0.00    +0.000 A 
ATOM      6  C   UNL     1      48.428   6.374  15.159  0.00  0.00    +0.000 A 
ATOM      7  C   UNL     1      47.640   6.019  14.059  0.00  0.00    +0.000 A 
ATOM      8  C   UNL     1      46.932   4.815  14.188  0.00  0.00    +0.000 A 
ATOM      9  N   UNL     1      46.989   3.968  15.251  0.00  0.00    +0.000 NA
BRANCH   4  11
ATOM     10  N   UNL     1      46.696   2.734  17.716  0.00  0.00    +0.000 N 
ATOM     11  C   UNL     1      47.813   3.493  17.498  0.00  0.00    +0.000 C 
ATOM     12  O   UNL     1      48.774   3.452  18.256  0.00  0.00    +0.000 OA
ATOM     13  H   UNL     1      46.660   2.126  18.519  0.00  0.00    +0.000 HD
ATOM     14  H   UNL     1      45.925   2.776  17.059  0.00  0.00    +0.000 HD
ENDBRANCH   4  11
ENDBRANCH   2   7
ENDBRANCH   1   2
BRANCH   1  15
ATOM     15  C   UNL     1      45.481   7.420  11.526  0.00  0.00    +0.000 C 
BRANCH  15  16
ATOM     16  C   UNL     1      44.692   6.131  11.478  0.00  0.00    +0.000 A 
ATOM     17  C   UNL     1      43.361   6.088  11.912  0.00  0.00    +0.000 A 
ATOM     18  C   UNL     1      42.619   4.910  11.796  0.00  0.00    +0.000 A 
ATOM     19  C   UNL     1      43.195   3.760  11.247  0.00  0.00    +0.000 A 
ATOM     20  C   UNL     1      44.523   3.791  10.823  0.00  0.00    +0.000 A 
ATOM     21  C   UNL     1      45.261   4.972  10.932  0.00  0.00    +0.000 A 
BRANCH  20  22
ATOM     22  O   UNL     1      45.186   2.740  10.243  0.00  0.00    +0.000 OA
BRANCH  22  23
ATOM     23  C   UNL     1      45.070   2.536   8.817  0.00  0.00    +0.000 C 
ATOM     24  C   UNL     1      46.167   1.709   8.113  0.00  0.00    +0.000 C 
ATOM     25  N   UNL     1      46.394   2.797   7.151  0.00  0.00    +0.000 NA
ATOM     26  C   UNL     1      45.572   3.711   7.952  0.00  0.00    +0.000 C 
ATOM     27  H   UNL     1      46.029   2.616   6.218  0.00  0.00    +0.000 HD
ENDBRANCH  22  23
ENDBRANCH  20  22
ENDBRANCH  15  16
ENDBRANCH   1  15
TORSDOF 7
ENDMDL
MODEL 7
REMARK VINA RESULT:    -6.269      2.877      4.452
REMARK INTER + INTRA:          -9.568
REMARK INTER:                  -8.549
REMARK INTRA:                  -1.020
REMARK UNBOUND:                -0.734
REMARK  Name = 
REMARK  7 active torsions:
REMARK  status: ('A' for Active; 'I' for Inactive)
REMARK    1  A    between atoms: C_2  and  C_4
REMARK    2  A    between atoms: C_7  and  N_8
REMARK    3  A    between atoms: N_8  and  C_9
REMARK    4  A    between atoms: C_9  and  C_10
REMARK    5  A    between atoms: C_10  and  C_11
REMARK    6  A    between atoms: C_15  and  O_16
REMARK    7  A    between atoms: O_16  and  C_17
REMARK                            x       y       z     vdW  Elec       q    Type
REMARK                         _______ _______ _______ _____ _____    ______ ____
ROOT
ATOM      1  C   UNL     1      46.733   8.829  12.483  0.00  0.00    +0.000 C 
ENDROOT
BRANCH   1   2
ATOM      2  N   UNL     1      45.656   8.051  13.108  0.00  0.00    +0.000 N 
ATOM      3  H   UNL     1      44.804   8.593  13.237  0.00  0.00    +0.000 HD
BRANCH   2   7
ATOM      4  C   UNL     1      44.598   4.333  11.541  0.00  0.00    +0.000 A 
ATOM      5  C   UNL     1      45.029   4.381  12.857  0.00  0.00    +0.000 A 
ATOM      6  C   UNL     1      45.417   5.611  13.385  0.00  0.00    +0.000 A 
ATOM      7  C   UNL     1      45.391   6.769  12.600  0.00  0.00    +0.000 A 
ATOM      8  C   UNL     1      44.920   6.599  11.290  0.00  0.00    +0.000 A 
ATOM      9  N   UNL     1      44.543   5.420  10.727  0.00  0.00    +0.000 NA
BRANCH   4  11
ATOM     10  N   UNL     1      44.933   2.468  10.022  0.00  0.00    +0.000 N 
ATOM     11  C   UNL     1      44.126   3.029  10.974  0.00  0.00    +0.000 C 
ATOM     12  O   UNL     1      43.086   2.490  11.331  0.00  0.00    +0.000 OA
ATOM     13  H   UNL     1      44.667   1.591   9.602  0.00  0.00    +0.000 HD
ATOM     14  H   UNL     1      45.798   2.929   9.763  0.00  0.00    +0.000 HD
ENDBRANCH   4  11
ENDBRANCH   2   7
ENDBRANCH   1   2
BRANCH   1  15
ATOM     15  C   UNL     1      48.073   8.086  12.560  0.00  0.00    +0.000 C 
BRANCH  15  16
ATOM     16  C   UNL     1      48.526   7.945  13.994  0.00  0.00    +0.000 A 
ATOM     17  C   UNL     1      48.783   9.075  14.780  0.00  0.00    +0.000 A 
ATOM     18  C   UNL     1      49.131   8.935  16.126  0.00  0.00    +0.000 A 
ATOM     19  C   UNL     1      49.229   7.665  16.704  0.00  0.00    +0.000 A 
ATOM     20  C   UNL     1      48.986   6.534  15.927  0.00  0.00    +0.000 A 
ATOM     21  C   UNL     1      48.630   6.677  14.583  0.00  0.00    +0.000 A 
BRANCH  20  22
ATOM     22  O   UNL     1      49.021   5.243  16.387  0.00  0.00    +0.000 OA
BRANCH  22  23
ATOM     23  C   UNL     1      47.804   4.464  16.393  0.00  0.00    +0.000 C 
ATOM     24  C   UNL     1      46.944   4.477  17.674  0.00  0.00    +0.000 C 
ATOM     25  N   UNL     1      46.960   3.009  17.721  0.00  0.00    +0.000 NA
ATOM     26  C   UNL     1      47.998   2.962  16.685  0.00  0.00    +0.000 C 
ATOM     27  H   UNL     1      46.081   2.569  17.452  0.00  0.00    +0.000 HD
ENDBRANCH  22  23
ENDBRANCH  20  22
ENDBRANCH  15  16
ENDBRANCH   1  15
TORSDOF 7
ENDMDL
MODEL 8
REMARK VINA RESULT:    -6.170      3.732      8.170
REMARK INTER + INTRA:          -9.429
REMARK INTER:                  -8.911
REMARK INTRA:                  -0.518
REMARK UNBOUND:                -0.734
REMARK  Name = 
REMARK  7 active torsions:
REMARK  status: ('A' for Active; 'I' for Inactive)
REMARK    1  A    between atoms: C_2  and  C_4
REMARK    2  A    between atoms: C_7  and  N_8
REMARK    3  A    between atoms: N_8  and  C_9
REMARK    4  A    between atoms: C_9  and  C_10
REMARK    5  A    between atoms: C_10  and  C_11
REMARK    6  A    between atoms: C_15  and  O_16
REMARK    7  A    between atoms: O_16  and  C_17
REMARK                            x       y       z     vdW  Elec       q    Type
REMARK                         _______ _______ _______ _____ _____    ______ ____
ROOT
ATOM      1  C   UNL     1      45.396   6.004  12.405  0.00  0.00    +0.000 C 
ENDROOT
BRANCH   1   2
ATOM      2  N   UNL     1      45.100   7.235  13.149  0.00  0.00    +0.000 N 
ATOM      3  H   UNL     1      45.065   7.087  14.155  0.00  0.00    +0.000 HD
BRANCH   2   7
ATOM      4  C   UNL     1      47.119  10.659  11.883  0.00  0.00    +0.000 A 
ATOM      5  C   UNL     1      47.876   9.599  12.356  0.00  0.00    +0.000 A 
ATOM      6  C   UNL     1      47.214   8.461  12.813  0.00  0.00    +0.000 A 
ATOM      7  C   UNL     1      45.817   8.395  12.813  0.00  0.00    +0.000 A 
ATOM      8  C   UNL     1      45.160   9.520  12.294  0.00  0.00    +0.000 A 
ATOM      9  N   UNL     1      45.760  10.657  11.849  0.00  0.00    +0.000 NA
BRANCH   4  11
ATOM     10  N   UNL     1      48.176  11.803  10.021  0.00  0.00    +0.000 N 
ATOM     11  C   UNL     1      47.815  11.868  11.338  0.00  0.00    +0.000 C 
ATOM     12  O   UNL     1      48.051  12.858  12.021  0.00  0.00    +0.000 OA
ATOM     13  H   UNL     1      48.650  12.587   9.598  0.00  0.00    +0.000 HD
ATOM     14  H   UNL     1      47.949  10.979   9.478  0.00  0.00    +0.000 HD
ENDBRANCH   4  11
ENDBRANCH   2   7
ENDBRANCH   1   2
BRANCH   1  15
ATOM     15  C   UNL     1      45.205   6.206  10.897  0.00  0.00    +0.000 C 
BRANCH  15  16
ATOM     16  C   UNL     1      45.097   4.876  10.187  0.00  0.00    +0.000 A 
ATOM     17  C   UNL     1      44.467   3.785  10.799  0.00  0.00    +0.000 A 
ATOM     18  C   UNL     1      44.308   2.582  10.106  0.00  0.00    +0.000 A 
ATOM     19  C   UNL     1      44.775   2.452   8.795  0.00  0.00    +0.000 A 
ATOM     20  C   UNL     1      45.413   3.529   8.181  0.00  0.00    +0.000 A 
ATOM     21  C   UNL     1      45.565   4.734   8.873  0.00  0.00    +0.000 A 
BRANCH  20  22
ATOM     22  O   UNL     1      45.886   3.531   6.894  0.00  0.00    +0.000 OA
BRANCH  22  23
ATOM     23  C   UNL     1      46.532   2.345   6.380  0.00  0.00    +0.000 C 
ATOM     24  C   UNL     1      47.949   2.015   6.891  0.00  0.00    +0.000 C 
ATOM     25  N   UNL     1      48.448   1.938   5.511  0.00  0.00    +0.000 NA
ATOM     26  C   UNL     1      47.201   2.520   5.001  0.00  0.00    +0.000 C 
ATOM     27  H   UNL     1      48.632   0.991   5.182  0.00  0.00    +0.000 HD
ENDBRANCH  22  23
ENDBRANCH  20  22
ENDBRANCH  15  16
ENDBRANCH   1  15
TORSDOF 7
ENDMDL
MODEL 9
REMARK VINA RESULT:    -6.079      3.346      8.059
REMARK INTER + INTRA:          -9.301
REMARK INTER:                  -8.566
REMARK INTRA:                  -0.735
REMARK UNBOUND:                -0.734
REMARK  Name = 
REMARK  7 active torsions:
REMARK  status: ('A' for Active; 'I' for Inactive)
REMARK    1  A    between atoms: C_2  and  C_4
REMARK    2  A    between atoms: C_7  and  N_8
REMARK    3  A    between atoms: N_8  and  C_9
REMARK    4  A    between atoms: C_9  and  C_10
REMARK    5  A    between atoms: C_10  and  C_11
REMARK    6  A    between atoms: C_15  and  O_16
REMARK    7  A    between atoms: O_16  and  C_17
REMARK                            x       y       z     vdW  Elec       q    Type
REMARK                         _______ _______ _______ _____ _____    ______ ____
ROOT
ATOM      1  C   UNL     1      48.799   7.500  15.894  0.00  0.00    +0.000 C 
ENDROOT
BRANCH   1   2
ATOM      2  N   UNL     1      48.188   6.496  16.774  0.00  0.00    +0.000 N 
ATOM      3  H   UNL     1      47.235   6.261  16.501  0.00  0.00    +0.000 HD
BRANCH   2   7
ATOM      4  C   UNL     1      50.601   3.168  17.487  0.00  0.00    +0.000 A 
ATOM      5  C   UNL     1      49.263   2.947  17.200  0.00  0.00    +0.000 A 
ATOM      6  C   UNL     1      48.437   4.051  16.992  0.00  0.00    +0.000 A 
ATOM      7  C   UNL     1      48.940   5.352  17.089  0.00  0.00    +0.000 A 
ATOM      8  C   UNL     1      50.312   5.450  17.366  0.00  0.00    +0.000 A 
ATOM      9  N   UNL     1      51.154   4.405  17.589  0.00  0.00    +0.000 NA
BRANCH   4  11
ATOM     10  N   UNL     1      52.541   2.166  18.547  0.00  0.00    +0.000 N 
ATOM     11  C   UNL     1      51.514   1.993  17.661  0.00  0.00    +0.000 C 
ATOM     12  O   UNL     1      51.360   0.941  17.053  0.00  0.00    +0.000 OA
ATOM     13  H   UNL     1      53.190   1.410  18.705  0.00  0.00    +0.000 HD
ATOM     14  H   UNL     1      52.630   3.041  19.049  0.00  0.00    +0.000 HD
ENDBRANCH   4  11
ENDBRANCH   2   7
ENDBRANCH   1   2
BRANCH   1  15
ATOM     15  C   UNL     1      48.999   6.949  14.476  0.00  0.00    +0.000 C 
BRANCH  15  16
ATOM     16  C   UNL     1      47.689   6.917  13.724  0.00  0.00    +0.000 A 
ATOM     17  C   UNL     1      46.999   8.100  13.432  0.00  0.00    +0.000 A 
ATOM     18  C   UNL     1      45.826   8.064  12.673  0.00  0.00    +0.000 A 
ATOM     19  C   UNL     1      45.327   6.849  12.196  0.00  0.00    +0.000 A 
ATOM     20  C   UNL     1      46.001   5.664  12.491  0.00  0.00    +0.000 A 
ATOM     21  C   UNL     1      47.178   5.702  13.243  0.00  0.00    +0.000 A 
BRANCH  20  22
ATOM     22  O   UNL     1      45.626   4.419  12.055  0.00  0.00    +0.000 OA
BRANCH  22  23
ATOM     23  C   UNL     1      44.224   4.141  11.841  0.00  0.00    +0.000 C 
ATOM     24  C   UNL     1      43.553   3.077  12.734  0.00  0.00    +0.000 C 
ATOM     25  N   UNL     1      43.076   2.356  11.546  0.00  0.00    +0.000 NA
ATOM     26  C   UNL     1      43.927   3.176  10.675  0.00  0.00    +0.000 C 
ATOM     27  H   UNL     1      42.078   2.454  11.366  0.00  0.00    +0.000 HD
ENDBRANCH  22  23
ENDBRANCH  20  22
ENDBRANCH  15  16
ENDBRANCH   1  15
TORSDOF 7
ENDMDL
