MODEL 1
REMARK VINA RESULT:    -7.477      0.000      0.000
REMARK INTER + INTRA:         -11.075
REMARK INTER:                 -10.318
REMARK INTRA:                  -0.757
REMARK UNBOUND:                -0.757
REMARK  Name = 
REMARK  7 active torsions:
REMARK  status: ('A' for Active; 'I' for Inactive)
REMARK    1  A    between atoms: N_1  and  C_2
REMARK    2  A    between atoms: C_2  and  C_3
REMARK    3  A    between atoms: C_7  and  C_8
REMARK    4  A    between atoms: C_8  and  C_9
REMARK    5  A    between atoms: C_9  and  O_10
REMARK    6  A    between atoms: O_10  and  C_11
REMARK    7  A    between atoms: C_14  and  C_15
REMARK                            x       y       z     vdW  Elec       q    Type
REMARK                         _______ _______ _______ _____ _____    ______ ____
ROOT
ATOM      1  C   UNL     1      43.552   4.902  10.284  0.00  0.00    +0.000 C 
ENDROOT
BRANCH   1   2
ATOM      2  C   UNL     1      43.604   5.319  11.749  0.00  0.00    +0.000 C 
BRANCH   2   7
ATOM      3  C   UNL     1      46.840   5.280  13.795  0.00  0.00    +0.000 A 
ATOM      4  C   UNL     1      47.647   6.126  13.022  0.00  0.00    +0.000 A 
ATOM      5  C   UNL     1      47.139   6.738  11.874  0.00  0.00    +0.000 A 
ATOM      6  C   UNL     1      45.827   6.492  11.472  0.00  0.00    +0.000 A 
ATOM      7  C   UNL     1      45.010   5.625  12.209  0.00  0.00    +0.000 A 
ATOM      8  C   UNL     1      45.518   5.044  13.382  0.00  0.00    +0.000 A 
BRANCH   3   9
ATOM      9  C   UNL     1      47.404   4.584  15.009  0.00  0.00    +0.000 C 
BRANCH   9  10
ATOM     10  N   UNL     1      47.511   3.142  14.819  0.00  0.00    +0.000 NA
ATOM     11  H   UNL     1      47.457   2.934  13.824  0.00  0.00    +0.000 HD
ATOM     12  H   UNL     1      46.705   2.695  15.252  0.00  0.00    +0.000 HD
ENDBRANCH   9  10
ENDBRANCH   3   9
ENDBRANCH   2   7
ENDBRANCH   1   2
BRANCH   1  13
ATOM     13  O   UNL     1      43.639   3.470  10.184  0.00  0.00    +0.000 OA
BRANCH  13  14
ATOM     14  C   UNL     1      44.610   3.080   9.281  0.00  0.00    +0.000 A 
ATOM     15  C   UNL     1      45.194   4.060   8.495  0.00  0.00    +0.000 A 
ATOM     16  C   UNL     1      46.177   3.675   7.581  0.00  0.00    +0.000 A 
ATOM     17  C   UNL     1      46.542   2.328   7.481  0.00  0.00    +0.000 A 
ATOM     18  C   UNL     1      45.897   1.432   8.312  0.00  0.00    +0.000 A 
ATOM     19  N   UNL     1      44.946   1.778   9.207  0.00  0.00    +0.000 NA
BRANCH  17  20
ATOM     20  C   UNL     1      47.588   1.913   6.516  0.00  0.00    +0.000 C 
ATOM     21  N   UNL     1      48.667   2.730   6.311  0.00  0.00    +0.000 N 
ATOM     22  O   UNL     1      47.497   0.853   5.904  0.00  0.00    +0.000 OA
ATOM     23  H   UNL     1      48.840   3.618   6.755  0.00  0.00    +0.000 HD
ATOM     24  H   UNL     1      49.359   2.407   5.643  0.00  0.00    +0.000 HD
ENDBRANCH  17  20
ENDBRANCH  13  14
ENDBRANCH   1  13
TORSDOF 7
ENDMDL
MODEL 2
REMARK VINA RESULT:    -7.315      2.055      2.606
REMARK INTER + INTRA:         -10.852
REMARK INTER:                  -9.951
REMARK INTRA:                  -0.901
REMARK UNBOUND:                -0.757
REMARK  Name = 
REMARK  7 active torsions:
REMARK  status: ('A' for Active; 'I' for Inactive)
REMARK    1  A    between atoms: N_1  and  C_2
REMARK    2  A    between atoms: C_2  and  C_3
REMARK    3  A    between atoms: C_7  and  C_8
REMARK    4  A    between atoms: C_8  and  C_9
REMARK    5  A    between atoms: C_9  and  O_10
REMARK    6  A    between atoms: O_10  and  C_11
REMARK    7  A    between atoms: C_14  and  C_15
REMARK                            x       y       z     vdW  Elec       q    Type
REMARK                         _______ _______ _______ _____ _____    ______ ____
ROOT
ATOM      1  C   UNL     1      43.762   2.982  11.920  0.00  0.00    +0.000 C 
ENDROOT
BRANCH   1   2
ATOM      2  C   UNL     1      43.635   4.155  12.886  0.00  0.00    +0.000 C 
BRANCH   2   7
ATOM      3  C   UNL     1      45.218   7.514  11.957  0.00  0.00    +0.000 A 
ATOM      4  C   UNL     1      46.569   7.246  12.220  0.00  0.00    +0.000 A 
ATOM      5  C   UNL     1      46.972   5.981  12.651  0.00  0.00    +0.000 A 
ATOM      6  C   UNL     1      46.026   4.976  12.849  0.00  0.00    +0.000 A 
ATOM      7  C   UNL     1      44.666   5.227  12.626  0.00  0.00    +0.000 A 
ATOM      8  C   UNL     1      44.276   6.492  12.155  0.00  0.00    +0.000 A 
BRANCH   3   9
ATOM      9  C   UNL     1      44.780   8.894  11.535  0.00  0.00    +0.000 C 
BRANCH   9  10
ATOM     10  N   UNL     1      44.645   9.802  12.669  0.00  0.00    +0.000 NA
ATOM     11  H   UNL     1      44.669   9.261  13.531  0.00  0.00    +0.000 HD
ATOM     12  H   UNL     1      43.726  10.240  12.628  0.00  0.00    +0.000 HD
ENDBRANCH   9  10
ENDBRANCH   3   9
ENDBRANCH   2   7
ENDBRANCH   1   2
BRANCH   1  13
ATOM     13  O   UNL     1      43.347   3.390  10.605  0.00  0.00    +0.000 OA
BRANCH  13  14
ATOM     14  C   UNL     1      44.331   3.156   9.664  0.00  0.00    +0.000 A 
ATOM     15  C   UNL     1      44.874   4.249   9.009  0.00  0.00    +0.000 A 
ATOM     16  C   UNL     1      45.871   4.021   8.057  0.00  0.00    +0.000 A 
ATOM     17  C   UNL     1      46.290   2.713   7.792  0.00  0.00    +0.000 A 
ATOM     18  C   UNL     1      45.683   1.694   8.503  0.00  0.00    +0.000 A 
ATOM     19  N   UNL     1      44.719   1.887   9.430  0.00  0.00    +0.000 NA
BRANCH  17  20
ATOM     20  C   UNL     1      47.351   2.464   6.786  0.00  0.00    +0.000 C 
ATOM     21  N   UNL     1      47.364   3.204   5.635  0.00  0.00    +0.000 N 
ATOM     22  O   UNL     1      48.210   1.609   6.975  0.00  0.00    +0.000 OA
ATOM     23  H   UNL     1      46.708   3.926   5.378  0.00  0.00    +0.000 HD
ATOM     24  H   UNL     1      48.106   3.002   4.975  0.00  0.00    +0.000 HD
ENDBRANCH  17  20
ENDBRANCH  13  14
ENDBRANCH   1  13
TORSDOF 7
ENDMDL
MODEL 3
REMARK VINA RESULT:    -7.137      2.370      6.443
REMARK INTER + INTRA:         -10.606
REMARK INTER:                  -9.873
REMARK INTRA:                  -0.733
REMARK UNBOUND:                -0.757
REMARK  Name = 
REMARK  7 active torsions:
REMARK  status: ('A' for Active; 'I' for Inactive)
REMARK    1  A    between atoms: N_1  and  C_2
REMARK    2  A    between atoms: C_2  and  C_3
REMARK    3  A    between atoms: C_7  and  C_8
REMARK    4  A    between atoms: C_8  and  C_9
REMARK    5  A    between atoms: C_9  and  O_10
REMARK    6  A    between atoms: O_10  and  C_11
REMARK    7  A    between atoms: C_14  and  C_15
REMARK                            x       y       z     vdW  Elec       q    Type
REMARK                         _______ _______ _______ _____ _____    ______ ____
ROOT
ATOM      1  C   UNL     1      43.589   3.590  10.986  0.00  0.00    +0.000 C 
ENDROOT
BRANCH   1   2
ATOM      2  C   UNL     1      44.165   2.381  10.257  0.00  0.00    +0.000 C 
BRANCH   2   7
ATOM      3  C   UNL     1      46.706   2.146   7.403  0.00  0.00    +0.000 A 
ATOM      4  C   UNL     1      46.868   3.501   7.086  0.00  0.00    +0.000 A 
ATOM      5  C   UNL     1      46.196   4.485   7.813  0.00  0.00    +0.000 A 
ATOM      6  C   UNL     1      45.336   4.125   8.850  0.00  0.00    +0.000 A 
ATOM      7  C   UNL     1      45.133   2.776   9.166  0.00  0.00    +0.000 A 
ATOM      8  C   UNL     1      45.842   1.796   8.453  0.00  0.00    +0.000 A 
BRANCH   3   9
ATOM      9  C   UNL     1      47.398   1.081   6.587  0.00  0.00    +0.000 C 
BRANCH   9  10
ATOM     10  N   UNL     1      48.389   1.641   5.676  0.00  0.00    +0.000 NA
ATOM     11  H   UNL     1      49.082   0.926   5.461  0.00  0.00    +0.000 HD
ATOM     12  H   UNL     1      48.886   2.390   6.154  0.00  0.00    +0.000 HD
ENDBRANCH   9  10
ENDBRANCH   3   9
ENDBRANCH   2   7
ENDBRANCH   1   2
BRANCH   1  13
ATOM     13  O   UNL     1      43.848   3.474  12.395  0.00  0.00    +0.000 OA
BRANCH  13  14
ATOM     14  C   UNL     1      44.877   4.306  12.794  0.00  0.00    +0.000 A 
ATOM     15  C   UNL     1      44.829   5.632  12.395  0.00  0.00    +0.000 A 
ATOM     16  C   UNL     1      45.864   6.481  12.795  0.00  0.00    +0.000 A 
ATOM     17  C   UNL     1      46.909   5.978  13.577  0.00  0.00    +0.000 A 
ATOM     18  C   UNL     1      46.860   4.640  13.921  0.00  0.00    +0.000 A 
ATOM     19  N   UNL     1      45.870   3.799  13.550  0.00  0.00    +0.000 NA
BRANCH  17  20
ATOM     20  C   UNL     1      48.008   6.874  14.009  0.00  0.00    +0.000 C 
ATOM     21  N   UNL     1      47.703   8.122  14.482  0.00  0.00    +0.000 N 
ATOM     22  O   UNL     1      49.178   6.511  13.948  0.00  0.00    +0.000 OA
ATOM     23  H   UNL     1      46.782   8.521  14.571  0.00  0.00    +0.000 HD
ATOM     24  H   UNL     1      48.485   8.702  14.767  0.00  0.00    +0.000 HD
ENDBRANCH  17  20
ENDBRANCH  13  14
ENDBRANCH   1  13
TORSDOF 7
ENDMDL
MODEL 4
REMARK VINA RESULT:    -6.609      1.337      1.696
REMARK INTER + INTRA:          -9.877
REMARK INTER:                  -9.403
REMARK INTRA:                  -0.475
REMARK UNBOUND:                -0.757
REMARK  Name = 
REMARK  7 active torsions:
REMARK  status: ('A' for Active; 'I' for Inactive)
REMARK    1  A    between atoms: N_1  and  C_2
REMARK    2  A    between atoms: C_2  and  C_3
REMARK    3  A    between atoms: C_7  and  C_8
REMARK    4  A    between atoms: C_8  and  C_9
REMARK    5  A    between atoms: C_9  and  O_10
REMARK    6  A    between atoms: O_10  and  C_11
REMARK    7  A    between atoms: C_14  and  C_15
REMARK                            x       y       z     vdW  Elec       q    Type
REMARK                         _______ _______ _______ _____ _____    ______ ____
ROOT
ATOM      1  C   UNL     1      44.069   4.437  11.203  0.00  0.00    +0.000 C 
ENDROOT
BRANCH   1   2
ATOM      2  C   UNL     1      43.618   5.725  11.884  0.00  0.00    +0.000 C 
BRANCH   2   7
ATOM      3  C   UNL     1      46.932   7.031  13.285  0.00  0.00    +0.000 A 
ATOM      4  C   UNL     1      46.967   8.313  12.720  0.00  0.00    +0.000 A 
ATOM      5  C   UNL     1      45.911   8.769  11.928  0.00  0.00    +0.000 A 
ATOM      6  C   UNL     1      44.820   7.939  11.672  0.00  0.00    +0.000 A 
ATOM      7  C   UNL     1      44.776   6.642  12.199  0.00  0.00    +0.000 A 
ATOM      8  C   UNL     1      45.825   6.207  13.025  0.00  0.00    +0.000 A 
BRANCH   3   9
ATOM      9  C   UNL     1      48.095   6.524  14.103  0.00  0.00    +0.000 C 
BRANCH   9  10
ATOM     10  N   UNL     1      47.738   5.363  14.910  0.00  0.00    +0.000 NA
ATOM     11  H   UNL     1      46.724   5.261  14.913  0.00  0.00    +0.000 HD
ATOM     12  H   UNL     1      48.013   5.539  15.875  0.00  0.00    +0.000 HD
ENDBRANCH   9  10
ENDBRANCH   3   9
ENDBRANCH   2   7
ENDBRANCH   1   2
BRANCH   1  13
ATOM     13  O   UNL     1      43.761   4.499   9.799  0.00  0.00    +0.000 OA
BRANCH  13  14
ATOM     14  C   UNL     1      44.702   3.828   9.042  0.00  0.00    +0.000 A 
ATOM     15  C   UNL     1      44.842   2.464   9.240  0.00  0.00    +0.000 A 
ATOM     16  C   UNL     1      45.790   1.779   8.478  0.00  0.00    +0.000 A 
ATOM     17  C   UNL     1      46.566   2.476   7.546  0.00  0.00    +0.000 A 
ATOM     18  C   UNL     1      46.347   3.836   7.426  0.00  0.00    +0.000 A 
ATOM     19  N   UNL     1      45.434   4.522   8.149  0.00  0.00    +0.000 NA
BRANCH  17  20
ATOM     20  C   UNL     1      47.571   1.754   6.730  0.00  0.00    +0.000 C 
ATOM     21  N   UNL     1      48.715   2.405   6.353  0.00  0.00    +0.000 N 
ATOM     22  O   UNL     1      47.391   0.589   6.393  0.00  0.00    +0.000 OA
ATOM     23  H   UNL     1      48.962   3.358   6.571  0.00  0.00    +0.000 HD
ATOM     24  H   UNL     1      49.375   1.875   5.797  0.00  0.00    +0.000 HD
ENDBRANCH  17  20
ENDBRANCH  13  14
ENDBRANCH   1  13
TORSDOF 7
ENDMDL
MODEL 5
REMARK VINA RESULT:    -6.459      3.690      6.240
REMARK INTER + INTRA:          -9.670
REMARK INTER:                  -9.290
REMARK INTRA:                  -0.380
REMARK UNBOUND:                -0.757
REMARK  Name = 
REMARK  7 active torsions:
REMARK  status: ('A' for Active; 'I' for Inactive)
REMARK    1  A    between atoms: N_1  and  C_2
REMARK    2  A    between atoms: C_2  and  C_3
REMARK    3  A    between atoms: C_7  and  C_8
REMARK    4  A    between atoms: C_8  and  C_9
REMARK    5  A    between atoms: C_9  and  O_10
REMARK    6  A    between atoms: O_10  and  C_11
REMARK    7  A    between atoms: C_14  and  C_15
REMARK                            x       y       z     vdW  Elec       q    Type
REMARK                         _______ _______ _______ _____ _____    ______ ____
ROOT
ATOM      1  C   UNL     1      47.400   4.210  15.639  0.00  0.00    +0.000 C 
ENDROOT
BRANCH   1   2
ATOM      2  C   UNL     1      47.703   3.205  16.746  0.00  0.00    +0.000 C 
BRANCH   2   7
ATOM      3  C   UNL     1      51.319   2.160  17.446  0.00  0.00    +0.000 A 
ATOM      4  C   UNL     1      51.850   3.366  17.925  0.00  0.00    +0.000 A 
ATOM      5  C   UNL     1      51.040   4.495  18.061  0.00  0.00    +0.000 A 
ATOM      6  C   UNL     1      49.695   4.439  17.697  0.00  0.00    +0.000 A 
ATOM      7  C   UNL     1      49.147   3.255  17.186  0.00  0.00    +0.000 A 
ATOM      8  C   UNL     1      49.962   2.115  17.089  0.00  0.00    +0.000 A 
BRANCH   3   9
ATOM      9  C   UNL     1      52.206   0.955  17.257  0.00  0.00    +0.000 C 
BRANCH   9  10
ATOM     10  N   UNL     1      52.095   0.009  18.361  0.00  0.00    +0.000 NA
ATOM     11  H   UNL     1      52.910   0.107  18.965  0.00  0.00    +0.000 HD
ATOM     12  H   UNL     1      52.127  -0.937  17.985  0.00  0.00    +0.000 HD
ENDBRANCH   9  10
ENDBRANCH   3   9
ENDBRANCH   2   7
ENDBRANCH   1   2
BRANCH   1  13
ATOM     13  O   UNL     1      47.696   3.624  14.360  0.00  0.00    +0.000 OA
BRANCH  13  14
ATOM     14  C   UNL     1      46.729   3.933  13.423  0.00  0.00    +0.000 A 
ATOM     15  C   UNL     1      46.684   5.232  12.942  0.00  0.00    +0.000 A 
ATOM     16  C   UNL     1      45.711   5.553  11.994  0.00  0.00    +0.000 A 
ATOM     17  C   UNL     1      44.816   4.569  11.558  0.00  0.00    +0.000 A 
ATOM     18  C   UNL     1      44.948   3.305  12.101  0.00  0.00    +0.000 A 
ATOM     19  N   UNL     1      45.882   2.967  13.017  0.00  0.00    +0.000 NA
BRANCH  17  20
ATOM     20  C   UNL     1      43.783   4.901  10.548  0.00  0.00    +0.000 C 
ATOM     21  N   UNL     1      43.969   4.507   9.250  0.00  0.00    +0.000 N 
ATOM     22  O   UNL     1      42.771   5.519  10.861  0.00  0.00    +0.000 OA
ATOM     23  H   UNL     1      44.761   4.001   8.885  0.00  0.00    +0.000 HD
ATOM     24  H   UNL     1      43.239   4.755   8.593  0.00  0.00    +0.000 HD
ENDBRANCH  17  20
ENDBRANCH  13  14
ENDBRANCH   1  13
TORSDOF 7
ENDMDL
MODEL 6
REMARK VINA RESULT:    -6.041      3.515      8.599
REMARK INTER + INTRA:          -9.093
REMARK INTER:                  -8.707
REMARK INTRA:                  -0.385
REMARK UNBOUND:                -0.757
REMARK  Name = 
REMARK  7 active torsions:
REMARK  status: ('A' for Active; 'I' for Inactive)
REMARK    1  A    between atoms: N_1  and  C_2
REMARK    2  A    between atoms: C_2  and  C_3
REMARK    3  A    between atoms: C_7  and  C_8
REMARK    4  A    between atoms: C_8  and  C_9
REMARK    5  A    between atoms: C_9  and  O_10
REMARK    6  A    between atoms: O_10  and  C_11
REMARK    7  A    between atoms: C_14  and  C_15
REMARK                            x       y       z     vdW  Elec       q    Type
REMARK                         _______ _______ _______ _____ _____    ______ ____
ROOT
ATOM      1  C   UNL     1      46.519   2.020   6.099  0.00  0.00    +0.000 C 
ENDROOT
BRANCH   1   2
ATOM      2  C   UNL     1      47.198   1.997   4.734  0.00  0.00    +0.000 C 
BRANCH   2   7
ATOM      3  C   UNL     1      46.505  -1.439   3.196  0.00  0.00    +0.000 A 
ATOM      4  C   UNL     1      45.554  -1.102   2.223  0.00  0.00    +0.000 A 
ATOM      5  C   UNL     1      45.171   0.227   2.035  0.00  0.00    +0.000 A 
ATOM      6  C   UNL     1      45.715   1.232   2.834  0.00  0.00    +0.000 A 
ATOM      7  C   UNL     1      46.643   0.918   3.835  0.00  0.00    +0.000 A 
ATOM      8  C   UNL     1      47.050  -0.418   3.990  0.00  0.00    +0.000 A 
BRANCH   3   9
ATOM      9  C   UNL     1      46.884  -2.881   3.427  0.00  0.00    +0.000 C 
BRANCH   9  10
ATOM     10  N   UNL     1      46.307  -3.413   4.657  0.00  0.00    +0.000 NA
ATOM     11  H   UNL     1      46.585  -4.388   4.758  0.00  0.00    +0.000 HD
ATOM     12  H   UNL     1      45.293  -3.410   4.569  0.00  0.00    +0.000 HD
ENDBRANCH   9  10
ENDBRANCH   3   9
ENDBRANCH   2   7
ENDBRANCH   1   2
BRANCH   1  13
ATOM     13  O   UNL     1      46.525   3.359   6.621  0.00  0.00    +0.000 OA
BRANCH  13  14
ATOM     14  C   UNL     1      45.839   3.442   7.818  0.00  0.00    +0.000 A 
ATOM     15  C   UNL     1      45.350   2.268   8.367  0.00  0.00    +0.000 A 
ATOM     16  C   UNL     1      44.658   2.343   9.578  0.00  0.00    +0.000 A 
ATOM     17  C   UNL     1      44.476   3.584  10.197  0.00  0.00    +0.000 A 
ATOM     18  C   UNL     1      45.005   4.694   9.564  0.00  0.00    +0.000 A 
ATOM     19  N   UNL     1      45.681   4.649   8.395  0.00  0.00    +0.000 NA
BRANCH  17  20
ATOM     20  C   UNL     1      43.745   3.671  11.484  0.00  0.00    +0.000 C 
ATOM     21  N   UNL     1      44.022   2.761  12.469  0.00  0.00    +0.000 N 
ATOM     22  O   UNL     1      42.904   4.543  11.674  0.00  0.00    +0.000 OA
ATOM     23  H   UNL     1      44.689   2.006  12.419  0.00  0.00    +0.000 HD
ATOM     24  H   UNL     1      43.501   2.857  13.333  0.00  0.00    +0.000 HD
ENDBRANCH  17  20
ENDBRANCH  13  14
ENDBRANCH   1  13
TORSDOF 7
ENDMDL
MODEL 7
REMARK VINA RESULT:    -5.896      4.732      8.070
REMARK INTER + INTRA:          -8.894
REMARK INTER:                  -8.501
REMARK INTRA:                  -0.393
REMARK UNBOUND:                -0.757
REMARK  Name = 
REMARK  7 active torsions:
REMARK  status: ('A' for Active; 'I' for Inactive)
REMARK    1  A    between atoms: N_1  and  C_2
REMARK    2  A    between atoms: C_2  and  C_3
REMARK    3  A    between atoms: C_7  and  C_8
REMARK    4  A    between atoms: C_8  and  C_9
REMARK    5  A    between atoms: C_9  and  O_10
REMARK    6  A    between atoms: O_10  and  C_11
REMARK    7  A    between atoms: C_14  and  C_15
REMARK                            x       y       z     vdW  Elec       q    Type
REMARK                         _______ _______ _______ _____ _____    ______ ____
ROOT
ATOM      1  C   UNL     1      47.050   4.301  15.419  0.00  0.00    +0.000 C 
ENDROOT
BRANCH   1   2
ATOM      2  C   UNL     1      47.085   3.832  13.969  0.00  0.00    +0.000 C 
BRANCH   2   7
ATOM      3  C   UNL     1      44.505   5.482  11.672  0.00  0.00    +0.000 A 
ATOM      4  C   UNL     1      45.163   6.679  11.359  0.00  0.00    +0.000 A 
ATOM      5  C   UNL     1      46.445   6.934  11.848  0.00  0.00    +0.000 A 
ATOM      6  C   UNL     1      47.075   6.006  12.677  0.00  0.00    +0.000 A 
ATOM      7  C   UNL     1      46.425   4.817  13.032  0.00  0.00    +0.000 A 
ATOM      8  C   UNL     1      45.151   4.553  12.504  0.00  0.00    +0.000 A 
BRANCH   3   9
ATOM      9  C   UNL     1      43.101   5.229  11.179  0.00  0.00    +0.000 C 
BRANCH   9  10
ATOM     10  N   UNL     1      42.141   6.176  11.735  0.00  0.00    +0.000 NA
ATOM     11  H   UNL     1      41.336   6.233  11.114  0.00  0.00    +0.000 HD
ATOM     12  H   UNL     1      42.564   7.102  11.745  0.00  0.00    +0.000 HD
ENDBRANCH   9  10
ENDBRANCH   3   9
ENDBRANCH   2   7
ENDBRANCH   1   2
BRANCH   1  13
ATOM     13  O   UNL     1      47.182   3.169  16.297  0.00  0.00    +0.000 OA
BRANCH  13  14
ATOM     14  C   UNL     1      48.486   3.008  16.726  0.00  0.00    +0.000 A 
ATOM     15  C   UNL     1      49.021   3.981  17.555  0.00  0.00    +0.000 A 
ATOM     16  C   UNL     1      50.337   3.825  17.994  0.00  0.00    +0.000 A 
ATOM     17  C   UNL     1      51.074   2.706  17.592  0.00  0.00    +0.000 A 
ATOM     18  C   UNL     1      50.446   1.794  16.765  0.00  0.00    +0.000 A 
ATOM     19  N   UNL     1      49.173   1.920  16.328  0.00  0.00    +0.000 NA
BRANCH  17  20
ATOM     20  C   UNL     1      52.471   2.531  18.059  0.00  0.00    +0.000 C 
ATOM     21  N   UNL     1      52.863   3.132  19.225  0.00  0.00    +0.000 N 
ATOM     22  O   UNL     1      53.271   1.859  17.416  0.00  0.00    +0.000 OA
ATOM     23  H   UNL     1      52.292   3.705  19.826  0.00  0.00    +0.000 HD
ATOM     24  H   UNL     1      53.826   2.986  19.507  0.00  0.00    +0.000 HD
ENDBRANCH  17  20
ENDBRANCH  13  14
ENDBRANCH   1  13
TORSDOF 7
ENDMDL
MODEL 8
REMARK VINA RESULT:    -5.863      3.946      6.593
REMARK INTER + INTRA:          -8.848
REMARK INTER:                  -8.506
REMARK INTRA:                  -0.341
REMARK UNBOUND:                -0.757
REMARK  Name = 
REMARK  7 active torsions:
REMARK  status: ('A' for Active; 'I' for Inactive)
REMARK    1  A    between atoms: N_1  and  C_2
REMARK    2  A    between atoms: C_2  and  C_3
REMARK    3  A    between atoms: C_7  and  C_8
REMARK    4  A    between atoms: C_8  and  C_9
REMARK    5  A    between atoms: C_9  and  O_10
REMARK    6  A    between atoms: O_10  and  C_11
REMARK    7  A    between atoms: C_14  and  C_15
REMARK                            x       y       z     vdW  Elec       q    Type
REMARK                         _______ _______ _______ _____ _____    ______ ____
ROOT
ATOM      1  C   UNL     1      47.460   3.799  15.835  0.00  0.00    +0.000 C 
ENDROOT
BRANCH   1   2
ATOM      2  C   UNL     1      48.200   2.840  16.761  0.00  0.00    +0.000 C 
BRANCH   2   7
ATOM      3  C   UNL     1      49.330   4.869  19.805  0.00  0.00    +0.000 A 
ATOM      4  C   UNL     1      50.721   4.841  19.635  0.00  0.00    +0.000 A 
ATOM      5  C   UNL     1      51.288   4.210  18.526  0.00  0.00    +0.000 A 
ATOM      6  C   UNL     1      50.473   3.579  17.587  0.00  0.00    +0.000 A 
ATOM      7  C   UNL     1      49.082   3.564  17.751  0.00  0.00    +0.000 A 
ATOM      8  C   UNL     1      48.519   4.234  18.849  0.00  0.00    +0.000 A 
BRANCH   3   9
ATOM      9  C   UNL     1      48.721   5.511  21.027  0.00  0.00    +0.000 C 
BRANCH   9  10
ATOM     10  N   UNL     1      47.844   4.600  21.751  0.00  0.00    +0.000 NA
ATOM     11  H   UNL     1      48.365   4.178  22.518  0.00  0.00    +0.000 HD
ATOM     12  H   UNL     1      47.578   3.839  21.129  0.00  0.00    +0.000 HD
ENDBRANCH   9  10
ENDBRANCH   3   9
ENDBRANCH   2   7
ENDBRANCH   1   2
BRANCH   1  13
ATOM     13  O   UNL     1      47.681   3.417  14.467  0.00  0.00    +0.000 OA
BRANCH  13  14
ATOM     14  C   UNL     1      46.711   3.937  13.631  0.00  0.00    +0.000 A 
ATOM     15  C   UNL     1      46.625   5.315  13.515  0.00  0.00    +0.000 A 
ATOM     16  C   UNL     1      45.648   5.848  12.671  0.00  0.00    +0.000 A 
ATOM     17  C   UNL     1      44.791   4.990  11.974  0.00  0.00    +0.000 A 
ATOM     18  C   UNL     1      44.962   3.631  12.160  0.00  0.00    +0.000 A 
ATOM     19  N   UNL     1      45.900   3.089  12.968  0.00  0.00    +0.000 NA
BRANCH  17  20
ATOM     20  C   UNL     1      43.755   5.548  11.073  0.00  0.00    +0.000 C 
ATOM     21  N   UNL     1      43.301   6.822  11.288  0.00  0.00    +0.000 N 
ATOM     22  O   UNL     1      43.304   4.887  10.143  0.00  0.00    +0.000 OA
ATOM     23  H   UNL     1      43.598   7.449  12.020  0.00  0.00    +0.000 HD
ATOM     24  H   UNL     1      42.593   7.164  10.649  0.00  0.00    +0.000 HD
ENDBRANCH  17  20
ENDBRANCH  13  14
ENDBRANCH   1  13
TORSDOF 7
ENDMDL
MODEL 9
REMARK VINA RESULT:    -5.773      3.508      7.488
REMARK INTER + INTRA:          -8.723
REMARK INTER:                  -8.235
REMARK INTRA:                  -0.489
REMARK UNBOUND:                -0.757
REMARK  Name = 
REMARK  7 active torsions:
REMARK  status: ('A' for Active; 'I' for Inactive)
REMARK    1  A    between atoms: N_1  and  C_2
REMARK    2  A    between atoms: C_2  and  C_3
REMARK    3  A    between atoms: C_7  and  C_8
REMARK    4  A    between atoms: C_8  and  C_9
REMARK    5  A    between atoms: C_9  and  O_10
REMARK    6  A    between atoms: O_10  and  C_11
REMARK    7  A    between atoms: C_14  and  C_15
REMARK                            x       y       z     vdW  Elec       q    Type
REMARK                         _______ _______ _______ _____ _____    ______ ____
ROOT
ATOM      1  C   UNL     1      48.119   6.677  12.604  0.00  0.00    +0.000 C 
ENDROOT
BRANCH   1   2
ATOM      2  C   UNL     1      46.864   7.415  12.151  0.00  0.00    +0.000 C 
BRANCH   2   7
ATOM      3  C   UNL     1      44.547   4.928  10.390  0.00  0.00    +0.000 A 
ATOM      4  C   UNL     1      43.620   4.670  11.409  0.00  0.00    +0.000 A 
ATOM      5  C   UNL     1      43.715   5.324  12.639  0.00  0.00    +0.000 A 
ATOM      6  C   UNL     1      44.753   6.226  12.873  0.00  0.00    +0.000 A 
ATOM      7  C   UNL     1      45.712   6.477  11.883  0.00  0.00    +0.000 A 
ATOM      8  C   UNL     1      45.585   5.842  10.637  0.00  0.00    +0.000 A 
BRANCH   3   9
ATOM      9  C   UNL     1      44.469   4.187   9.079  0.00  0.00    +0.000 C 
BRANCH   9  10
ATOM     10  N   UNL     1      45.500   4.614   8.140  0.00  0.00    +0.000 NA
ATOM     11  H   UNL     1      45.055   5.073   7.347  0.00  0.00    +0.000 HD
ATOM     12  H   UNL     1      45.967   3.788   7.770  0.00  0.00    +0.000 HD
ENDBRANCH   9  10
ENDBRANCH   3   9
ENDBRANCH   2   7
ENDBRANCH   1   2
BRANCH   1  13
ATOM     13  O   UNL     1      48.507   7.138  13.910  0.00  0.00    +0.000 OA
BRANCH  13  14
ATOM     14  C   UNL     1      48.274   6.180  14.878  0.00  0.00    +0.000 A 
ATOM     15  C   UNL     1      48.766   6.414  16.152  0.00  0.00    +0.000 A 
ATOM     16  C   UNL     1      48.533   5.451  17.137  0.00  0.00    +0.000 A 
ATOM     17  C   UNL     1      47.821   4.290  16.818  0.00  0.00    +0.000 A 
ATOM     18  C   UNL     1      47.375   4.156  15.517  0.00  0.00    +0.000 A 
ATOM     19  N   UNL     1      47.583   5.072  14.546  0.00  0.00    +0.000 NA
BRANCH  17  20
ATOM     20  C   UNL     1      47.567   3.266  17.860  0.00  0.00    +0.000 C 
ATOM     21  N   UNL     1      48.390   3.210  18.952  0.00  0.00    +0.000 N 
ATOM     22  O   UNL     1      46.635   2.476  17.753  0.00  0.00    +0.000 OA
ATOM     23  H   UNL     1      49.183   3.804  19.138  0.00  0.00    +0.000 HD
ATOM     24  H   UNL     1      48.180   2.495  19.640  0.00  0.00    +0.000 HD
ENDBRANCH  17  20
ENDBRANCH  13  14
ENDBRANCH   1  13
TORSDOF 7
ENDMDL
