MODEL 1
REMARK VINA RESULT:    -7.777      0.000      0.000
REMARK INTER + INTRA:         -10.221
REMARK INTER:                  -9.596
REMARK INTRA:                  -0.626
REMARK UNBOUND:                -0.626
REMARK  Name = 
REMARK  5 active torsions:
REMARK  status: ('A' for Active; 'I' for Inactive)
REMARK    1  A    between atoms: C_1  and  C_2
REMARK    2  A    between atoms: C_7  and  N_8
REMARK    3  A    between atoms: N_8  and  C_9
REMARK    4  A    between atoms: C_9  and  C_10
REMARK    5  A    between atoms: C_14  and  C_15
REMARK                            x       y       z     vdW  Elec       q    Type
REMARK                         _______ _______ _______ _____ _____    ______ ____
ROOT
ATOM      1  C   UNL     1      43.905   5.080  10.962  0.00  0.00    +0.000 C 
ATOM      2  C   UNL     1      42.871   4.061  11.480  0.00  0.00    +0.000 C 
ATOM      3  C   UNL     1      42.604   5.510  11.619  0.00  0.00    +0.000 C 
ENDROOT
BRANCH   1   4
ATOM      4  C   UNL     1      45.149   5.277  11.831  0.00  0.00    +0.000 A 
ATOM      5  C   UNL     1      45.634   4.255  12.655  0.00  0.00    +0.000 A 
ATOM      6  C   UNL     1      46.825   4.409  13.356  0.00  0.00    +0.000 A 
ATOM      7  C   UNL     1      47.564   5.589  13.231  0.00  0.00    +0.000 A 
ATOM      8  C   UNL     1      47.132   6.637  12.406  0.00  0.00    +0.000 A 
ATOM      9  C   UNL     1      45.899   6.468  11.756  0.00  0.00    +0.000 A 
BRANCH   8  10
ATOM     10  C   UNL     1      47.991   7.809  12.118  0.00  0.00    +0.000 A 
ATOM     11  C   UNL     1      49.350   7.638  11.802  0.00  0.00    +0.000 A 
ATOM     12  C   UNL     1      50.162   8.712  11.447  0.00  0.00    +0.000 A 
ATOM     13  C   UNL     1      49.631   9.996  11.392  0.00  0.00    +0.000 A 
ATOM     14  C   UNL     1      48.288  10.200  11.701  0.00  0.00    +0.000 A 
ATOM     15  C   UNL     1      47.479   9.120  12.069  0.00  0.00    +0.000 A 
ENDBRANCH   8  10
ENDBRANCH   1   4
BRANCH   1  16
ATOM     16  N   UNL     1      44.243   4.868   9.556  0.00  0.00    +0.000 N 
ATOM     17  H   UNL     1      43.570   5.225   8.880  0.00  0.00    +0.000 HD
BRANCH  16  24
ATOM     18  C   UNL     1      44.213   1.752   9.579  0.00  0.00    +0.000 C 
ATOM     19  C   UNL     1      45.150   2.642   8.838  0.00  0.00    +0.000 A 
ATOM     20  C   UNL     1      46.182   2.019   8.107  0.00  0.00    +0.000 A 
ATOM     21  C   UNL     1      47.070   2.768   7.356  0.00  0.00    +0.000 A 
ATOM     22  C   UNL     1      46.894   4.127   7.347  0.00  0.00    +0.000 A 
ATOM     23  N   UNL     1      45.935   4.759   8.061  0.00  0.00    +0.000 NA
ATOM     24  C   UNL     1      45.074   4.032   8.826  0.00  0.00    +0.000 A 
ENDBRANCH  16  24
ENDBRANCH   1  16
TORSDOF 4
ENDMDL
MODEL 2
REMARK VINA RESULT:    -7.712      2.780      6.798
REMARK INTER + INTRA:         -10.141
REMARK INTER:                  -9.023
REMARK INTRA:                  -1.118
REMARK UNBOUND:                -0.626
REMARK  Name = 
REMARK  5 active torsions:
REMARK  status: ('A' for Active; 'I' for Inactive)
REMARK    1  A    between atoms: C_1  and  C_2
REMARK    2  A    between atoms: C_7  and  N_8
REMARK    3  A    between atoms: N_8  and  C_9
REMARK    4  A    between atoms: C_9  and  C_10
REMARK    5  A    between atoms: C_14  and  C_15
REMARK                            x       y       z     vdW  Elec       q    Type
REMARK                         _______ _______ _______ _____ _____    ______ ____
ROOT
ATOM      1  C   UNL     1      45.465   7.618  11.901  0.00  0.00    +0.000 C 
ATOM      2  C   UNL     1      46.386   7.572  13.136  0.00  0.00    +0.000 C 
ATOM      3  C   UNL     1      46.979   7.632  11.781  0.00  0.00    +0.000 C 
ENDROOT
BRANCH   1   4
ATOM      4  C   UNL     1      44.809   6.295  11.501  0.00  0.00    +0.000 A 
ATOM      5  C   UNL     1      43.513   5.967  11.916  0.00  0.00    +0.000 A 
ATOM      6  C   UNL     1      42.888   4.812  11.457  0.00  0.00    +0.000 A 
ATOM      7  C   UNL     1      43.547   3.970  10.556  0.00  0.00    +0.000 A 
ATOM      8  C   UNL     1      44.838   4.261  10.096  0.00  0.00    +0.000 A 
ATOM      9  C   UNL     1      45.459   5.406  10.622  0.00  0.00    +0.000 A 
BRANCH   8  10
ATOM     10  C   UNL     1      45.472   3.484   9.005  0.00  0.00    +0.000 A 
ATOM     11  C   UNL     1      46.109   4.140   7.938  0.00  0.00    +0.000 A 
ATOM     12  C   UNL     1      46.785   3.439   6.943  0.00  0.00    +0.000 A 
ATOM     13  C   UNL     1      46.845   2.050   6.990  0.00  0.00    +0.000 A 
ATOM     14  C   UNL     1      46.222   1.368   8.034  0.00  0.00    +0.000 A 
ATOM     15  C   UNL     1      45.535   2.077   9.025  0.00  0.00    +0.000 A 
ENDBRANCH   8  10
ENDBRANCH   1   4
BRANCH   1  16
ATOM     16  N   UNL     1      44.500   8.714  11.964  0.00  0.00    +0.000 N 
ATOM     17  H   UNL     1      43.744   8.602  12.638  0.00  0.00    +0.000 HD
BRANCH  16  24
ATOM     18  C   UNL     1      46.160  11.262  11.282  0.00  0.00    +0.000 C 
ATOM     19  C   UNL     1      44.766  10.950  10.858  0.00  0.00    +0.000 A 
ATOM     20  C   UNL     1      44.089  11.936  10.112  0.00  0.00    +0.000 A 
ATOM     21  C   UNL     1      42.808  11.711   9.641  0.00  0.00    +0.000 A 
ATOM     22  C   UNL     1      42.240  10.496   9.920  0.00  0.00    +0.000 A 
ATOM     23  N   UNL     1      42.850   9.541  10.659  0.00  0.00    +0.000 NA
ATOM     24  C   UNL     1      44.099   9.764  11.151  0.00  0.00    +0.000 A 
ENDBRANCH  16  24
ENDBRANCH   1  16
TORSDOF 4
ENDMDL
MODEL 3
REMARK VINA RESULT:    -7.580      2.385      6.434
REMARK INTER + INTRA:          -9.978
REMARK INTER:                  -8.849
REMARK INTRA:                  -1.129
REMARK UNBOUND:                -0.626
REMARK  Name = 
REMARK  5 active torsions:
REMARK  status: ('A' for Active; 'I' for Inactive)
REMARK    1  A    between atoms: C_1  and  C_2
REMARK    2  A    between atoms: C_7  and  N_8
REMARK    3  A    between atoms: N_8  and  C_9
REMARK    4  A    between atoms: C_9  and  C_10
REMARK    5  A    between atoms: C_14  and  C_15
REMARK                            x       y       z     vdW  Elec       q    Type
REMARK                         _______ _______ _______ _____ _____    ______ ____
ROOT
ATOM      1  C   UNL     1      46.185   7.292  12.582  0.00  0.00    +0.000 C 
ATOM      2  C   UNL     1      46.572   8.577  11.824  0.00  0.00    +0.000 C 
ATOM      3  C   UNL     1      45.581   8.644  12.922  0.00  0.00    +0.000 C 
ENDROOT
BRANCH   1   4
ATOM      4  C   UNL     1      45.236   6.340  11.852  0.00  0.00    +0.000 A 
ATOM      5  C   UNL     1      43.846   6.463  11.967  0.00  0.00    +0.000 A 
ATOM      6  C   UNL     1      42.995   5.661  11.215  0.00  0.00    +0.000 A 
ATOM      7  C   UNL     1      43.522   4.729  10.316  0.00  0.00    +0.000 A 
ATOM      8  C   UNL     1      44.905   4.578  10.149  0.00  0.00    +0.000 A 
ATOM      9  C   UNL     1      45.734   5.366  10.964  0.00  0.00    +0.000 A 
BRANCH   8  10
ATOM     10  C   UNL     1      45.474   3.734   9.072  0.00  0.00    +0.000 A 
ATOM     11  C   UNL     1      46.091   4.322   7.955  0.00  0.00    +0.000 A 
ATOM     12  C   UNL     1      46.707   3.557   6.969  0.00  0.00    +0.000 A 
ATOM     13  C   UNL     1      46.727   2.170   7.077  0.00  0.00    +0.000 A 
ATOM     14  C   UNL     1      46.123   1.555   8.172  0.00  0.00    +0.000 A 
ATOM     15  C   UNL     1      45.495   2.328   9.154  0.00  0.00    +0.000 A 
ENDBRANCH   8  10
ENDBRANCH   1   4
BRANCH   1  16
ATOM     16  N   UNL     1      47.346   6.597  13.133  0.00  0.00    +0.000 N 
ATOM     17  H   UNL     1      48.061   6.326  12.460  0.00  0.00    +0.000 HD
BRANCH  16  24
ATOM     18  C   UNL     1      46.549   3.651  13.767  0.00  0.00    +0.000 C 
ATOM     19  C   UNL     1      47.279   4.602  14.652  0.00  0.00    +0.000 A 
ATOM     20  C   UNL     1      47.601   4.150  15.948  0.00  0.00    +0.000 A 
ATOM     21  C   UNL     1      48.315   4.951  16.821  0.00  0.00    +0.000 A 
ATOM     22  C   UNL     1      48.701   6.185  16.367  0.00  0.00    +0.000 A 
ATOM     23  N   UNL     1      48.382   6.661  15.142  0.00  0.00    +0.000 NA
ATOM     24  C   UNL     1      47.656   5.891  14.286  0.00  0.00    +0.000 A 
ENDBRANCH  16  24
ENDBRANCH   1  16
TORSDOF 4
ENDMDL
MODEL 4
REMARK VINA RESULT:    -7.421      1.654      3.526
REMARK INTER + INTRA:          -9.782
REMARK INTER:                  -9.240
REMARK INTRA:                  -0.542
REMARK UNBOUND:                -0.626
REMARK  Name = 
REMARK  5 active torsions:
REMARK  status: ('A' for Active; 'I' for Inactive)
REMARK    1  A    between atoms: C_1  and  C_2
REMARK    2  A    between atoms: C_7  and  N_8
REMARK    3  A    between atoms: N_8  and  C_9
REMARK    4  A    between atoms: C_9  and  C_10
REMARK    5  A    between atoms: C_14  and  C_15
REMARK                            x       y       z     vdW  Elec       q    Type
REMARK                         _______ _______ _______ _____ _____    ______ ____
ROOT
ATOM      1  C   UNL     1      44.142   5.057  11.041  0.00  0.00    +0.000 C 
ATOM      2  C   UNL     1      43.394   3.981  11.851  0.00  0.00    +0.000 C 
ATOM      3  C   UNL     1      42.932   5.386  11.898  0.00  0.00    +0.000 C 
ENDROOT
BRANCH   1   4
ATOM      4  C   UNL     1      45.477   5.530  11.622  0.00  0.00    +0.000 A 
ATOM      5  C   UNL     1      46.180   6.600  11.059  0.00  0.00    +0.000 A 
ATOM      6  C   UNL     1      47.335   7.089  11.660  0.00  0.00    +0.000 A 
ATOM      7  C   UNL     1      47.800   6.523  12.851  0.00  0.00    +0.000 A 
ATOM      8  C   UNL     1      47.123   5.460  13.466  0.00  0.00    +0.000 A 
ATOM      9  C   UNL     1      45.992   4.957  12.803  0.00  0.00    +0.000 A 
BRANCH   8  10
ATOM     10  C   UNL     1      47.493   4.976  14.817  0.00  0.00    +0.000 A 
ATOM     11  C   UNL     1      47.299   3.629  15.169  0.00  0.00    +0.000 A 
ATOM     12  C   UNL     1      47.713   3.126  16.400  0.00  0.00    +0.000 A 
ATOM     13  C   UNL     1      48.341   3.962  17.317  0.00  0.00    +0.000 A 
ATOM     14  C   UNL     1      48.547   5.303  16.999  0.00  0.00    +0.000 A 
ATOM     15  C   UNL     1      48.119   5.807  15.766  0.00  0.00    +0.000 A 
ENDBRANCH   8  10
ENDBRANCH   1   4
BRANCH   1  16
ATOM     16  N   UNL     1      44.248   4.718   9.624  0.00  0.00    +0.000 N 
ATOM     17  H   UNL     1      43.408   4.869   9.068  0.00  0.00    +0.000 HD
BRANCH  16  24
ATOM     18  C   UNL     1      44.270   1.604   9.479  0.00  0.00    +0.000 C 
ATOM     19  C   UNL     1      45.169   2.550   8.759  0.00  0.00    +0.000 A 
ATOM     20  C   UNL     1      46.187   1.985   7.964  0.00  0.00    +0.000 A 
ATOM     21  C   UNL     1      47.038   2.789   7.228  0.00  0.00    +0.000 A 
ATOM     22  C   UNL     1      46.841   4.144   7.298  0.00  0.00    +0.000 A 
ATOM     23  N   UNL     1      45.895   4.719   8.075  0.00  0.00    +0.000 NA
ATOM     24  C   UNL     1      45.070   3.937   8.824  0.00  0.00    +0.000 A 
ENDBRANCH  16  24
ENDBRANCH   1  16
TORSDOF 4
ENDMDL
MODEL 5
REMARK VINA RESULT:    -7.247      1.873      2.564
REMARK INTER + INTRA:          -9.567
REMARK INTER:                  -8.904
REMARK INTRA:                  -0.663
REMARK UNBOUND:                -0.626
REMARK  Name = 
REMARK  5 active torsions:
REMARK  status: ('A' for Active; 'I' for Inactive)
REMARK    1  A    between atoms: C_1  and  C_2
REMARK    2  A    between atoms: C_7  and  N_8
REMARK    3  A    between atoms: N_8  and  C_9
REMARK    4  A    between atoms: C_9  and  C_10
REMARK    5  A    between atoms: C_14  and  C_15
REMARK                            x       y       z     vdW  Elec       q    Type
REMARK                         _______ _______ _______ _____ _____    ______ ____
ROOT
ATOM      1  C   UNL     1      43.746   5.082  10.807  0.00  0.00    +0.000 C 
ATOM      2  C   UNL     1      43.396   3.884  11.709  0.00  0.00    +0.000 C 
ATOM      3  C   UNL     1      42.477   5.042  11.641  0.00  0.00    +0.000 C 
ENDROOT
BRANCH   1   4
ATOM      4  C   UNL     1      44.823   6.032  11.337  0.00  0.00    +0.000 A 
ATOM      5  C   UNL     1      46.125   5.589  11.594  0.00  0.00    +0.000 A 
ATOM      6  C   UNL     1      47.121   6.482  11.972  0.00  0.00    +0.000 A 
ATOM      7  C   UNL     1      46.833   7.847  12.082  0.00  0.00    +0.000 A 
ATOM      8  C   UNL     1      45.550   8.345  11.819  0.00  0.00    +0.000 A 
ATOM      9  C   UNL     1      44.557   7.407  11.493  0.00  0.00    +0.000 A 
BRANCH   8  10
ATOM     10  C   UNL     1      45.277   9.800  11.749  0.00  0.00    +0.000 A 
ATOM     11  C   UNL     1      46.310  10.731  11.954  0.00  0.00    +0.000 A 
ATOM     12  C   UNL     1      46.102  12.100  11.814  0.00  0.00    +0.000 A 
ATOM     13  C   UNL     1      44.846  12.580  11.458  0.00  0.00    +0.000 A 
ATOM     14  C   UNL     1      43.800  11.683  11.249  0.00  0.00    +0.000 A 
ATOM     15  C   UNL     1      44.010  10.309  11.402  0.00  0.00    +0.000 A 
ENDBRANCH   8  10
ENDBRANCH   1   4
BRANCH   1  16
ATOM     16  N   UNL     1      43.994   4.686   9.422  0.00  0.00    +0.000 N 
ATOM     17  H   UNL     1      43.196   4.751   8.793  0.00  0.00    +0.000 HD
BRANCH  16  24
ATOM     18  C   UNL     1      44.157   1.575   9.335  0.00  0.00    +0.000 C 
ATOM     19  C   UNL     1      45.093   2.548   8.705  0.00  0.00    +0.000 A 
ATOM     20  C   UNL     1      46.216   2.016   8.038  0.00  0.00    +0.000 A 
ATOM     21  C   UNL     1      47.112   2.846   7.389  0.00  0.00    +0.000 A 
ATOM     22  C   UNL     1      46.854   4.191   7.412  0.00  0.00    +0.000 A 
ATOM     23  N   UNL     1      45.803   4.737   8.067  0.00  0.00    +0.000 NA
ATOM     24  C   UNL     1      44.931   3.931   8.733  0.00  0.00    +0.000 A 
ENDBRANCH  16  24
ENDBRANCH   1  16
TORSDOF 4
ENDMDL
MODEL 6
REMARK VINA RESULT:    -6.881      3.122      7.400
REMARK INTER + INTRA:          -9.116
REMARK INTER:                  -8.093
REMARK INTRA:                  -1.023
REMARK UNBOUND:                -0.626
REMARK  Name = 
REMARK  5 active torsions:
REMARK  status: ('A' for Active; 'I' for Inactive)
REMARK    1  A    between atoms: C_1  and  C_2
REMARK    2  A    between atoms: C_7  and  N_8
REMARK    3  A    between atoms: N_8  and  C_9
REMARK    4  A    between atoms: C_9  and  C_10
REMARK    5  A    between atoms: C_14  and  C_15
REMARK                            x       y       z     vdW  Elec       q    Type
REMARK                         _______ _______ _______ _____ _____    ______ ____
ROOT
ATOM      1  C   UNL     1      48.892   7.921  12.611  0.00  0.00    +0.000 C 
ATOM      2  C   UNL     1      49.866   7.781  11.425  0.00  0.00    +0.000 C 
ATOM      3  C   UNL     1      49.516   9.127  11.929  0.00  0.00    +0.000 C 
ENDROOT
BRANCH   1   4
ATOM      4  C   UNL     1      47.410   7.711  12.292  0.00  0.00    +0.000 A 
ATOM      5  C   UNL     1      46.471   8.733  12.473  0.00  0.00    +0.000 A 
ATOM      6  C   UNL     1      45.148   8.564  12.079  0.00  0.00    +0.000 A 
ATOM      7  C   UNL     1      44.743   7.369  11.477  0.00  0.00    +0.000 A 
ATOM      8  C   UNL     1      45.647   6.320  11.258  0.00  0.00    +0.000 A 
ATOM      9  C   UNL     1      46.961   6.505  11.717  0.00  0.00    +0.000 A 
BRANCH   8  10
ATOM     10  C   UNL     1      45.280   5.127  10.458  0.00  0.00    +0.000 A 
ATOM     11  C   UNL     1      45.656   5.031   9.108  0.00  0.00    +0.000 A 
ATOM     12  C   UNL     1      45.399   3.889   8.353  0.00  0.00    +0.000 A 
ATOM     13  C   UNL     1      44.755   2.802   8.936  0.00  0.00    +0.000 A 
ATOM     14  C   UNL     1      44.368   2.866  10.273  0.00  0.00    +0.000 A 
ATOM     15  C   UNL     1      44.618   4.020  11.023  0.00  0.00    +0.000 A 
ENDBRANCH   8  10
ENDBRANCH   1   4
BRANCH   1  16
ATOM     16  N   UNL     1      49.318   7.155  13.779  0.00  0.00    +0.000 N 
ATOM     17  H   UNL     1      49.816   6.288  13.584  0.00  0.00    +0.000 HD
BRANCH  16  24
ATOM     18  C   UNL     1      48.993   9.552  15.745  0.00  0.00    +0.000 C 
ATOM     19  C   UNL     1      48.881   8.100  16.062  0.00  0.00    +0.000 A 
ATOM     20  C   UNL     1      48.659   7.755  17.411  0.00  0.00    +0.000 A 
ATOM     21  C   UNL     1      48.499   6.434  17.786  0.00  0.00    +0.000 A 
ATOM     22  C   UNL     1      48.553   5.488  16.795  0.00  0.00    +0.000 A 
ATOM     23  N   UNL     1      48.794   5.782  15.497  0.00  0.00    +0.000 NA
ATOM     24  C   UNL     1      48.981   7.078  15.123  0.00  0.00    +0.000 A 
ENDBRANCH  16  24
ENDBRANCH   1  16
TORSDOF 4
ENDMDL
MODEL 7
REMARK VINA RESULT:    -6.780      3.030      7.180
REMARK INTER + INTRA:          -8.992
REMARK INTER:                  -7.877
REMARK INTRA:                  -1.114
REMARK UNBOUND:                -0.626
REMARK  Name = 
REMARK  5 active torsions:
REMARK  status: ('A' for Active; 'I' for Inactive)
REMARK    1  A    between atoms: C_1  and  C_2
REMARK    2  A    between atoms: C_7  and  N_8
REMARK    3  A    between atoms: N_8  and  C_9
REMARK    4  A    between atoms: C_9  and  C_10
REMARK    5  A    between atoms: C_14  and  C_15
REMARK                            x       y       z     vdW  Elec       q    Type
REMARK                         _______ _______ _______ _____ _____    ______ ____
ROOT
ATOM      1  C   UNL     1      48.458   7.489  13.500  0.00  0.00    +0.000 C 
ATOM      2  C   UNL     1      49.650   7.845  12.592  0.00  0.00    +0.000 C 
ATOM      3  C   UNL     1      49.105   8.863  13.517  0.00  0.00    +0.000 C 
ENDROOT
BRANCH   1   4
ATOM      4  C   UNL     1      47.086   7.442  12.823  0.00  0.00    +0.000 A 
ATOM      5  C   UNL     1      46.261   8.571  12.767  0.00  0.00    +0.000 A 
ATOM      6  C   UNL     1      45.066   8.546  12.057  0.00  0.00    +0.000 A 
ATOM      7  C   UNL     1      44.683   7.389  11.371  0.00  0.00    +0.000 A 
ATOM      8  C   UNL     1      45.480   6.237  11.380  0.00  0.00    +0.000 A 
ATOM      9  C   UNL     1      46.653   6.281  12.153  0.00  0.00    +0.000 A 
BRANCH   8  10
ATOM     10  C   UNL     1      45.183   5.074  10.512  0.00  0.00    +0.000 A 
ATOM     11  C   UNL     1      45.587   5.066   9.166  0.00  0.00    +0.000 A 
ATOM     12  C   UNL     1      45.395   3.956   8.348  0.00  0.00    +0.000 A 
ATOM     13  C   UNL     1      44.793   2.811   8.861  0.00  0.00    +0.000 A 
ATOM     14  C   UNL     1      44.380   2.787  10.191  0.00  0.00    +0.000 A 
ATOM     15  C   UNL     1      44.564   3.909  11.005  0.00  0.00    +0.000 A 
ENDBRANCH   8  10
ENDBRANCH   1   4
BRANCH   1  16
ATOM     16  N   UNL     1      48.711   6.302  14.315  0.00  0.00    +0.000 N 
ATOM     17  H   UNL     1      49.081   5.494  13.818  0.00  0.00    +0.000 HD
BRANCH  16  24
ATOM     18  C   UNL     1      49.092   7.689  17.080  0.00  0.00    +0.000 C 
ATOM     19  C   UNL     1      48.498   6.348  16.814  0.00  0.00    +0.000 A 
ATOM     20  C   UNL     1      48.114   5.586  17.936  0.00  0.00    +0.000 A 
ATOM     21  C   UNL     1      47.514   4.349  17.779  0.00  0.00    +0.000 A 
ATOM     22  C   UNL     1      47.303   3.911  16.497  0.00  0.00    +0.000 A 
ATOM     23  N   UNL     1      47.688   4.603  15.401  0.00  0.00    +0.000 NA
ATOM     24  C   UNL     1      48.304   5.809  15.546  0.00  0.00    +0.000 A 
ENDBRANCH  16  24
ENDBRANCH   1  16
TORSDOF 4
ENDMDL
MODEL 8
REMARK VINA RESULT:    -6.776      3.032      6.899
REMARK INTER + INTRA:          -8.986
REMARK INTER:                  -7.769
REMARK INTRA:                  -1.218
REMARK UNBOUND:                -0.626
REMARK  Name = 
REMARK  5 active torsions:
REMARK  status: ('A' for Active; 'I' for Inactive)
REMARK    1  A    between atoms: C_1  and  C_2
REMARK    2  A    between atoms: C_7  and  N_8
REMARK    3  A    between atoms: N_8  and  C_9
REMARK    4  A    between atoms: C_9  and  C_10
REMARK    5  A    between atoms: C_14  and  C_15
REMARK                            x       y       z     vdW  Elec       q    Type
REMARK                         _______ _______ _______ _____ _____    ______ ____
ROOT
ATOM      1  C   UNL     1      48.360   7.516  13.583  0.00  0.00    +0.000 C 
ATOM      2  C   UNL     1      49.550   8.032  12.751  0.00  0.00    +0.000 C 
ATOM      3  C   UNL     1      48.911   8.923  13.746  0.00  0.00    +0.000 C 
ENDROOT
BRANCH   1   4
ATOM      4  C   UNL     1      47.014   7.444  12.858  0.00  0.00    +0.000 A 
ATOM      5  C   UNL     1      46.159   8.550  12.792  0.00  0.00    +0.000 A 
ATOM      6  C   UNL     1      44.991   8.504  12.040  0.00  0.00    +0.000 A 
ATOM      7  C   UNL     1      44.664   7.350  11.322  0.00  0.00    +0.000 A 
ATOM      8  C   UNL     1      45.493   6.220  11.340  0.00  0.00    +0.000 A 
ATOM      9  C   UNL     1      46.637   6.283  12.153  0.00  0.00    +0.000 A 
BRANCH   8  10
ATOM     10  C   UNL     1      45.259   5.064  10.443  0.00  0.00    +0.000 A 
ATOM     11  C   UNL     1      45.710   5.092   9.112  0.00  0.00    +0.000 A 
ATOM     12  C   UNL     1      45.578   3.991   8.270  0.00  0.00    +0.000 A 
ATOM     13  C   UNL     1      44.991   2.821   8.741  0.00  0.00    +0.000 A 
ATOM     14  C   UNL     1      44.532   2.762  10.056  0.00  0.00    +0.000 A 
ATOM     15  C   UNL     1      44.656   3.875  10.895  0.00  0.00    +0.000 A 
ENDBRANCH   8  10
ENDBRANCH   1   4
BRANCH   1  16
ATOM     16  N   UNL     1      48.669   6.279  14.295  0.00  0.00    +0.000 N 
ATOM     17  H   UNL     1      49.117   5.549  13.743  0.00  0.00    +0.000 HD
BRANCH  16  24
ATOM     18  C   UNL     1      47.015   3.643  14.469  0.00  0.00    +0.000 C 
ATOM     19  C   UNL     1      47.467   4.504  15.598  0.00  0.00    +0.000 A 
ATOM     20  C   UNL     1      47.058   4.127  16.894  0.00  0.00    +0.000 A 
ATOM     21  C   UNL     1      47.468   4.845  18.003  0.00  0.00    +0.000 A 
ATOM     22  C   UNL     1      48.290   5.920  17.787  0.00  0.00    +0.000 A 
ATOM     23  N   UNL     1      48.676   6.327  16.555  0.00  0.00    +0.000 NA
ATOM     24  C   UNL     1      48.255   5.643  15.456  0.00  0.00    +0.000 A 
ENDBRANCH  16  24
ENDBRANCH   1  16
TORSDOF 4
ENDMDL
MODEL 9
REMARK VINA RESULT:    -6.383      5.215      7.973
REMARK INTER + INTRA:          -8.501
REMARK INTER:                  -7.483
REMARK INTRA:                  -1.018
REMARK UNBOUND:                -0.626
REMARK  Name = 
REMARK  5 active torsions:
REMARK  status: ('A' for Active; 'I' for Inactive)
REMARK    1  A    between atoms: C_1  and  C_2
REMARK    2  A    between atoms: C_7  and  N_8
REMARK    3  A    between atoms: N_8  and  C_9
REMARK    4  A    between atoms: C_9  and  C_10
REMARK    5  A    between atoms: C_14  and  C_15
REMARK                            x       y       z     vdW  Elec       q    Type
REMARK                         _______ _______ _______ _____ _____    ______ ____
ROOT
ATOM      1  C   UNL     1      49.172   5.573  17.566  0.00  0.00    +0.000 C 
ATOM      2  C   UNL     1      48.755   6.471  18.747  0.00  0.00    +0.000 C 
ATOM      3  C   UNL     1      47.849   5.393  18.292  0.00  0.00    +0.000 C 
ENDROOT
BRANCH   1   4
ATOM      4  C   UNL     1      49.051   6.195  16.173  0.00  0.00    +0.000 A 
ATOM      5  C   UNL     1      50.043   7.038  15.661  0.00  0.00    +0.000 A 
ATOM      6  C   UNL     1      49.974   7.510  14.355  0.00  0.00    +0.000 A 
ATOM      7  C   UNL     1      48.913   7.128  13.527  0.00  0.00    +0.000 A 
ATOM      8  C   UNL     1      47.903   6.272  13.985  0.00  0.00    +0.000 A 
ATOM      9  C   UNL     1      47.976   5.859  15.325  0.00  0.00    +0.000 A 
BRANCH   8  10
ATOM     10  C   UNL     1      46.880   5.712  13.070  0.00  0.00    +0.000 A 
ATOM     11  C   UNL     1      46.614   6.328  11.836  0.00  0.00    +0.000 A 
ATOM     12  C   UNL     1      45.719   5.780  10.920  0.00  0.00    +0.000 A 
ATOM     13  C   UNL     1      45.065   4.588  11.215  0.00  0.00    +0.000 A 
ATOM     14  C   UNL     1      45.306   3.953  12.432  0.00  0.00    +0.000 A 
ATOM     15  C   UNL     1      46.197   4.513  13.353  0.00  0.00    +0.000 A 
ENDBRANCH   8  10
ENDBRANCH   1   4
BRANCH   1  16
ATOM     16  N   UNL     1      50.472   4.941  17.776  0.00  0.00    +0.000 N 
ATOM     17  H   UNL     1      51.274   5.569  17.788  0.00  0.00    +0.000 HD
BRANCH  16  24
ATOM     18  C   UNL     1      49.010   2.395  16.730  0.00  0.00    +0.000 C 
ATOM     19  C   UNL     1      50.401   2.488  17.257  0.00  0.00    +0.000 A 
ATOM     20  C   UNL     1      51.130   1.285  17.353  0.00  0.00    +0.000 A 
ATOM     21  C   UNL     1      52.442   1.285  17.790  0.00  0.00    +0.000 A 
ATOM     22  C   UNL     1      52.997   2.496  18.111  0.00  0.00    +0.000 A 
ATOM     23  N   UNL     1      52.316   3.664  18.060  0.00  0.00    +0.000 NA
ATOM     24  C   UNL     1      51.016   3.670  17.657  0.00  0.00    +0.000 A 
ENDBRANCH  16  24
ENDBRANCH   1  16
TORSDOF 4
ENDMDL
