MODEL 1
REMARK VINA RESULT:    -8.466      0.000      0.000
REMARK INTER + INTRA:         -12.442
REMARK INTER:                 -11.436
REMARK INTRA:                  -1.006
REMARK UNBOUND:                -1.006
REMARK  Name = 
REMARK  7 active torsions:
REMARK  status: ('A' for Active; 'I' for Inactive)
REMARK    1  A    between atoms: C_1  and  C_2
REMARK    2  A    between atoms: C_6  and  N_7
REMARK    3  A    between atoms: N_7  and  C_8
REMARK    4  A    between atoms: C_8  and  C_9
REMARK    5  A    between atoms: C_12  and  C_13
REMARK    6  A    between atoms: C_13  and  N_14
REMARK    7  A    between atoms: C_15  and  C_17
REMARK                            x       y       z     vdW  Elec       q    Type
REMARK                         _______ _______ _______ _____ _____    ______ ____
ROOT
ATOM      1  C   UNL     1      44.622   5.240  10.796  0.00  0.00    +0.000 A 
ATOM      2  C   UNL     1      44.200   5.606  12.081  0.00  0.00    +0.000 A 
ATOM      3  C   UNL     1      44.971   6.470  12.867  0.00  0.00    +0.000 A 
ATOM      4  C   UNL     1      46.170   7.003  12.374  0.00  0.00    +0.000 A 
ATOM      5  C   UNL     1      46.593   6.635  11.090  0.00  0.00    +0.000 A 
ATOM      6  C   UNL     1      45.822   5.772  10.305  0.00  0.00    +0.000 A 
ENDROOT
BRANCH   1   7
ATOM      7  C   UNL     1      43.809   4.281   9.958  0.00  0.00    +0.000 C 
BRANCH   7   8
ATOM      8  N   UNL     1      44.324   4.198   8.616  0.00  0.00    +0.000 N 
ATOM      9  H   UNL     1      44.072   4.896   7.927  0.00  0.00    +0.000 HD
BRANCH   8  15
ATOM     10  C   UNL     1      47.477   2.857   5.324  0.00  0.00    +0.000 C 
ATOM     11  C   UNL     1      46.705   2.543   6.567  0.00  0.00    +0.000 A 
ATOM     12  C   UNL     1      46.873   1.332   7.225  0.00  0.00    +0.000 A 
ATOM     13  N   UNL     1      46.211   1.023   8.359  0.00  0.00    +0.000 NA
ATOM     14  C   UNL     1      45.371   1.990   8.806  0.00  0.00    +0.000 A 
ATOM     15  C   UNL     1      45.173   3.219   8.170  0.00  0.00    +0.000 A 
ATOM     16  N   UNL     1      45.851   3.495   7.035  0.00  0.00    +0.000 NA
ENDBRANCH   8  15
ENDBRANCH   7   8
ENDBRANCH   1   7
BRANCH   4  17
ATOM     17  C   UNL     1      47.012   7.928  13.215  0.00  0.00    +0.000 C 
BRANCH  17  18
ATOM     18  N   UNL     1      47.425   7.294  14.441  0.00  0.00    +0.000 N 
ATOM     19  C   UNL     1      48.696   6.799  14.592  0.00  0.00    +0.000 C 
ATOM     20  O   UNL     1      49.544   6.911  13.710  0.00  0.00    +0.000 OA
ATOM     21  H   UNL     1      46.692   6.990  15.075  0.00  0.00    +0.000 HD
BRANCH  19  22
ATOM     22  C   UNL     1      49.014   6.181  15.886  0.00  0.00    +0.000 A 
ATOM     23  C   UNL     1      50.036   6.707  16.665  0.00  0.00    +0.000 A 
ATOM     24  S   UNL     1      50.238   5.910  18.158  0.00  0.00    +0.000 S 
ATOM     25  C   UNL     1      49.003   4.798  17.794  0.00  0.00    +0.000 A 
ATOM     26  N   UNL     1      48.677   3.805  18.664  0.00  0.00    +0.000 NA
ATOM     27  C   UNL     1      47.747   3.013  18.245  0.00  0.00    +0.000 A 
ATOM     28  N   UNL     1      47.109   3.127  17.038  0.00  0.00    +0.000 N 
ATOM     29  C   UNL     1      47.382   4.133  16.141  0.00  0.00    +0.000 A 
ATOM     30  O   UNL     1      46.760   4.233  15.090  0.00  0.00    +0.000 OA
ATOM     31  C   UNL     1      48.432   5.043  16.558  0.00  0.00    +0.000 A 
ATOM     32  H   UNL     1      46.382   2.479  16.773  0.00  0.00    +0.000 HD
ENDBRANCH  19  22
ENDBRANCH  17  18
ENDBRANCH   4  17
TORSDOF 6
ENDMDL
MODEL 2
REMARK VINA RESULT:    -7.881      1.712      2.097
REMARK INTER + INTRA:         -11.652
REMARK INTER:                 -10.910
REMARK INTRA:                  -0.742
REMARK UNBOUND:                -1.006
REMARK  Name = 
REMARK  7 active torsions:
REMARK  status: ('A' for Active; 'I' for Inactive)
REMARK    1  A    between atoms: C_1  and  C_2
REMARK    2  A    between atoms: C_6  and  N_7
REMARK    3  A    between atoms: N_7  and  C_8
REMARK    4  A    between atoms: C_8  and  C_9
REMARK    5  A    between atoms: C_12  and  C_13
REMARK    6  A    between atoms: C_13  and  N_14
REMARK    7  A    between atoms: C_15  and  C_17
REMARK                            x       y       z     vdW  Elec       q    Type
REMARK                         _______ _______ _______ _____ _____    ______ ____
ROOT
ATOM      1  C   UNL     1      44.915   5.197  11.475  0.00  0.00    +0.000 A 
ATOM      2  C   UNL     1      45.723   6.199  10.920  0.00  0.00    +0.000 A 
ATOM      3  C   UNL     1      46.839   6.683  11.614  0.00  0.00    +0.000 A 
ATOM      4  C   UNL     1      47.182   6.158  12.867  0.00  0.00    +0.000 A 
ATOM      5  C   UNL     1      46.372   5.158  13.423  0.00  0.00    +0.000 A 
ATOM      6  C   UNL     1      45.258   4.675  12.730  0.00  0.00    +0.000 A 
ENDROOT
BRANCH   1   7
ATOM      7  C   UNL     1      43.692   4.697  10.745  0.00  0.00    +0.000 C 
BRANCH   7   8
ATOM      8  N   UNL     1      43.950   4.550   9.336  0.00  0.00    +0.000 N 
ATOM      9  H   UNL     1      43.536   5.190   8.670  0.00  0.00    +0.000 HD
BRANCH   8  15
ATOM     10  C   UNL     1      47.012   3.390   5.893  0.00  0.00    +0.000 C 
ATOM     11  C   UNL     1      46.240   2.995   7.113  0.00  0.00    +0.000 A 
ATOM     12  C   UNL     1      46.364   1.723   7.656  0.00  0.00    +0.000 A 
ATOM     13  N   UNL     1      45.702   1.338   8.765  0.00  0.00    +0.000 NA
ATOM     14  C   UNL     1      44.907   2.294   9.310  0.00  0.00    +0.000 A 
ATOM     15  C   UNL     1      44.753   3.582   8.791  0.00  0.00    +0.000 A 
ATOM     16  N   UNL     1      45.431   3.934   7.677  0.00  0.00    +0.000 NA
ENDBRANCH   8  15
ENDBRANCH   7   8
ENDBRANCH   1   7
BRANCH   4  17
ATOM     17  C   UNL     1      48.376   6.677  13.625  0.00  0.00    +0.000 C 
BRANCH  17  18
ATOM     18  N   UNL     1      48.100   6.778  15.036  0.00  0.00    +0.000 N 
ATOM     19  C   UNL     1      49.105   6.670  15.965  0.00  0.00    +0.000 C 
ATOM     20  O   UNL     1      50.280   6.526  15.637  0.00  0.00    +0.000 OA
ATOM     21  H   UNL     1      47.135   6.664  15.329  0.00  0.00    +0.000 HD
BRANCH  19  22
ATOM     22  C   UNL     1      48.715   6.797  17.375  0.00  0.00    +0.000 A 
ATOM     23  C   UNL     1      48.254   8.017  17.853  0.00  0.00    +0.000 A 
ATOM     24  S   UNL     1      47.791   7.979  19.493  0.00  0.00    +0.000 S 
ATOM     25  C   UNL     1      48.241   6.346  19.640  0.00  0.00    +0.000 A 
ATOM     26  N   UNL     1      48.121   5.691  20.826  0.00  0.00    +0.000 NA
ATOM     27  C   UNL     1      48.532   4.466  20.803  0.00  0.00    +0.000 A 
ATOM     28  N   UNL     1      49.046   3.836  19.700  0.00  0.00    +0.000 N 
ATOM     29  C   UNL     1      49.156   4.447  18.473  0.00  0.00    +0.000 A 
ATOM     30  O   UNL     1      49.576   3.839  17.496  0.00  0.00    +0.000 OA
ATOM     31  C   UNL     1      48.721   5.831  18.448  0.00  0.00    +0.000 A 
ATOM     32  H   UNL     1      49.343   2.872  19.746  0.00  0.00    +0.000 HD
ENDBRANCH  19  22
ENDBRANCH  17  18
ENDBRANCH   4  17
TORSDOF 6
ENDMDL
MODEL 3
REMARK VINA RESULT:    -7.688      2.193      2.598
REMARK INTER + INTRA:         -11.390
REMARK INTER:                 -10.438
REMARK INTRA:                  -0.953
REMARK UNBOUND:                -1.006
REMARK  Name = 
REMARK  7 active torsions:
REMARK  status: ('A' for Active; 'I' for Inactive)
REMARK    1  A    between atoms: C_1  and  C_2
REMARK    2  A    between atoms: C_6  and  N_7
REMARK    3  A    between atoms: N_7  and  C_8
REMARK    4  A    between atoms: C_8  and  C_9
REMARK    5  A    between atoms: C_12  and  C_13
REMARK    6  A    between atoms: C_13  and  N_14
REMARK    7  A    between atoms: C_15  and  C_17
REMARK                            x       y       z     vdW  Elec       q    Type
REMARK                         _______ _______ _______ _____ _____    ______ ____
ROOT
ATOM      1  C   UNL     1      44.759   5.318  11.502  0.00  0.00    +0.000 A 
ATOM      2  C   UNL     1      45.387   4.530  12.476  0.00  0.00    +0.000 A 
ATOM      3  C   UNL     1      46.465   5.030  13.215  0.00  0.00    +0.000 A 
ATOM      4  C   UNL     1      46.924   6.338  13.010  0.00  0.00    +0.000 A 
ATOM      5  C   UNL     1      46.298   7.126  12.034  0.00  0.00    +0.000 A 
ATOM      6  C   UNL     1      45.220   6.626  11.296  0.00  0.00    +0.000 A 
ENDROOT
BRANCH   1   7
ATOM      7  C   UNL     1      43.617   4.770  10.679  0.00  0.00    +0.000 C 
BRANCH   7   8
ATOM      8  N   UNL     1      43.988   4.646   9.293  0.00  0.00    +0.000 N 
ATOM      9  H   UNL     1      43.682   5.335   8.618  0.00  0.00    +0.000 HD
BRANCH   8  15
ATOM     10  C   UNL     1      47.051   3.287   5.925  0.00  0.00    +0.000 C 
ATOM     11  C   UNL     1      46.249   2.952   7.143  0.00  0.00    +0.000 A 
ATOM     12  C   UNL     1      46.320   1.691   7.720  0.00  0.00    +0.000 A 
ATOM     13  N   UNL     1      45.630   1.360   8.830  0.00  0.00    +0.000 NA
ATOM     14  C   UNL     1      44.863   2.357   9.339  0.00  0.00    +0.000 A 
ATOM     15  C   UNL     1      44.763   3.635   8.785  0.00  0.00    +0.000 A 
ATOM     16  N   UNL     1      45.467   3.933   7.671  0.00  0.00    +0.000 NA
ENDBRANCH   8  15
ENDBRANCH   7   8
ENDBRANCH   1   7
BRANCH   4  17
ATOM     17  C   UNL     1      48.089   6.884  13.795  0.00  0.00    +0.000 C 
BRANCH  17  18
ATOM     18  N   UNL     1      47.960   6.589  15.199  0.00  0.00    +0.000 N 
ATOM     19  C   UNL     1      49.066   6.386  15.986  0.00  0.00    +0.000 C 
ATOM     20  O   UNL     1      50.207   6.487  15.541  0.00  0.00    +0.000 OA
ATOM     21  H   UNL     1      47.051   6.279  15.526  0.00  0.00    +0.000 HD
BRANCH  19  22
ATOM     22  C   UNL     1      48.822   6.102  17.406  0.00  0.00    +0.000 A 
ATOM     23  C   UNL     1      49.074   4.831  17.906  0.00  0.00    +0.000 A 
ATOM     24  S   UNL     1      48.792   4.686  19.581  0.00  0.00    +0.000 S 
ATOM     25  C   UNL     1      48.269   6.301  19.689  0.00  0.00    +0.000 A 
ATOM     26  N   UNL     1      47.851   6.823  20.873  0.00  0.00    +0.000 NA
ATOM     27  C   UNL     1      47.450   8.049  20.803  0.00  0.00    +0.000 A 
ATOM     28  N   UNL     1      47.435   8.802  19.659  0.00  0.00    +0.000 N 
ATOM     29  C   UNL     1      47.879   8.327  18.446  0.00  0.00    +0.000 A 
ATOM     30  O   UNL     1      47.896   9.044  17.452  0.00  0.00    +0.000 OA
ATOM     31  C   UNL     1      48.327   6.948  18.467  0.00  0.00    +0.000 A 
ATOM     32  H   UNL     1      47.116   9.760  19.673  0.00  0.00    +0.000 HD
ENDBRANCH  19  22
ENDBRANCH  17  18
ENDBRANCH   4  17
TORSDOF 6
ENDMDL
MODEL 4
REMARK VINA RESULT:    -7.365      4.604      9.425
REMARK INTER + INTRA:         -10.955
REMARK INTER:                 -10.236
REMARK INTRA:                  -0.719
REMARK UNBOUND:                -1.006
REMARK  Name = 
REMARK  7 active torsions:
REMARK  status: ('A' for Active; 'I' for Inactive)
REMARK    1  A    between atoms: C_1  and  C_2
REMARK    2  A    between atoms: C_6  and  N_7
REMARK    3  A    between atoms: N_7  and  C_8
REMARK    4  A    between atoms: C_8  and  C_9
REMARK    5  A    between atoms: C_12  and  C_13
REMARK    6  A    between atoms: C_13  and  N_14
REMARK    7  A    between atoms: C_15  and  C_17
REMARK                            x       y       z     vdW  Elec       q    Type
REMARK                         _______ _______ _______ _____ _____    ______ ____
ROOT
ATOM      1  C   UNL     1      51.473   2.971  17.709  0.00  0.00    +0.000 A 
ATOM      2  C   UNL     1      50.694   1.931  17.184  0.00  0.00    +0.000 A 
ATOM      3  C   UNL     1      49.323   2.105  16.967  0.00  0.00    +0.000 A 
ATOM      4  C   UNL     1      48.706   3.332  17.251  0.00  0.00    +0.000 A 
ATOM      5  C   UNL     1      49.485   4.371  17.777  0.00  0.00    +0.000 A 
ATOM      6  C   UNL     1      50.856   4.197  17.994  0.00  0.00    +0.000 A 
ENDROOT
BRANCH   1   7
ATOM      7  C   UNL     1      52.947   2.776  17.975  0.00  0.00    +0.000 C 
BRANCH   7   8
ATOM      8  N   UNL     1      53.190   1.545  18.682  0.00  0.00    +0.000 N 
ATOM      9  H   UNL     1      52.892   1.440  19.643  0.00  0.00    +0.000 HD
BRANCH   8  15
ATOM     10  C   UNL     1      54.592  -2.951  19.308  0.00  0.00    +0.000 C 
ATOM     11  C   UNL     1      54.509  -1.742  18.431  0.00  0.00    +0.000 A 
ATOM     12  C   UNL     1      55.014  -1.761  17.137  0.00  0.00    +0.000 A 
ATOM     13  N   UNL     1      54.937  -0.699  16.311  0.00  0.00    +0.000 NA
ATOM     14  C   UNL     1      54.324   0.389  16.842  0.00  0.00    +0.000 A 
ATOM     15  C   UNL     1      53.807   0.448  18.139  0.00  0.00    +0.000 A 
ATOM     16  N   UNL     1      53.903  -0.634  18.942  0.00  0.00    +0.000 NA
ENDBRANCH   8  15
ENDBRANCH   7   8
ENDBRANCH   1   7
BRANCH   4  17
ATOM     17  C   UNL     1      47.228   3.527  17.028  0.00  0.00    +0.000 C 
BRANCH  17  18
ATOM     18  N   UNL     1      46.976   4.525  16.021  0.00  0.00    +0.000 N 
ATOM     19  C   UNL     1      47.067   4.225  14.684  0.00  0.00    +0.000 C 
ATOM     20  O   UNL     1      47.324   3.089  14.291  0.00  0.00    +0.000 OA
ATOM     21  H   UNL     1      46.993   5.496  16.316  0.00  0.00    +0.000 HD
BRANCH  19  22
ATOM     22  C   UNL     1      46.779   5.314  13.743  0.00  0.00    +0.000 A 
ATOM     23  C   UNL     1      47.736   6.294  13.513  0.00  0.00    +0.000 A 
ATOM     24  S   UNL     1      47.266   7.450  12.352  0.00  0.00    +0.000 S 
ATOM     25  C   UNL     1      45.745   6.716  12.155  0.00  0.00    +0.000 A 
ATOM     26  N   UNL     1      44.823   7.236  11.301  0.00  0.00    +0.000 NA
ATOM     27  C   UNL     1      43.700   6.598  11.276  0.00  0.00    +0.000 A 
ATOM     28  N   UNL     1      43.417   5.484  12.023  0.00  0.00    +0.000 N 
ATOM     29  C   UNL     1      44.330   4.905  12.874  0.00  0.00    +0.000 A 
ATOM     30  O   UNL     1      44.060   3.881  13.491  0.00  0.00    +0.000 OA
ATOM     31  C   UNL     1      45.604   5.593  12.950  0.00  0.00    +0.000 A 
ATOM     32  H   UNL     1      42.521   5.026  11.951  0.00  0.00    +0.000 HD
ENDBRANCH  19  22
ENDBRANCH  17  18
ENDBRANCH   4  17
TORSDOF 6
ENDMDL
MODEL 5
REMARK VINA RESULT:    -7.072      4.601      9.428
REMARK INTER + INTRA:         -10.559
REMARK INTER:                  -9.530
REMARK INTRA:                  -1.028
REMARK UNBOUND:                -1.006
REMARK  Name = 
REMARK  7 active torsions:
REMARK  status: ('A' for Active; 'I' for Inactive)
REMARK    1  A    between atoms: C_1  and  C_2
REMARK    2  A    between atoms: C_6  and  N_7
REMARK    3  A    between atoms: N_7  and  C_8
REMARK    4  A    between atoms: C_8  and  C_9
REMARK    5  A    between atoms: C_12  and  C_13
REMARK    6  A    between atoms: C_13  and  N_14
REMARK    7  A    between atoms: C_15  and  C_17
REMARK                            x       y       z     vdW  Elec       q    Type
REMARK                         _______ _______ _______ _____ _____    ______ ____
ROOT
ATOM      1  C   UNL     1      51.505   2.927  17.689  0.00  0.00    +0.000 A 
ATOM      2  C   UNL     1      50.686   1.908  17.183  0.00  0.00    +0.000 A 
ATOM      3  C   UNL     1      49.326   2.138  16.946  0.00  0.00    +0.000 A 
ATOM      4  C   UNL     1      48.762   3.398  17.188  0.00  0.00    +0.000 A 
ATOM      5  C   UNL     1      49.581   4.415  17.696  0.00  0.00    +0.000 A 
ATOM      6  C   UNL     1      50.940   4.186  17.933  0.00  0.00    +0.000 A 
ENDROOT
BRANCH   1   7
ATOM      7  C   UNL     1      52.966   2.673  17.978  0.00  0.00    +0.000 C 
BRANCH   7   8
ATOM      8  N   UNL     1      53.148   1.435  18.691  0.00  0.00    +0.000 N 
ATOM      9  H   UNL     1      52.818   1.340  19.643  0.00  0.00    +0.000 HD
BRANCH   8  15
ATOM     10  C   UNL     1      54.486  -3.068  19.398  0.00  0.00    +0.000 C 
ATOM     11  C   UNL     1      54.417  -1.875  18.498  0.00  0.00    +0.000 A 
ATOM     12  C   UNL     1      54.917  -1.927  17.204  0.00  0.00    +0.000 A 
ATOM     13  N   UNL     1      54.853  -0.879  16.358  0.00  0.00    +0.000 NA
ATOM     14  C   UNL     1      54.258   0.228  16.870  0.00  0.00    +0.000 A 
ATOM     15  C   UNL     1      53.747   0.319  18.167  0.00  0.00    +0.000 A 
ATOM     16  N   UNL     1      53.829  -0.749  18.990  0.00  0.00    +0.000 NA
ENDBRANCH   8  15
ENDBRANCH   7   8
ENDBRANCH   1   7
BRANCH   4  17
ATOM     17  C   UNL     1      47.297   3.653  16.943  0.00  0.00    +0.000 C 
BRANCH  17  18
ATOM     18  N   UNL     1      47.101   4.646  15.918  0.00  0.00    +0.000 N 
ATOM     19  C   UNL     1      47.121   4.307  14.588  0.00  0.00    +0.000 C 
ATOM     20  O   UNL     1      47.264   3.144  14.217  0.00  0.00    +0.000 OA
ATOM     21  H   UNL     1      47.213   5.618  16.187  0.00  0.00    +0.000 HD
BRANCH  19  22
ATOM     22  C   UNL     1      46.900   5.395  13.627  0.00  0.00    +0.000 A 
ATOM     23  C   UNL     1      45.812   5.341  12.765  0.00  0.00    +0.000 A 
ATOM     24  S   UNL     1      45.670   6.707  11.756  0.00  0.00    +0.000 S 
ATOM     25  C   UNL     1      47.089   7.395  12.393  0.00  0.00    +0.000 A 
ATOM     26  N   UNL     1      47.556   8.586  11.933  0.00  0.00    +0.000 NA
ATOM     27  C   UNL     1      48.660   8.973  12.481  0.00  0.00    +0.000 A 
ATOM     28  N   UNL     1      49.336   8.280  13.451  0.00  0.00    +0.000 N 
ATOM     29  C   UNL     1      48.884   7.089  13.970  0.00  0.00    +0.000 A 
ATOM     30  O   UNL     1      49.489   6.519  14.870  0.00  0.00    +0.000 OA
ATOM     31  C   UNL     1      47.653   6.602  13.377  0.00  0.00    +0.000 A 
ATOM     32  H   UNL     1      50.191   8.642  13.845  0.00  0.00    +0.000 HD
ENDBRANCH  19  22
ENDBRANCH  17  18
ENDBRANCH   4  17
TORSDOF 6
ENDMDL
MODEL 6
REMARK VINA RESULT:    -6.958      4.059      6.654
REMARK INTER + INTRA:         -10.405
REMARK INTER:                  -9.402
REMARK INTRA:                  -1.002
REMARK UNBOUND:                -1.006
REMARK  Name = 
REMARK  7 active torsions:
REMARK  status: ('A' for Active; 'I' for Inactive)
REMARK    1  A    between atoms: C_1  and  C_2
REMARK    2  A    between atoms: C_6  and  N_7
REMARK    3  A    between atoms: N_7  and  C_8
REMARK    4  A    between atoms: C_8  and  C_9
REMARK    5  A    between atoms: C_12  and  C_13
REMARK    6  A    between atoms: C_13  and  N_14
REMARK    7  A    between atoms: C_15  and  C_17
REMARK                            x       y       z     vdW  Elec       q    Type
REMARK                         _______ _______ _______ _____ _____    ______ ____
ROOT
ATOM      1  C   UNL     1      44.711   8.979  11.604  0.00  0.00    +0.000 A 
ATOM      2  C   UNL     1      45.721   8.882  12.571  0.00  0.00    +0.000 A 
ATOM      3  C   UNL     1      46.109   7.636  13.077  0.00  0.00    +0.000 A 
ATOM      4  C   UNL     1      45.509   6.459  12.609  0.00  0.00    +0.000 A 
ATOM      5  C   UNL     1      44.497   6.556  11.645  0.00  0.00    +0.000 A 
ATOM      6  C   UNL     1      44.110   7.801  11.139  0.00  0.00    +0.000 A 
ENDROOT
BRANCH   1   7
ATOM      7  C   UNL     1      44.267  10.324  11.081  0.00  0.00    +0.000 C 
BRANCH   7   8
ATOM      8  N   UNL     1      43.325  10.946  11.976  0.00  0.00    +0.000 N 
ATOM      9  H   UNL     1      43.647  11.405  12.818  0.00  0.00    +0.000 HD
BRANCH   8  15
ATOM     10  C   UNL     1      39.083  12.276  13.652  0.00  0.00    +0.000 C 
ATOM     11  C   UNL     1      39.891  11.613  12.581  0.00  0.00    +0.000 A 
ATOM     12  C   UNL     1      39.282  11.091  11.447  0.00  0.00    +0.000 A 
ATOM     13  N   UNL     1      39.980  10.506  10.452  0.00  0.00    +0.000 NA
ATOM     14  C   UNL     1      41.322  10.471  10.646  0.00  0.00    +0.000 A 
ATOM     15  C   UNL     1      41.970  10.981  11.773  0.00  0.00    +0.000 A 
ATOM     16  N   UNL     1      41.241  11.559  12.753  0.00  0.00    +0.000 NA
ENDBRANCH   8  15
ENDBRANCH   7   8
ENDBRANCH   1   7
BRANCH   4  17
ATOM     17  C   UNL     1      45.914   5.113  13.153  0.00  0.00    +0.000 C 
BRANCH  17  18
ATOM     18  N   UNL     1      46.545   5.235  14.442  0.00  0.00    +0.000 N 
ATOM     19  C   UNL     1      47.245   4.191  14.992  0.00  0.00    +0.000 C 
ATOM     20  O   UNL     1      47.399   3.128  14.396  0.00  0.00    +0.000 OA
ATOM     21  H   UNL     1      46.241   6.000  15.036  0.00  0.00    +0.000 HD
BRANCH  19  22
ATOM     22  C   UNL     1      47.857   4.427  16.306  0.00  0.00    +0.000 A 
ATOM     23  C   UNL     1      47.498   3.629  17.385  0.00  0.00    +0.000 A 
ATOM     24  S   UNL     1      48.341   3.998  18.820  0.00  0.00    +0.000 S 
ATOM     25  C   UNL     1      49.177   5.273  18.067  0.00  0.00    +0.000 A 
ATOM     26  N   UNL     1      50.062   6.037  18.762  0.00  0.00    +0.000 NA
ATOM     27  C   UNL     1      50.598   6.991  18.076  0.00  0.00    +0.000 A 
ATOM     28  N   UNL     1      50.334   7.247  16.756  0.00  0.00    +0.000 N 
ATOM     29  C   UNL     1      49.472   6.482  16.004  0.00  0.00    +0.000 A 
ATOM     30  O   UNL     1      49.295   6.710  14.813  0.00  0.00    +0.000 OA
ATOM     31  C   UNL     1      48.831   5.404  16.733  0.00  0.00    +0.000 A 
ATOM     32  H   UNL     1      50.794   8.004  16.273  0.00  0.00    +0.000 HD
ENDBRANCH  19  22
ENDBRANCH  17  18
ENDBRANCH   4  17
TORSDOF 6
ENDMDL
MODEL 7
REMARK VINA RESULT:    -6.873      4.049      6.074
REMARK INTER + INTRA:         -10.289
REMARK INTER:                  -9.602
REMARK INTRA:                  -0.687
REMARK UNBOUND:                -1.006
REMARK  Name = 
REMARK  7 active torsions:
REMARK  status: ('A' for Active; 'I' for Inactive)
REMARK    1  A    between atoms: C_1  and  C_2
REMARK    2  A    between atoms: C_6  and  N_7
REMARK    3  A    between atoms: N_7  and  C_8
REMARK    4  A    between atoms: C_8  and  C_9
REMARK    5  A    between atoms: C_12  and  C_13
REMARK    6  A    between atoms: C_13  and  N_14
REMARK    7  A    between atoms: C_15  and  C_17
REMARK                            x       y       z     vdW  Elec       q    Type
REMARK                         _______ _______ _______ _____ _____    ______ ____
ROOT
ATOM      1  C   UNL     1      45.032   7.771  11.938  0.00  0.00    +0.000 A 
ATOM      2  C   UNL     1      46.335   7.704  12.449  0.00  0.00    +0.000 A 
ATOM      3  C   UNL     1      46.768   6.575  13.155  0.00  0.00    +0.000 A 
ATOM      4  C   UNL     1      45.912   5.482  13.346  0.00  0.00    +0.000 A 
ATOM      5  C   UNL     1      44.608   5.551  12.836  0.00  0.00    +0.000 A 
ATOM      6  C   UNL     1      44.176   6.678  12.130  0.00  0.00    +0.000 A 
ENDROOT
BRANCH   1   7
ATOM      7  C   UNL     1      44.551   9.001  11.204  0.00  0.00    +0.000 C 
BRANCH   7   8
ATOM      8  N   UNL     1      43.216   8.815  10.698  0.00  0.00    +0.000 N 
ATOM      9  H   UNL     1      42.858   7.884  10.527  0.00  0.00    +0.000 HD
BRANCH   8  15
ATOM     10  C   UNL     1      38.983  10.778  11.595  0.00  0.00    +0.000 C 
ATOM     11  C   UNL     1      40.275  10.800  10.842  0.00  0.00    +0.000 A 
ATOM     12  C   UNL     1      40.559  11.818   9.941  0.00  0.00    +0.000 A 
ATOM     13  N   UNL     1      41.721  11.883   9.260  0.00  0.00    +0.000 NA
ATOM     14  C   UNL     1      42.592  10.877   9.528  0.00  0.00    +0.000 A 
ATOM     15  C   UNL     1      42.341   9.835  10.425  0.00  0.00    +0.000 A 
ATOM     16  N   UNL     1      41.165   9.799  11.089  0.00  0.00    +0.000 NA
ENDBRANCH   8  15
ENDBRANCH   7   8
ENDBRANCH   1   7
BRANCH   4  17
ATOM     17  C   UNL     1      46.365   4.266  14.112  0.00  0.00    +0.000 C 
BRANCH  17  18
ATOM     18  N   UNL     1      47.448   4.583  15.008  0.00  0.00    +0.000 N 
ATOM     19  C   UNL     1      47.455   4.124  16.302  0.00  0.00    +0.000 C 
ATOM     20  O   UNL     1      46.568   3.395  16.737  0.00  0.00    +0.000 OA
ATOM     21  H   UNL     1      48.054   5.354  14.748  0.00  0.00    +0.000 HD
BRANCH  19  22
ATOM     22  C   UNL     1      48.611   4.498  17.127  0.00  0.00    +0.000 A 
ATOM     23  C   UNL     1      48.646   5.745  17.737  0.00  0.00    +0.000 A 
ATOM     24  S   UNL     1      50.028   5.997  18.702  0.00  0.00    +0.000 S 
ATOM     25  C   UNL     1      50.658   4.471  18.295  0.00  0.00    +0.000 A 
ATOM     26  N   UNL     1      51.861   4.059  18.779  0.00  0.00    +0.000 NA
ATOM     27  C   UNL     1      52.233   2.894  18.362  0.00  0.00    +0.000 A 
ATOM     28  N   UNL     1      51.509   2.102  17.510  0.00  0.00    +0.000 N 
ATOM     29  C   UNL     1      50.275   2.462  17.022  0.00  0.00    +0.000 A 
ATOM     30  O   UNL     1      49.633   1.708  16.300  0.00  0.00    +0.000 OA
ATOM     31  C   UNL     1      49.817   3.770  17.449  0.00  0.00    +0.000 A 
ATOM     32  H   UNL     1      51.853   1.196  17.228  0.00  0.00    +0.000 HD
ENDBRANCH  19  22
ENDBRANCH  17  18
ENDBRANCH   4  17
TORSDOF 6
ENDMDL
MODEL 8
REMARK VINA RESULT:    -6.734      1.771      2.112
REMARK INTER + INTRA:         -10.102
REMARK INTER:                  -9.230
REMARK INTRA:                  -0.872
REMARK UNBOUND:                -1.006
REMARK  Name = 
REMARK  7 active torsions:
REMARK  status: ('A' for Active; 'I' for Inactive)
REMARK    1  A    between atoms: C_1  and  C_2
REMARK    2  A    between atoms: C_6  and  N_7
REMARK    3  A    between atoms: N_7  and  C_8
REMARK    4  A    between atoms: C_8  and  C_9
REMARK    5  A    between atoms: C_12  and  C_13
REMARK    6  A    between atoms: C_13  and  N_14
REMARK    7  A    between atoms: C_15  and  C_17
REMARK                            x       y       z     vdW  Elec       q    Type
REMARK                         _______ _______ _______ _____ _____    ______ ____
ROOT
ATOM      1  C   UNL     1      45.485   6.434  11.884  0.00  0.00    +0.000 A 
ATOM      2  C   UNL     1      45.374   7.815  12.094  0.00  0.00    +0.000 A 
ATOM      3  C   UNL     1      46.281   8.487  12.922  0.00  0.00    +0.000 A 
ATOM      4  C   UNL     1      47.331   7.794  13.540  0.00  0.00    +0.000 A 
ATOM      5  C   UNL     1      47.441   6.413  13.332  0.00  0.00    +0.000 A 
ATOM      6  C   UNL     1      46.535   5.741  12.504  0.00  0.00    +0.000 A 
ENDROOT
BRANCH   1   7
ATOM      7  C   UNL     1      44.489   5.699  11.018  0.00  0.00    +0.000 C 
BRANCH   7   8
ATOM      8  N   UNL     1      44.993   5.525   9.680  0.00  0.00    +0.000 N 
ATOM      9  H   UNL     1      45.154   6.328   9.085  0.00  0.00    +0.000 HD
BRANCH   8  15
ATOM     10  C   UNL     1      46.960   3.212   6.025  0.00  0.00    +0.000 C 
ATOM     11  C   UNL     1      46.242   3.168   7.338  0.00  0.00    +0.000 A 
ATOM     12  C   UNL     1      45.935   1.956   7.942  0.00  0.00    +0.000 A 
ATOM     13  N   UNL     1      45.309   1.877   9.134  0.00  0.00    +0.000 NA
ATOM     14  C   UNL     1      45.007   3.074   9.696  0.00  0.00    +0.000 A 
ATOM     15  C   UNL     1      45.297   4.312   9.118  0.00  0.00    +0.000 A 
ATOM     16  N   UNL     1      45.923   4.356   7.922  0.00  0.00    +0.000 NA
ENDBRANCH   8  15
ENDBRANCH   7   8
ENDBRANCH   1   7
BRANCH   4  17
ATOM     17  C   UNL     1      48.307   8.507  14.440  0.00  0.00    +0.000 C 
BRANCH  17  18
ATOM     18  N   UNL     1      49.295   7.600  14.966  0.00  0.00    +0.000 N 
ATOM     19  C   UNL     1      49.309   7.259  16.296  0.00  0.00    +0.000 C 
ATOM     20  O   UNL     1      48.461   7.677  17.081  0.00  0.00    +0.000 OA
ATOM     21  H   UNL     1      50.120   7.434  14.400  0.00  0.00    +0.000 HD
BRANCH  19  22
ATOM     22  C   UNL     1      50.352   6.319  16.725  0.00  0.00    +0.000 A 
ATOM     23  C   UNL     1      51.661   6.762  16.865  0.00  0.00    +0.000 A 
ATOM     24  S   UNL     1      52.733   5.561  17.424  0.00  0.00    +0.000 S 
ATOM     25  C   UNL     1      51.500   4.390  17.444  0.00  0.00    +0.000 A 
ATOM     26  N   UNL     1      51.760   3.107  17.812  0.00  0.00    +0.000 NA
ATOM     27  C   UNL     1      50.739   2.317  17.749  0.00  0.00    +0.000 A 
ATOM     28  N   UNL     1      49.482   2.695  17.357  0.00  0.00    +0.000 N 
ATOM     29  C   UNL     1      49.165   3.988  17.009  0.00  0.00    +0.000 A 
ATOM     30  O   UNL     1      48.019   4.301  16.709  0.00  0.00    +0.000 OA
ATOM     31  C   UNL     1      50.282   4.913  17.049  0.00  0.00    +0.000 A 
ATOM     32  H   UNL     1      48.724   2.030  17.338  0.00  0.00    +0.000 HD
ENDBRANCH  19  22
ENDBRANCH  17  18
ENDBRANCH   4  17
TORSDOF 6
ENDMDL
MODEL 9
REMARK VINA RESULT:    -6.718      2.639      3.591
REMARK INTER + INTRA:         -10.081
REMARK INTER:                  -9.396
REMARK INTRA:                  -0.685
REMARK UNBOUND:                -1.006
REMARK  Name = 
REMARK  7 active torsions:
REMARK  status: ('A' for Active; 'I' for Inactive)
REMARK    1  A    between atoms: C_1  and  C_2
REMARK    2  A    between atoms: C_6  and  N_7
REMARK    3  A    between atoms: N_7  and  C_8
REMARK    4  A    between atoms: C_8  and  C_9
REMARK    5  A    between atoms: C_12  and  C_13
REMARK    6  A    between atoms: C_13  and  N_14
REMARK    7  A    between atoms: C_15  and  C_17
REMARK                            x       y       z     vdW  Elec       q    Type
REMARK                         _______ _______ _______ _____ _____    ______ ____
ROOT
ATOM      1  C   UNL     1      45.230   7.711  11.759  0.00  0.00    +0.000 A 
ATOM      2  C   UNL     1      45.486   8.536  12.863  0.00  0.00    +0.000 A 
ATOM      3  C   UNL     1      46.659   8.383  13.611  0.00  0.00    +0.000 A 
ATOM      4  C   UNL     1      47.610   7.416  13.258  0.00  0.00    +0.000 A 
ATOM      5  C   UNL     1      47.352   6.590  12.156  0.00  0.00    +0.000 A 
ATOM      6  C   UNL     1      46.180   6.743  11.408  0.00  0.00    +0.000 A 
ENDROOT
BRANCH   1   7
ATOM      7  C   UNL     1      43.950   7.851  10.969  0.00  0.00    +0.000 C 
BRANCH   7   8
ATOM      8  N   UNL     1      42.966   6.890  11.398  0.00  0.00    +0.000 N 
ATOM      9  H   UNL     1      42.000   7.166  11.517  0.00  0.00    +0.000 HD
BRANCH   8  15
ATOM     10  C   UNL     1      44.286   2.670   9.661  0.00  0.00    +0.000 C 
ATOM     11  C   UNL     1      43.865   3.503  10.830  0.00  0.00    +0.000 A 
ATOM     12  C   UNL     1      43.779   2.955  12.103  0.00  0.00    +0.000 A 
ATOM     13  N   UNL     1      43.424   3.679  13.184  0.00  0.00    +0.000 NA
ATOM     14  C   UNL     1      43.161   4.986  12.929  0.00  0.00    +0.000 A 
ATOM     15  C   UNL     1      43.233   5.572  11.663  0.00  0.00    +0.000 A 
ATOM     16  N   UNL     1      43.590   4.817  10.601  0.00  0.00    +0.000 NA
ENDBRANCH   8  15
ENDBRANCH   7   8
ENDBRANCH   1   7
BRANCH   4  17
ATOM     17  C   UNL     1      48.872   7.239  14.062  0.00  0.00    +0.000 C 
BRANCH  17  18
ATOM     18  N   UNL     1      48.579   6.976  15.448  0.00  0.00    +0.000 N 
ATOM     19  C   UNL     1      49.077   7.779  16.444  0.00  0.00    +0.000 C 
ATOM     20  O   UNL     1      49.756   8.773  16.197  0.00  0.00    +0.000 OA
ATOM     21  H   UNL     1      48.226   6.053  15.680  0.00  0.00    +0.000 HD
BRANCH  19  22
ATOM     22  C   UNL     1      48.708   7.427  17.821  0.00  0.00    +0.000 A 
ATOM     23  C   UNL     1      48.147   8.390  18.650  0.00  0.00    +0.000 A 
ATOM     24  S   UNL     1      47.726   7.804  20.193  0.00  0.00    +0.000 S 
ATOM     25  C   UNL     1      48.329   6.255  19.831  0.00  0.00    +0.000 A 
ATOM     26  N   UNL     1      48.297   5.258  20.755  0.00  0.00    +0.000 NA
ATOM     27  C   UNL     1      48.819   4.145  20.357  0.00  0.00    +0.000 A 
ATOM     28  N   UNL     1      49.365   3.937  19.117  0.00  0.00    +0.000 N 
ATOM     29  C   UNL     1      49.390   4.906  18.141  0.00  0.00    +0.000 A 
ATOM     30  O   UNL     1      49.843   4.671  17.027  0.00  0.00    +0.000 OA
ATOM     31  C   UNL     1      48.828   6.181  18.542  0.00  0.00    +0.000 A 
ATOM     32  H   UNL     1      49.750   3.040  18.865  0.00  0.00    +0.000 HD
ENDBRANCH  19  22
ENDBRANCH  17  18
ENDBRANCH   4  17
TORSDOF 6
ENDMDL
