MODEL 1
REMARK VINA RESULT:    -6.894      0.000      0.000
REMARK INTER + INTRA:         -10.622
REMARK INTER:                  -9.312
REMARK INTRA:                  -1.310
REMARK UNBOUND:                -1.310
REMARK  Name = 
REMARK  7 active torsions:
REMARK  status: ('A' for Active; 'I' for Inactive)
REMARK    1  A    between atoms: C_1  and  C_2
REMARK    2  A    between atoms: C_2  and  C_3
REMARK    3  A    between atoms: C_3  and  N_4
REMARK    4  A    between atoms: C_3  and  C_17
REMARK    5  A    between atoms: C_5  and  C_7
REMARK    6  A    between atoms: C_20  and  C_21
REMARK    7  A    between atoms: C_21  and  N_22
REMARK                            x       y       z     vdW  Elec       q    Type
REMARK                         _______ _______ _______ _____ _____    ______ ____
ROOT
ATOM      1  C   UNL     1      49.325   6.590  17.613  0.00  0.00    +0.000 C 
ENDROOT
BRANCH   1   2
ATOM      2  C   UNL     1      48.655   6.097  16.333  0.00  0.00    +0.000 A 
ATOM      3  C   UNL     1      48.829   6.802  15.133  0.00  0.00    +0.000 A 
ATOM      4  C   UNL     1      48.113   6.450  13.981  0.00  0.00    +0.000 A 
ATOM      5  C   UNL     1      47.197   5.390  13.999  0.00  0.00    +0.000 A 
ATOM      6  C   UNL     1      47.099   4.621  15.168  0.00  0.00    +0.000 A 
ATOM      7  C   UNL     1      47.821   4.967  16.319  0.00  0.00    +0.000 A 
BRANCH   5   8
ATOM      8  C   UNL     1      46.216   5.203  12.860  0.00  0.00    +0.000 C 
BRANCH   8   9
ATOM      9  N   UNL     1      45.098   4.284  13.006  0.00  0.00    +0.000 NA
ATOM     10  C   UNL     1      45.118   3.076  12.187  0.00  0.00    +0.000 C 
ATOM     11  C   UNL     1      44.183   3.096  10.960  0.00  0.00    +0.000 C 
ATOM     12  N   UNL     1      42.809   3.520  11.282  0.00  0.00    +0.000 NA
ATOM     13  C   UNL     1      42.870   4.846  11.923  0.00  0.00    +0.000 C 
ATOM     14  C   UNL     1      43.772   4.874  13.175  0.00  0.00    +0.000 C 
ATOM     15  H   UNL     1      42.433   2.862  11.967  0.00  0.00    +0.000 HD
ENDBRANCH   8   9
ENDBRANCH   5   8
ENDBRANCH   1   2
BRANCH   1  16
ATOM     16  N   UNL     1      50.320   5.616  18.041  0.00  0.00    +0.000 N 
ATOM     17  C   UNL     1      51.560   5.510  17.463  0.00  0.00    +0.000 C 
ATOM     18  O   UNL     1      51.967   6.286  16.605  0.00  0.00    +0.000 OA
ATOM     19  H   UNL     1      49.953   4.800  18.522  0.00  0.00    +0.000 HD
BRANCH  17  20
ATOM     20  C   UNL     1      52.419   4.431  17.964  0.00  0.00    +0.000 A 
ATOM     21  C   UNL     1      53.621   4.734  18.590  0.00  0.00    +0.000 A 
ATOM     22  S   UNL     1      54.497   3.355  19.083  0.00  0.00    +0.000 S 
ATOM     23  C   UNL     1      53.321   2.310  18.433  0.00  0.00    +0.000 A 
ATOM     24  N   UNL     1      53.486   0.961  18.467  0.00  0.00    +0.000 NA
ATOM     25  C   UNL     1      52.537   0.292  17.903  0.00  0.00    +0.000 A 
ATOM     26  N   UNL     1      51.420   0.851  17.334  0.00  0.00    +0.000 N 
ATOM     27  C   UNL     1      51.187   2.204  17.323  0.00  0.00    +0.000 A 
ATOM     28  O   UNL     1      50.140   2.671  16.889  0.00  0.00    +0.000 OA
ATOM     29  C   UNL     1      52.253   3.002  17.895  0.00  0.00    +0.000 A 
ATOM     30  H   UNL     1      50.693   0.272  16.938  0.00  0.00    +0.000 HD
ENDBRANCH  17  20
ENDBRANCH   1  16
BRANCH   1  32
ATOM     31  C   UNL     1      47.647   8.259  18.636  0.00  0.00    +0.000 C 
ATOM     32  C   UNL     1      48.301   6.887  18.737  0.00  0.00    +0.000 C 
ENDBRANCH   1  32
TORSDOF 6
ENDMDL
MODEL 2
REMARK VINA RESULT:    -6.796      2.979      4.127
REMARK INTER + INTRA:         -10.490
REMARK INTER:                  -9.032
REMARK INTRA:                  -1.457
REMARK UNBOUND:                -1.310
REMARK  Name = 
REMARK  7 active torsions:
REMARK  status: ('A' for Active; 'I' for Inactive)
REMARK    1  A    between atoms: C_1  and  C_2
REMARK    2  A    between atoms: C_2  and  C_3
REMARK    3  A    between atoms: C_3  and  N_4
REMARK    4  A    between atoms: C_3  and  C_17
REMARK    5  A    between atoms: C_5  and  C_7
REMARK    6  A    between atoms: C_20  and  C_21
REMARK    7  A    between atoms: C_21  and  N_22
REMARK                            x       y       z     vdW  Elec       q    Type
REMARK                         _______ _______ _______ _____ _____    ______ ____
ROOT
ATOM      1  C   UNL     1      48.585   8.329  13.714  0.00  0.00    +0.000 C 
ENDROOT
BRANCH   1   2
ATOM      2  C   UNL     1      47.364   7.981  12.866  0.00  0.00    +0.000 A 
ATOM      3  C   UNL     1      46.162   8.681  13.045  0.00  0.00    +0.000 A 
ATOM      4  C   UNL     1      44.993   8.287  12.381  0.00  0.00    +0.000 A 
ATOM      5  C   UNL     1      44.992   7.176  11.526  0.00  0.00    +0.000 A 
ATOM      6  C   UNL     1      46.214   6.539  11.267  0.00  0.00    +0.000 A 
ATOM      7  C   UNL     1      47.386   6.939  11.926  0.00  0.00    +0.000 A 
BRANCH   5   8
ATOM      8  C   UNL     1      43.686   6.575  11.051  0.00  0.00    +0.000 C 
BRANCH   8   9
ATOM      9  N   UNL     1      43.278   5.258  11.516  0.00  0.00    +0.000 NA
ATOM     10  C   UNL     1      43.451   4.972  12.938  0.00  0.00    +0.000 C 
ATOM     11  C   UNL     1      44.658   4.078  13.288  0.00  0.00    +0.000 C 
ATOM     12  N   UNL     1      44.736   2.857  12.466  0.00  0.00    +0.000 NA
ATOM     13  C   UNL     1      44.764   3.252  11.048  0.00  0.00    +0.000 C 
ATOM     14  C   UNL     1      43.561   4.126  10.637  0.00  0.00    +0.000 C 
ATOM     15  H   UNL     1      43.879   2.323  12.622  0.00  0.00    +0.000 HD
ENDBRANCH   8   9
ENDBRANCH   5   8
ENDBRANCH   1   2
BRANCH   1  16
ATOM     16  N   UNL     1      48.569   7.528  14.931  0.00  0.00    +0.000 N 
ATOM     17  C   UNL     1      49.706   7.012  15.502  0.00  0.00    +0.000 C 
ATOM     18  O   UNL     1      50.834   7.261  15.090  0.00  0.00    +0.000 OA
ATOM     19  H   UNL     1      47.687   7.072  15.142  0.00  0.00    +0.000 HD
BRANCH  17  20
ATOM     20  C   UNL     1      49.510   6.171  16.688  0.00  0.00    +0.000 A 
ATOM     21  C   UNL     1      50.234   6.422  17.846  0.00  0.00    +0.000 A 
ATOM     22  S   UNL     1      49.895   5.329  19.111  0.00  0.00    +0.000 S 
ATOM     23  C   UNL     1      48.808   4.455  18.136  0.00  0.00    +0.000 A 
ATOM     24  N   UNL     1      48.193   3.335  18.601  0.00  0.00    +0.000 NA
ATOM     25  C   UNL     1      47.427   2.751  17.742  0.00  0.00    +0.000 A 
ATOM     26  N   UNL     1      47.194   3.204  16.467  0.00  0.00    +0.000 N 
ATOM     27  C   UNL     1      47.752   4.358  15.974  0.00  0.00    +0.000 A 
ATOM     28  O   UNL     1      47.458   4.789  14.865  0.00  0.00    +0.000 OA
ATOM     29  C   UNL     1      48.667   5.020  16.882  0.00  0.00    +0.000 A 
ATOM     30  H   UNL     1      46.555   2.721  15.852  0.00  0.00    +0.000 HD
ENDBRANCH  17  20
ENDBRANCH   1  16
BRANCH   1  32
ATOM     31  C   UNL     1      49.875  10.540  13.412  0.00  0.00    +0.000 C 
ATOM     32  C   UNL     1      48.671   9.842  14.031  0.00  0.00    +0.000 C 
ENDBRANCH   1  32
TORSDOF 6
ENDMDL
MODEL 3
REMARK VINA RESULT:    -6.700      4.375      8.584
REMARK INTER + INTRA:         -10.360
REMARK INTER:                  -8.954
REMARK INTRA:                  -1.406
REMARK UNBOUND:                -1.310
REMARK  Name = 
REMARK  7 active torsions:
REMARK  status: ('A' for Active; 'I' for Inactive)
REMARK    1  A    between atoms: C_1  and  C_2
REMARK    2  A    between atoms: C_2  and  C_3
REMARK    3  A    between atoms: C_3  and  N_4
REMARK    4  A    between atoms: C_3  and  C_17
REMARK    5  A    between atoms: C_5  and  C_7
REMARK    6  A    between atoms: C_20  and  C_21
REMARK    7  A    between atoms: C_21  and  N_22
REMARK                            x       y       z     vdW  Elec       q    Type
REMARK                         _______ _______ _______ _____ _____    ______ ____
ROOT
ATOM      1  C   UNL     1      47.927   7.656  12.402  0.00  0.00    +0.000 C 
ENDROOT
BRANCH   1   2
ATOM      2  C   UNL     1      48.196   7.666  13.905  0.00  0.00    +0.000 A 
ATOM      3  C   UNL     1      48.004   8.841  14.645  0.00  0.00    +0.000 A 
ATOM      4  C   UNL     1      48.379   8.912  15.994  0.00  0.00    +0.000 A 
ATOM      5  C   UNL     1      48.963   7.813  16.637  0.00  0.00    +0.000 A 
ATOM      6  C   UNL     1      49.061   6.607  15.927  0.00  0.00    +0.000 A 
ATOM      7  C   UNL     1      48.679   6.533  14.580  0.00  0.00    +0.000 A 
BRANCH   5   8
ATOM      8  C   UNL     1      49.634   7.979  17.984  0.00  0.00    +0.000 C 
BRANCH   8   9
ATOM      9  N   UNL     1      49.119   7.272  19.147  0.00  0.00    +0.000 NA
ATOM     10  C   UNL     1      49.824   6.060  19.555  0.00  0.00    +0.000 C 
ATOM     11  C   UNL     1      49.133   4.735  19.173  0.00  0.00    +0.000 C 
ATOM     12  N   UNL     1      47.708   4.694  19.542  0.00  0.00    +0.000 NA
ATOM     13  C   UNL     1      47.031   5.843  18.916  0.00  0.00    +0.000 C 
ATOM     14  C   UNL     1      47.667   7.199  19.289  0.00  0.00    +0.000 C 
ATOM     15  H   UNL     1      47.646   4.813  20.555  0.00  0.00    +0.000 HD
ENDBRANCH   8   9
ENDBRANCH   5   8
ENDBRANCH   1   2
BRANCH   1  16
ATOM     16  N   UNL     1      47.094   6.508  12.071  0.00  0.00    +0.000 N 
ATOM     17  C   UNL     1      45.723   6.535  12.134  0.00  0.00    +0.000 C 
ATOM     18  O   UNL     1      45.085   7.553  12.382  0.00  0.00    +0.000 OA
ATOM     19  H   UNL     1      47.550   5.604  12.138  0.00  0.00    +0.000 HD
BRANCH  17  20
ATOM     20  C   UNL     1      45.035   5.274  11.834  0.00  0.00    +0.000 A 
ATOM     21  C   UNL     1      44.322   4.618  12.829  0.00  0.00    +0.000 A 
ATOM     22  S   UNL     1      43.612   3.158  12.305  0.00  0.00    +0.000 S 
ATOM     23  C   UNL     1      44.276   3.332  10.747  0.00  0.00    +0.000 A 
ATOM     24  N   UNL     1      44.096   2.376   9.797  0.00  0.00    +0.000 NA
ATOM     25  C   UNL     1      44.687   2.619   8.676  0.00  0.00    +0.000 A 
ATOM     26  N   UNL     1      45.418   3.749   8.408  0.00  0.00    +0.000 N 
ATOM     27  C   UNL     1      45.582   4.764   9.319  0.00  0.00    +0.000 A 
ATOM     28  O   UNL     1      46.164   5.802   9.025  0.00  0.00    +0.000 OA
ATOM     29  C   UNL     1      44.984   4.511  10.614  0.00  0.00    +0.000 A 
ATOM     30  H   UNL     1      45.829   3.899   7.498  0.00  0.00    +0.000 HD
ENDBRANCH  17  20
ENDBRANCH   1  16
BRANCH   1  32
ATOM     31  C   UNL     1      49.887   9.040  11.460  0.00  0.00    +0.000 C 
ATOM     32  C   UNL     1      49.233   7.669  11.569  0.00  0.00    +0.000 C 
ENDBRANCH   1  32
TORSDOF 6
ENDMDL
MODEL 4
REMARK VINA RESULT:    -6.679      3.719      8.377
REMARK INTER + INTRA:         -10.332
REMARK INTER:                  -9.248
REMARK INTRA:                  -1.084
REMARK UNBOUND:                -1.310
REMARK  Name = 
REMARK  7 active torsions:
REMARK  status: ('A' for Active; 'I' for Inactive)
REMARK    1  A    between atoms: C_1  and  C_2
REMARK    2  A    between atoms: C_2  and  C_3
REMARK    3  A    between atoms: C_3  and  N_4
REMARK    4  A    between atoms: C_3  and  C_17
REMARK    5  A    between atoms: C_5  and  C_7
REMARK    6  A    between atoms: C_20  and  C_21
REMARK    7  A    between atoms: C_21  and  N_22
REMARK                            x       y       z     vdW  Elec       q    Type
REMARK                         _______ _______ _______ _____ _____    ______ ____
ROOT
ATOM      1  C   UNL     1      48.455   7.544  12.681  0.00  0.00    +0.000 C 
ENDROOT
BRANCH   1   2
ATOM      2  C   UNL     1      48.737   6.988  14.075  0.00  0.00    +0.000 A 
ATOM      3  C   UNL     1      47.950   5.949  14.589  0.00  0.00    +0.000 A 
ATOM      4  C   UNL     1      48.098   5.520  15.915  0.00  0.00    +0.000 A 
ATOM      5  C   UNL     1      49.034   6.124  16.765  0.00  0.00    +0.000 A 
ATOM      6  C   UNL     1      49.892   7.092  16.222  0.00  0.00    +0.000 A 
ATOM      7  C   UNL     1      49.749   7.516  14.894  0.00  0.00    +0.000 A 
BRANCH   5   8
ATOM      8  C   UNL     1      48.989   5.874  18.258  0.00  0.00    +0.000 C 
BRANCH   8   9
ATOM      9  N   UNL     1      49.553   4.651  18.809  0.00  0.00    +0.000 NA
ATOM     10  C   UNL     1      51.008   4.534  18.817  0.00  0.00    +0.000 C 
ATOM     11  C   UNL     1      51.602   3.622  17.724  0.00  0.00    +0.000 C 
ATOM     12  N   UNL     1      50.943   2.306  17.642  0.00  0.00    +0.000 NA
ATOM     13  C   UNL     1      49.502   2.520  17.427  0.00  0.00    +0.000 C 
ATOM     14  C   UNL     1      48.851   3.404  18.511  0.00  0.00    +0.000 C 
ATOM     15  H   UNL     1      51.057   1.845  18.547  0.00  0.00    +0.000 HD
ENDBRANCH   8   9
ENDBRANCH   5   8
ENDBRANCH   1   2
BRANCH   1  16
ATOM     16  N   UNL     1      47.697   6.563  11.916  0.00  0.00    +0.000 N 
ATOM     17  C   UNL     1      46.374   6.730  11.590  0.00  0.00    +0.000 C 
ATOM     18  O   UNL     1      45.749   7.758  11.832  0.00  0.00    +0.000 OA
ATOM     19  H   UNL     1      48.060   5.616  11.939  0.00  0.00    +0.000 HD
BRANCH  17  20
ATOM     20  C   UNL     1      45.738   5.618  10.875  0.00  0.00    +0.000 A 
ATOM     21  C   UNL     1      45.810   5.550   9.490  0.00  0.00    +0.000 A 
ATOM     22  S   UNL     1      44.993   4.205   8.831  0.00  0.00    +0.000 S 
ATOM     23  C   UNL     1      44.475   3.698  10.372  0.00  0.00    +0.000 A 
ATOM     24  N   UNL     1      43.669   2.613  10.519  0.00  0.00    +0.000 NA
ATOM     25  C   UNL     1      43.322   2.367  11.738  0.00  0.00    +0.000 A 
ATOM     26  N   UNL     1      43.734   3.091  12.828  0.00  0.00    +0.000 N 
ATOM     27  C   UNL     1      44.589   4.162  12.732  0.00  0.00    +0.000 A 
ATOM     28  O   UNL     1      45.013   4.736  13.728  0.00  0.00    +0.000 OA
ATOM     29  C   UNL     1      44.962   4.513  11.376  0.00  0.00    +0.000 A 
ATOM     30  H   UNL     1      43.456   2.828  13.763  0.00  0.00    +0.000 HD
ENDBRANCH  17  20
ENDBRANCH   1  16
BRANCH   1  32
ATOM     31  C   UNL     1      49.774   9.424  11.510  0.00  0.00    +0.000 C 
ATOM     32  C   UNL     1      49.749   7.964  11.941  0.00  0.00    +0.000 C 
ENDBRANCH   1  32
TORSDOF 6
ENDMDL
MODEL 5
REMARK VINA RESULT:    -6.426      3.950      5.089
REMARK INTER + INTRA:          -9.990
REMARK INTER:                  -9.040
REMARK INTRA:                  -0.950
REMARK UNBOUND:                -1.310
REMARK  Name = 
REMARK  7 active torsions:
REMARK  status: ('A' for Active; 'I' for Inactive)
REMARK    1  A    between atoms: C_1  and  C_2
REMARK    2  A    between atoms: C_2  and  C_3
REMARK    3  A    between atoms: C_3  and  N_4
REMARK    4  A    between atoms: C_3  and  C_17
REMARK    5  A    between atoms: C_5  and  C_7
REMARK    6  A    between atoms: C_20  and  C_21
REMARK    7  A    between atoms: C_21  and  N_22
REMARK                            x       y       z     vdW  Elec       q    Type
REMARK                         _______ _______ _______ _____ _____    ______ ____
ROOT
ATOM      1  C   UNL     1      48.083   6.748  13.502  0.00  0.00    +0.000 C 
ENDROOT
BRANCH   1   2
ATOM      2  C   UNL     1      46.871   5.861  13.227  0.00  0.00    +0.000 A 
ATOM      3  C   UNL     1      47.010   4.466  13.215  0.00  0.00    +0.000 A 
ATOM      4  C   UNL     1      45.947   3.639  12.826  0.00  0.00    +0.000 A 
ATOM      5  C   UNL     1      44.719   4.186  12.431  0.00  0.00    +0.000 A 
ATOM      6  C   UNL     1      44.546   5.573  12.542  0.00  0.00    +0.000 A 
ATOM      7  C   UNL     1      45.607   6.400  12.938  0.00  0.00    +0.000 A 
BRANCH   5   8
ATOM      8  C   UNL     1      43.684   3.327  11.734  0.00  0.00    +0.000 C 
BRANCH   8   9
ATOM      9  N   UNL     1      43.658   3.254  10.281  0.00  0.00    +0.000 NA
ATOM     10  C   UNL     1      44.183   2.038   9.667  0.00  0.00    +0.000 C 
ATOM     11  C   UNL     1      45.591   2.166   9.050  0.00  0.00    +0.000 C 
ATOM     12  N   UNL     1      45.735   3.337   8.167  0.00  0.00    +0.000 NA
ATOM     13  C   UNL     1      45.381   4.544   8.934  0.00  0.00    +0.000 C 
ATOM     14  C   UNL     1      43.968   4.479   9.549  0.00  0.00    +0.000 C 
ATOM     15  H   UNL     1      45.056   3.240   7.410  0.00  0.00    +0.000 HD
ENDBRANCH   8   9
ENDBRANCH   5   8
ENDBRANCH   1   2
BRANCH   1  16
ATOM     16  N   UNL     1      48.008   7.253  14.867  0.00  0.00    +0.000 N 
ATOM     17  C   UNL     1      48.978   7.010  15.808  0.00  0.00    +0.000 C 
ATOM     18  O   UNL     1      50.028   6.431  15.553  0.00  0.00    +0.000 OA
ATOM     19  H   UNL     1      47.076   7.479  15.198  0.00  0.00    +0.000 HD
BRANCH  17  20
ATOM     20  C   UNL     1      48.719   7.533  17.155  0.00  0.00    +0.000 A 
ATOM     21  C   UNL     1      49.099   8.828  17.483  0.00  0.00    +0.000 A 
ATOM     22  S   UNL     1      48.741   9.253  19.096  0.00  0.00    +0.000 S 
ATOM     23  C   UNL     1      48.112   7.704  19.421  0.00  0.00    +0.000 A 
ATOM     24  N   UNL     1      47.673   7.373  20.664  0.00  0.00    +0.000 NA
ATOM     25  C   UNL     1      47.260   6.155  20.777  0.00  0.00    +0.000 A 
ATOM     26  N   UNL     1      47.218   5.246  19.749  0.00  0.00    +0.000 N 
ATOM     27  C   UNL     1      47.601   5.554  18.467  0.00  0.00    +0.000 A 
ATOM     28  O   UNL     1      47.469   4.753  17.548  0.00  0.00    +0.000 OA
ATOM     29  C   UNL     1      48.127   6.894  18.302  0.00  0.00    +0.000 A 
ATOM     30  H   UNL     1      46.851   4.316  19.892  0.00  0.00    +0.000 HD
ENDBRANCH  17  20
ENDBRANCH   1  16
BRANCH   1  32
ATOM     31  C   UNL     1      49.588   8.560  12.455  0.00  0.00    +0.000 C 
ATOM     32  C   UNL     1      48.215   7.900  12.476  0.00  0.00    +0.000 C 
ENDBRANCH   1  32
TORSDOF 6
ENDMDL
MODEL 6
REMARK VINA RESULT:    -6.412      4.090      8.749
REMARK INTER + INTRA:          -9.972
REMARK INTER:                  -8.777
REMARK INTRA:                  -1.195
REMARK UNBOUND:                -1.310
REMARK  Name = 
REMARK  7 active torsions:
REMARK  status: ('A' for Active; 'I' for Inactive)
REMARK    1  A    between atoms: C_1  and  C_2
REMARK    2  A    between atoms: C_2  and  C_3
REMARK    3  A    between atoms: C_3  and  N_4
REMARK    4  A    between atoms: C_3  and  C_17
REMARK    5  A    between atoms: C_5  and  C_7
REMARK    6  A    between atoms: C_20  and  C_21
REMARK    7  A    between atoms: C_21  and  N_22
REMARK                            x       y       z     vdW  Elec       q    Type
REMARK                         _______ _______ _______ _____ _____    ______ ____
ROOT
ATOM      1  C   UNL     1      47.921   8.278  12.466  0.00  0.00    +0.000 C 
ENDROOT
BRANCH   1   2
ATOM      2  C   UNL     1      48.294   7.861  13.886  0.00  0.00    +0.000 A 
ATOM      3  C   UNL     1      48.310   6.505  14.239  0.00  0.00    +0.000 A 
ATOM      4  C   UNL     1      48.511   6.108  15.568  0.00  0.00    +0.000 A 
ATOM      5  C   UNL     1      48.694   7.058  16.581  0.00  0.00    +0.000 A 
ATOM      6  C   UNL     1      48.782   8.409  16.214  0.00  0.00    +0.000 A 
ATOM      7  C   UNL     1      48.589   8.805  14.883  0.00  0.00    +0.000 A 
BRANCH   5   8
ATOM      8  C   UNL     1      48.611   6.653  18.038  0.00  0.00    +0.000 C 
BRANCH   8   9
ATOM      9  N   UNL     1      49.292   5.453  18.501  0.00  0.00    +0.000 NA
ATOM     10  C   UNL     1      48.544   4.562  19.383  0.00  0.00    +0.000 C 
ATOM     11  C   UNL     1      48.921   4.644  20.876  0.00  0.00    +0.000 C 
ATOM     12  N   UNL     1      50.373   4.565  21.115  0.00  0.00    +0.000 NA
ATOM     13  C   UNL     1      51.030   5.634  20.344  0.00  0.00    +0.000 C 
ATOM     14  C   UNL     1      50.708   5.580  18.836  0.00  0.00    +0.000 C 
ATOM     15  H   UNL     1      50.700   3.671  20.746  0.00  0.00    +0.000 HD
ENDBRANCH   8   9
ENDBRANCH   5   8
ENDBRANCH   1   2
BRANCH   1  16
ATOM     16  N   UNL     1      47.327   7.143  11.772  0.00  0.00    +0.000 N 
ATOM     17  C   UNL     1      45.988   7.061  11.480  0.00  0.00    +0.000 C 
ATOM     18  O   UNL     1      45.199   7.976  11.694  0.00  0.00    +0.000 OA
ATOM     19  H   UNL     1      47.850   6.275  11.827  0.00  0.00    +0.000 HD
BRANCH  17  20
ATOM     20  C   UNL     1      45.539   5.820  10.839  0.00  0.00    +0.000 A 
ATOM     21  C   UNL     1      45.781   5.609   9.488  0.00  0.00    +0.000 A 
ATOM     22  S   UNL     1      45.166   4.126   8.910  0.00  0.00    +0.000 S 
ATOM     23  C   UNL     1      44.514   3.742  10.435  0.00  0.00    +0.000 A 
ATOM     24  N   UNL     1      43.792   2.605  10.622  0.00  0.00    +0.000 NA
ATOM     25  C   UNL     1      43.324   2.461  11.816  0.00  0.00    +0.000 A 
ATOM     26  N   UNL     1      43.540   3.337  12.851  0.00  0.00    +0.000 N 
ATOM     27  C   UNL     1      44.306   4.469  12.721  0.00  0.00    +0.000 A 
ATOM     28  O   UNL     1      44.557   5.187  13.681  0.00  0.00    +0.000 OA
ATOM     29  C   UNL     1      44.806   4.705  11.381  0.00  0.00    +0.000 A 
ATOM     30  H   UNL     1      43.175   3.151  13.774  0.00  0.00    +0.000 HD
ENDBRANCH  17  20
ENDBRANCH   1  16
BRANCH   1  32
ATOM     31  C   UNL     1      50.213   7.832  11.375  0.00  0.00    +0.000 C 
ATOM     32  C   UNL     1      49.127   8.854  11.683  0.00  0.00    +0.000 C 
ENDBRANCH   1  32
TORSDOF 6
ENDMDL
MODEL 7
REMARK VINA RESULT:    -6.225      3.907      4.881
REMARK INTER + INTRA:          -9.719
REMARK INTER:                  -8.568
REMARK INTRA:                  -1.151
REMARK UNBOUND:                -1.310
REMARK  Name = 
REMARK  7 active torsions:
REMARK  status: ('A' for Active; 'I' for Inactive)
REMARK    1  A    between atoms: C_1  and  C_2
REMARK    2  A    between atoms: C_2  and  C_3
REMARK    3  A    between atoms: C_3  and  N_4
REMARK    4  A    between atoms: C_3  and  C_17
REMARK    5  A    between atoms: C_5  and  C_7
REMARK    6  A    between atoms: C_20  and  C_21
REMARK    7  A    between atoms: C_21  and  N_22
REMARK                            x       y       z     vdW  Elec       q    Type
REMARK                         _______ _______ _______ _____ _____    ______ ____
ROOT
ATOM      1  C   UNL     1      49.139   7.887  13.800  0.00  0.00    +0.000 C 
ENDROOT
BRANCH   1   2
ATOM      2  C   UNL     1      47.762   7.493  13.272  0.00  0.00    +0.000 A 
ATOM      3  C   UNL     1      47.586   6.269  12.612  0.00  0.00    +0.000 A 
ATOM      4  C   UNL     1      46.367   5.951  11.997  0.00  0.00    +0.000 A 
ATOM      5  C   UNL     1      45.294   6.851  12.020  0.00  0.00    +0.000 A 
ATOM      6  C   UNL     1      45.435   8.030  12.767  0.00  0.00    +0.000 A 
ATOM      7  C   UNL     1      46.651   8.345  13.389  0.00  0.00    +0.000 A 
BRANCH   5   8
ATOM      8  C   UNL     1      44.098   6.643  11.114  0.00  0.00    +0.000 C 
BRANCH   8   9
ATOM      9  N   UNL     1      43.268   5.457  11.265  0.00  0.00    +0.000 NA
ATOM     10  C   UNL     1      42.846   5.108  12.618  0.00  0.00    +0.000 C 
ATOM     11  C   UNL     1      43.613   3.938  13.267  0.00  0.00    +0.000 C 
ATOM     12  N   UNL     1      43.710   2.753  12.397  0.00  0.00    +0.000 NA
ATOM     13  C   UNL     1      44.338   3.158  11.127  0.00  0.00    +0.000 C 
ATOM     14  C   UNL     1      43.592   4.309  10.421  0.00  0.00    +0.000 C 
ATOM     15  H   UNL     1      42.760   2.442  12.187  0.00  0.00    +0.000 HD
ENDBRANCH   8   9
ENDBRANCH   5   8
ENDBRANCH   1   2
BRANCH   1  16
ATOM     16  N   UNL     1      49.053   8.134  15.233  0.00  0.00    +0.000 N 
ATOM     17  C   UNL     1      49.388   7.195  16.176  0.00  0.00    +0.000 C 
ATOM     18  O   UNL     1      49.877   6.106  15.892  0.00  0.00    +0.000 OA
ATOM     19  H   UNL     1      48.415   8.873  15.510  0.00  0.00    +0.000 HD
BRANCH  17  20
ATOM     20  C   UNL     1      49.179   7.579  17.577  0.00  0.00    +0.000 A 
ATOM     21  C   UNL     1      49.787   8.721  18.082  0.00  0.00    +0.000 A 
ATOM     22  S   UNL     1      49.452   8.996  19.732  0.00  0.00    +0.000 S 
ATOM     23  C   UNL     1      48.525   7.572  19.836  0.00  0.00    +0.000 A 
ATOM     24  N   UNL     1      47.979   7.174  21.016  0.00  0.00    +0.000 NA
ATOM     25  C   UNL     1      47.336   6.057  20.958  0.00  0.00    +0.000 A 
ATOM     26  N   UNL     1      47.162   5.315  19.816  0.00  0.00    +0.000 N 
ATOM     27  C   UNL     1      47.649   5.705  18.593  0.00  0.00    +0.000 A 
ATOM     28  O   UNL     1      47.404   5.071  17.573  0.00  0.00    +0.000 OA
ATOM     29  C   UNL     1      48.429   6.926  18.618  0.00  0.00    +0.000 A 
ATOM     30  H   UNL     1      46.617   4.465  19.827  0.00  0.00    +0.000 HD
ENDBRANCH  17  20
ENDBRANCH   1  16
BRANCH   1  32
ATOM     31  C   UNL     1      49.821   8.920  11.539  0.00  0.00    +0.000 C 
ATOM     32  C   UNL     1      49.733   9.104  13.048  0.00  0.00    +0.000 C 
ENDBRANCH   1  32
TORSDOF 6
ENDMDL
MODEL 8
REMARK VINA RESULT:    -5.908      3.702      7.434
REMARK INTER + INTRA:          -9.290
REMARK INTER:                  -7.761
REMARK INTRA:                  -1.529
REMARK UNBOUND:                -1.310
REMARK  Name = 
REMARK  7 active torsions:
REMARK  status: ('A' for Active; 'I' for Inactive)
REMARK    1  A    between atoms: C_1  and  C_2
REMARK    2  A    between atoms: C_2  and  C_3
REMARK    3  A    between atoms: C_3  and  N_4
REMARK    4  A    between atoms: C_3  and  C_17
REMARK    5  A    between atoms: C_5  and  C_7
REMARK    6  A    between atoms: C_20  and  C_21
REMARK    7  A    between atoms: C_21  and  N_22
REMARK                            x       y       z     vdW  Elec       q    Type
REMARK                         _______ _______ _______ _____ _____    ______ ____
ROOT
ATOM      1  C   UNL     1      49.346   8.690  13.800  0.00  0.00    +0.000 C 
ENDROOT
BRANCH   1   2
ATOM      2  C   UNL     1      49.750   8.125  15.160  0.00  0.00    +0.000 A 
ATOM      3  C   UNL     1      50.815   7.218  15.256  0.00  0.00    +0.000 A 
ATOM      4  C   UNL     1      51.111   6.581  16.468  0.00  0.00    +0.000 A 
ATOM      5  C   UNL     1      50.346   6.827  17.616  0.00  0.00    +0.000 A 
ATOM      6  C   UNL     1      49.347   7.810  17.546  0.00  0.00    +0.000 A 
ATOM      7  C   UNL     1      49.056   8.454  16.336  0.00  0.00    +0.000 A 
BRANCH   5   8
ATOM      8  C   UNL     1      50.470   5.930  18.829  0.00  0.00    +0.000 C 
BRANCH   8   9
ATOM      9  N   UNL     1      49.482   4.890  19.071  0.00  0.00    +0.000 NA
ATOM     10  C   UNL     1      49.382   3.824  18.078  0.00  0.00    +0.000 C 
ATOM     11  C   UNL     1      48.179   3.928  17.118  0.00  0.00    +0.000 C 
ATOM     12  N   UNL     1      46.899   4.158  17.812  0.00  0.00    +0.000 NA
ATOM     13  C   UNL     1      47.027   5.374  18.633  0.00  0.00    +0.000 C 
ATOM     14  C   UNL     1      48.200   5.309  19.633  0.00  0.00    +0.000 C 
ATOM     15  H   UNL     1      46.743   3.371  18.444  0.00  0.00    +0.000 HD
ENDBRANCH   8   9
ENDBRANCH   5   8
ENDBRANCH   1   2
BRANCH   1  16
ATOM     16  N   UNL     1      48.349   7.817  13.195  0.00  0.00    +0.000 N 
ATOM     17  C   UNL     1      47.002   8.085  13.226  0.00  0.00    +0.000 C 
ATOM     18  O   UNL     1      46.538   9.125  13.681  0.00  0.00    +0.000 OA
ATOM     19  H   UNL     1      48.634   6.852  13.066  0.00  0.00    +0.000 HD
BRANCH  17  20
ATOM     20  C   UNL     1      46.126   7.071  12.629  0.00  0.00    +0.000 A 
ATOM     21  C   UNL     1      45.068   7.458  11.816  0.00  0.00    +0.000 A 
ATOM     22  S   UNL     1      44.144   6.147  11.234  0.00  0.00    +0.000 S 
ATOM     23  C   UNL     1      45.098   5.026  12.089  0.00  0.00    +0.000 A 
ATOM     24  N   UNL     1      44.806   3.698  12.070  0.00  0.00    +0.000 NA
ATOM     25  C   UNL     1      45.587   2.969  12.793  0.00  0.00    +0.000 A 
ATOM     26  N   UNL     1      46.655   3.445  13.512  0.00  0.00    +0.000 N 
ATOM     27  C   UNL     1      47.018   4.769  13.519  0.00  0.00    +0.000 A 
ATOM     28  O   UNL     1      48.029   5.154  14.096  0.00  0.00    +0.000 OA
ATOM     29  C   UNL     1      46.136   5.637  12.766  0.00  0.00    +0.000 A 
ATOM     30  H   UNL     1      47.252   2.818  14.033  0.00  0.00    +0.000 HD
ENDBRANCH  17  20
ENDBRANCH   1  16
BRANCH   1  32
ATOM     31  C   UNL     1      50.249   9.699  11.607  0.00  0.00    +0.000 C 
ATOM     32  C   UNL     1      50.562   8.898  12.863  0.00  0.00    +0.000 C 
ENDBRANCH   1  32
TORSDOF 6
ENDMDL
MODEL 9
REMARK VINA RESULT:    -5.774      3.989      5.722
REMARK INTER + INTRA:          -9.109
REMARK INTER:                  -8.020
REMARK INTRA:                  -1.089
REMARK UNBOUND:                -1.310
REMARK  Name = 
REMARK  7 active torsions:
REMARK  status: ('A' for Active; 'I' for Inactive)
REMARK    1  A    between atoms: C_1  and  C_2
REMARK    2  A    between atoms: C_2  and  C_3
REMARK    3  A    between atoms: C_3  and  N_4
REMARK    4  A    between atoms: C_3  and  C_17
REMARK    5  A    between atoms: C_5  and  C_7
REMARK    6  A    between atoms: C_20  and  C_21
REMARK    7  A    between atoms: C_21  and  N_22
REMARK                            x       y       z     vdW  Elec       q    Type
REMARK                         _______ _______ _______ _____ _____    ______ ____
ROOT
ATOM      1  C   UNL     1      48.811   7.394  13.916  0.00  0.00    +0.000 C 
ENDROOT
BRANCH   1   2
ATOM      2  C   UNL     1      47.562   6.980  13.141  0.00  0.00    +0.000 A 
ATOM      3  C   UNL     1      47.081   7.787  12.101  0.00  0.00    +0.000 A 
ATOM      4  C   UNL     1      45.862   7.501  11.472  0.00  0.00    +0.000 A 
ATOM      5  C   UNL     1      45.087   6.404  11.872  0.00  0.00    +0.000 A 
ATOM      6  C   UNL     1      45.615   5.539  12.840  0.00  0.00    +0.000 A 
ATOM      7  C   UNL     1      46.839   5.820  13.464  0.00  0.00    +0.000 A 
BRANCH   5   8
ATOM      8  C   UNL     1      43.651   6.269  11.408  0.00  0.00    +0.000 C 
BRANCH   8   9
ATOM      9  N   UNL     1      43.209   5.047  10.753  0.00  0.00    +0.000 NA
ATOM     10  C   UNL     1      42.707   3.977  11.610  0.00  0.00    +0.000 C 
ATOM     11  C   UNL     1      43.683   2.805  11.841  0.00  0.00    +0.000 C 
ATOM     12  N   UNL     1      44.272   2.284  10.595  0.00  0.00    +0.000 NA
ATOM     13  C   UNL     1      44.937   3.395   9.894  0.00  0.00    +0.000 C 
ATOM     14  C   UNL     1      43.996   4.584   9.612  0.00  0.00    +0.000 C 
ATOM     15  H   UNL     1      43.507   1.957  10.002  0.00  0.00    +0.000 HD
ENDBRANCH   8   9
ENDBRANCH   5   8
ENDBRANCH   1   2
BRANCH   1  16
ATOM     16  N   UNL     1      48.464   7.588  15.318  0.00  0.00    +0.000 N 
ATOM     17  C   UNL     1      49.036   6.868  16.337  0.00  0.00    +0.000 C 
ATOM     18  O   UNL     1      49.951   6.070  16.161  0.00  0.00    +0.000 OA
ATOM     19  H   UNL     1      47.554   8.005  15.489  0.00  0.00    +0.000 HD
BRANCH  17  20
ATOM     20  C   UNL     1      48.526   7.137  17.686  0.00  0.00    +0.000 A 
ATOM     21  C   UNL     1      48.349   6.093  18.584  0.00  0.00    +0.000 A 
ATOM     22  S   UNL     1      47.726   6.591  20.092  0.00  0.00    +0.000 S 
ATOM     23  C   UNL     1      47.626   8.210  19.576  0.00  0.00    +0.000 A 
ATOM     24  N   UNL     1      47.111   9.174  20.385  0.00  0.00    +0.000 NA
ATOM     25  C   UNL     1      47.059  10.348  19.852  0.00  0.00    +0.000 A 
ATOM     26  N   UNL     1      47.506  10.652  18.590  0.00  0.00    +0.000 N 
ATOM     27  C   UNL     1      48.082   9.723  17.759  0.00  0.00    +0.000 A 
ATOM     28  O   UNL     1      48.555  10.039  16.673  0.00  0.00    +0.000 OA
ATOM     29  C   UNL     1      48.110   8.376  18.292  0.00  0.00    +0.000 A 
ATOM     30  H   UNL     1      47.471  11.599  18.241  0.00  0.00    +0.000 HD
ENDBRANCH  17  20
ENDBRANCH   1  16
BRANCH   1  32
ATOM     31  C   UNL     1      50.901   8.418  12.808  0.00  0.00    +0.000 C 
ATOM     32  C   UNL     1      49.485   8.653  13.318  0.00  0.00    +0.000 C 
ENDBRANCH   1  32
TORSDOF 6
ENDMDL
