MODEL 1
REMARK VINA RESULT:    -8.521      0.000      0.000
REMARK INTER + INTRA:         -12.024
REMARK INTER:                 -11.012
REMARK INTRA:                  -1.012
REMARK UNBOUND:                -1.012
REMARK  Name = 
REMARK  6 active torsions:
REMARK  status: ('A' for Active; 'I' for Inactive)
REMARK    1  A    between atoms: C_1  and  C_2
REMARK    2  A    between atoms: C_2  and  C_3
REMARK    3  A    between atoms: C_2  and  C_14
REMARK    4  A    between atoms: C_3  and  N_4
REMARK    5  A    between atoms: C_8  and  C_9
REMARK    6  A    between atoms: C_18  and  C_19
REMARK                            x       y       z     vdW  Elec       q    Type
REMARK                         _______ _______ _______ _____ _____    ______ ____
ROOT
ATOM      1  C   UNL     1      43.815   3.194  12.521  0.00  0.00    +0.000 C 
ATOM      2  C   UNL     1      43.972   4.653  12.073  0.00  0.00    +0.000 C 
ENDROOT
BRANCH   2   3
ATOM      3  C   UNL     1      45.316   5.180  12.556  0.00  0.00    +0.000 A 
ATOM      4  C   UNL     1      46.022   6.116  11.792  0.00  0.00    +0.000 A 
ATOM      5  C   UNL     1      47.265   6.580  12.219  0.00  0.00    +0.000 A 
ATOM      6  C   UNL     1      47.821   6.116  13.415  0.00  0.00    +0.000 A 
ATOM      7  C   UNL     1      47.129   5.212  14.236  0.00  0.00    +0.000 A 
ATOM      8  C   UNL     1      45.869   4.778  13.781  0.00  0.00    +0.000 A 
BRANCH   7   9
ATOM      9  C   UNL     1      47.645   4.753  15.550  0.00  0.00    +0.000 A 
ATOM     10  C   UNL     1      48.435   5.583  16.365  0.00  0.00    +0.000 A 
ATOM     11  C   UNL     1      48.811   5.191  17.655  0.00  0.00    +0.000 A 
ATOM     12  C   UNL     1      48.404   3.962  18.164  0.00  0.00    +0.000 A 
ATOM     13  C   UNL     1      47.655   3.104  17.367  0.00  0.00    +0.000 A 
ATOM     14  C   UNL     1      47.301   3.488  16.070  0.00  0.00    +0.000 A 
ENDBRANCH   7   9
ENDBRANCH   2   3
BRANCH   2  15
ATOM     15  C   UNL     1      43.716   4.745  10.543  0.00  0.00    +0.000 C 
BRANCH  15  16
ATOM     16  N   UNL     1      43.666   3.427   9.913  0.00  0.00    +0.000 N 
ATOM     17  C   UNL     1      44.683   3.094   9.029  0.00  0.00    +0.000 A 
ATOM     18  C   UNL     1      45.150   3.970   8.056  0.00  0.00    +0.000 A 
ATOM     19  C   UNL     1      46.174   3.562   7.196  0.00  0.00    +0.000 A 
ATOM     20  C   UNL     1      46.702   2.279   7.304  0.00  0.00    +0.000 A 
ATOM     21  C   UNL     1      46.156   1.460   8.278  0.00  0.00    +0.000 A 
ATOM     22  N   UNL     1      45.170   1.841   9.138  0.00  0.00    +0.000 NA
ATOM     23  H   UNL     1      43.570   2.648  10.562  0.00  0.00    +0.000 HD
BRANCH  20  24
ATOM     24  C   UNL     1      47.803   1.881   6.394  0.00  0.00    +0.000 C 
ATOM     25  N   UNL     1      48.943   2.632   6.354  0.00  0.00    +0.000 N 
ATOM     26  O   UNL     1      47.706   0.887   5.677  0.00  0.00    +0.000 OA
ATOM     27  H   UNL     1      49.140   3.448   6.911  0.00  0.00    +0.000 HD
ATOM     28  H   UNL     1      49.667   2.317   5.715  0.00  0.00    +0.000 HD
ENDBRANCH  20  24
ENDBRANCH  15  16
ENDBRANCH   2  15
TORSDOF 5
ENDMDL
MODEL 2
REMARK VINA RESULT:    -8.289      1.755      3.808
REMARK INTER + INTRA:         -11.723
REMARK INTER:                 -10.718
REMARK INTRA:                  -1.005
REMARK UNBOUND:                -1.012
REMARK  Name = 
REMARK  6 active torsions:
REMARK  status: ('A' for Active; 'I' for Inactive)
REMARK    1  A    between atoms: C_1  and  C_2
REMARK    2  A    between atoms: C_2  and  C_3
REMARK    3  A    between atoms: C_2  and  C_14
REMARK    4  A    between atoms: C_3  and  N_4
REMARK    5  A    between atoms: C_8  and  C_9
REMARK    6  A    between atoms: C_18  and  C_19
REMARK                            x       y       z     vdW  Elec       q    Type
REMARK                         _______ _______ _______ _____ _____    ______ ____
ROOT
ATOM      1  C   UNL     1      43.661   3.714  12.833  0.00  0.00    +0.000 C 
ATOM      2  C   UNL     1      43.988   5.147  12.395  0.00  0.00    +0.000 C 
ENDROOT
BRANCH   2   3
ATOM      3  C   UNL     1      45.375   5.519  12.902  0.00  0.00    +0.000 A 
ATOM      4  C   UNL     1      45.994   4.746  13.891  0.00  0.00    +0.000 A 
ATOM      5  C   UNL     1      47.252   5.101  14.376  0.00  0.00    +0.000 A 
ATOM      6  C   UNL     1      47.909   6.232  13.881  0.00  0.00    +0.000 A 
ATOM      7  C   UNL     1      47.346   7.009  12.857  0.00  0.00    +0.000 A 
ATOM      8  C   UNL     1      46.082   6.612  12.379  0.00  0.00    +0.000 A 
BRANCH   7   9
ATOM      9  C   UNL     1      48.042   8.171  12.247  0.00  0.00    +0.000 A 
ATOM     10  C   UNL     1      47.397   9.407  12.066  0.00  0.00    +0.000 A 
ATOM     11  C   UNL     1      48.093  10.531  11.610  0.00  0.00    +0.000 A 
ATOM     12  C   UNL     1      49.453  10.449  11.325  0.00  0.00    +0.000 A 
ATOM     13  C   UNL     1      50.109   9.231  11.456  0.00  0.00    +0.000 A 
ATOM     14  C   UNL     1      49.405   8.103  11.890  0.00  0.00    +0.000 A 
ENDBRANCH   7   9
ENDBRANCH   2   3
BRANCH   2  15
ATOM     15  C   UNL     1      43.768   5.273  10.862  0.00  0.00    +0.000 C 
BRANCH  15  16
ATOM     16  N   UNL     1      43.537   3.974  10.231  0.00  0.00    +0.000 N 
ATOM     17  C   UNL     1      44.508   3.495   9.362  0.00  0.00    +0.000 A 
ATOM     18  C   UNL     1      45.112   4.292   8.397  0.00  0.00    +0.000 A 
ATOM     19  C   UNL     1      46.077   3.738   7.551  0.00  0.00    +0.000 A 
ATOM     20  C   UNL     1      46.412   2.392   7.668  0.00  0.00    +0.000 A 
ATOM     21  C   UNL     1      45.739   1.664   8.633  0.00  0.00    +0.000 A 
ATOM     22  N   UNL     1      44.806   2.185   9.479  0.00  0.00    +0.000 NA
ATOM     23  H   UNL     1      43.319   3.219  10.878  0.00  0.00    +0.000 HD
BRANCH  20  24
ATOM     24  C   UNL     1      47.457   1.836   6.774  0.00  0.00    +0.000 C 
ATOM     25  N   UNL     1      48.530   2.612   6.435  0.00  0.00    +0.000 N 
ATOM     26  O   UNL     1      47.373   0.691   6.335  0.00  0.00    +0.000 OA
ATOM     27  H   UNL     1      48.712   3.550   6.753  0.00  0.00    +0.000 HD
ATOM     28  H   UNL     1      49.217   2.185   5.821  0.00  0.00    +0.000 HD
ENDBRANCH  20  24
ENDBRANCH  15  16
ENDBRANCH   2  15
TORSDOF 5
ENDMDL
MODEL 3
REMARK VINA RESULT:    -8.057      4.084      8.385
REMARK INTER + INTRA:         -11.424
REMARK INTER:                 -10.617
REMARK INTRA:                  -0.807
REMARK UNBOUND:                -1.012
REMARK  Name = 
REMARK  6 active torsions:
REMARK  status: ('A' for Active; 'I' for Inactive)
REMARK    1  A    between atoms: C_1  and  C_2
REMARK    2  A    between atoms: C_2  and  C_3
REMARK    3  A    between atoms: C_2  and  C_14
REMARK    4  A    between atoms: C_3  and  N_4
REMARK    5  A    between atoms: C_8  and  C_9
REMARK    6  A    between atoms: C_18  and  C_19
REMARK                            x       y       z     vdW  Elec       q    Type
REMARK                         _______ _______ _______ _____ _____    ______ ____
ROOT
ATOM      1  C   UNL     1      44.698   7.325  11.530  0.00  0.00    +0.000 C 
ATOM      2  C   UNL     1      44.912   6.160  12.506  0.00  0.00    +0.000 C 
ENDROOT
BRANCH   2   3
ATOM      3  C   UNL     1      44.555   4.854  11.808  0.00  0.00    +0.000 A 
ATOM      4  C   UNL     1      43.561   4.022  12.335  0.00  0.00    +0.000 A 
ATOM      5  C   UNL     1      43.252   2.813  11.714  0.00  0.00    +0.000 A 
ATOM      6  C   UNL     1      43.931   2.418  10.556  0.00  0.00    +0.000 A 
ATOM      7  C   UNL     1      44.902   3.242   9.967  0.00  0.00    +0.000 A 
ATOM      8  C   UNL     1      45.177   4.463  10.613  0.00  0.00    +0.000 A 
BRANCH   7   9
ATOM      9  C   UNL     1      45.591   2.900   8.697  0.00  0.00    +0.000 A 
ATOM     10  C   UNL     1      45.893   3.877   7.732  0.00  0.00    +0.000 A 
ATOM     11  C   UNL     1      46.653   3.571   6.599  0.00  0.00    +0.000 A 
ATOM     12  C   UNL     1      47.135   2.280   6.402  0.00  0.00    +0.000 A 
ATOM     13  C   UNL     1      46.820   1.284   7.318  0.00  0.00    +0.000 A 
ATOM     14  C   UNL     1      46.040   1.588   8.439  0.00  0.00    +0.000 A 
ENDBRANCH   7   9
ENDBRANCH   2   3
BRANCH   2  15
ATOM     15  C   UNL     1      46.347   6.246  13.094  0.00  0.00    +0.000 C 
BRANCH  15  16
ATOM     16  N   UNL     1      46.831   4.945  13.555  0.00  0.00    +0.000 N 
ATOM     17  C   UNL     1      47.303   4.856  14.858  0.00  0.00    +0.000 A 
ATOM     18  C   UNL     1      48.150   5.805  15.417  0.00  0.00    +0.000 A 
ATOM     19  C   UNL     1      48.591   5.645  16.734  0.00  0.00    +0.000 A 
ATOM     20  C   UNL     1      48.196   4.529  17.467  0.00  0.00    +0.000 A 
ATOM     21  C   UNL     1      47.379   3.617  16.823  0.00  0.00    +0.000 A 
ATOM     22  N   UNL     1      46.924   3.760  15.546  0.00  0.00    +0.000 NA
ATOM     23  H   UNL     1      46.178   4.176  13.423  0.00  0.00    +0.000 HD
BRANCH  20  24
ATOM     24  C   UNL     1      48.659   4.397  18.870  0.00  0.00    +0.000 C 
ATOM     25  N   UNL     1      48.402   3.242  19.554  0.00  0.00    +0.000 N 
ATOM     26  O   UNL     1      49.268   5.309  19.425  0.00  0.00    +0.000 OA
ATOM     27  H   UNL     1      47.935   2.426  19.193  0.00  0.00    +0.000 HD
ATOM     28  H   UNL     1      48.741   3.202  20.510  0.00  0.00    +0.000 HD
ENDBRANCH  20  24
ENDBRANCH  15  16
ENDBRANCH   2  15
TORSDOF 5
ENDMDL
MODEL 4
REMARK VINA RESULT:    -7.756      2.870      4.956
REMARK INTER + INTRA:         -11.035
REMARK INTER:                 -10.452
REMARK INTRA:                  -0.583
REMARK UNBOUND:                -1.012
REMARK  Name = 
REMARK  6 active torsions:
REMARK  status: ('A' for Active; 'I' for Inactive)
REMARK    1  A    between atoms: C_1  and  C_2
REMARK    2  A    between atoms: C_2  and  C_3
REMARK    3  A    between atoms: C_2  and  C_14
REMARK    4  A    between atoms: C_3  and  N_4
REMARK    5  A    between atoms: C_8  and  C_9
REMARK    6  A    between atoms: C_18  and  C_19
REMARK                            x       y       z     vdW  Elec       q    Type
REMARK                         _______ _______ _______ _____ _____    ______ ____
ROOT
ATOM      1  C   UNL     1      42.515   5.389  11.688  0.00  0.00    +0.000 C 
ATOM      2  C   UNL     1      43.907   5.028  11.154  0.00  0.00    +0.000 C 
ENDROOT
BRANCH   2   3
ATOM      3  C   UNL     1      44.891   6.123  11.545  0.00  0.00    +0.000 A 
ATOM      4  C   UNL     1      46.183   5.791  11.967  0.00  0.00    +0.000 A 
ATOM      5  C   UNL     1      47.076   6.790  12.351  0.00  0.00    +0.000 A 
ATOM      6  C   UNL     1      46.691   8.134  12.320  0.00  0.00    +0.000 A 
ATOM      7  C   UNL     1      45.422   8.516  11.860  0.00  0.00    +0.000 A 
ATOM      8  C   UNL     1      44.551   7.482  11.464  0.00  0.00    +0.000 A 
BRANCH   7   9
ATOM      9  C   UNL     1      44.998   9.933  11.735  0.00  0.00    +0.000 A 
ATOM     10  C   UNL     1      45.927  10.989  11.772  0.00  0.00    +0.000 A 
ATOM     11  C   UNL     1      45.537  12.310  11.527  0.00  0.00    +0.000 A 
ATOM     12  C   UNL     1      44.210  12.610  11.236  0.00  0.00    +0.000 A 
ATOM     13  C   UNL     1      43.262  11.593  11.231  0.00  0.00    +0.000 A 
ATOM     14  C   UNL     1      43.651  10.277  11.500  0.00  0.00    +0.000 A 
ENDBRANCH   7   9
ENDBRANCH   2   3
BRANCH   2  15
ATOM     15  C   UNL     1      44.272   3.590  11.616  0.00  0.00    +0.000 C 
BRANCH  15  16
ATOM     16  N   UNL     1      44.037   2.599  10.567  0.00  0.00    +0.000 N 
ATOM     17  C   UNL     1      44.874   2.618   9.460  0.00  0.00    +0.000 A 
ATOM     18  C   UNL     1      45.233   3.793   8.809  0.00  0.00    +0.000 A 
ATOM     19  C   UNL     1      46.075   3.734   7.695  0.00  0.00    +0.000 A 
ATOM     20  C   UNL     1      46.531   2.502   7.234  0.00  0.00    +0.000 A 
ATOM     21  C   UNL     1      46.099   1.381   7.920  0.00  0.00    +0.000 A 
ATOM     22  N   UNL     1      45.291   1.415   9.018  0.00  0.00    +0.000 NA
ATOM     23  H   UNL     1      43.998   1.635  10.892  0.00  0.00    +0.000 HD
BRANCH  20  24
ATOM     24  C   UNL     1      47.443   2.471   6.065  0.00  0.00    +0.000 C 
ATOM     25  N   UNL     1      48.787   2.625   6.259  0.00  0.00    +0.000 N 
ATOM     26  O   UNL     1      47.009   2.310   4.926  0.00  0.00    +0.000 OA
ATOM     27  H   UNL     1      49.252   2.740   7.145  0.00  0.00    +0.000 HD
ATOM     28  H   UNL     1      49.367   2.596   5.427  0.00  0.00    +0.000 HD
ENDBRANCH  20  24
ENDBRANCH  15  16
ENDBRANCH   2  15
TORSDOF 5
ENDMDL
MODEL 5
REMARK VINA RESULT:    -7.444      2.407      3.174
REMARK INTER + INTRA:         -10.631
REMARK INTER:                  -9.685
REMARK INTRA:                  -0.946
REMARK UNBOUND:                -1.012
REMARK  Name = 
REMARK  6 active torsions:
REMARK  status: ('A' for Active; 'I' for Inactive)
REMARK    1  A    between atoms: C_1  and  C_2
REMARK    2  A    between atoms: C_2  and  C_3
REMARK    3  A    between atoms: C_2  and  C_14
REMARK    4  A    between atoms: C_3  and  N_4
REMARK    5  A    between atoms: C_8  and  C_9
REMARK    6  A    between atoms: C_18  and  C_19
REMARK                            x       y       z     vdW  Elec       q    Type
REMARK                         _______ _______ _______ _____ _____    ______ ____
ROOT
ATOM      1  C   UNL     1      42.848   5.046  12.913  0.00  0.00    +0.000 C 
ATOM      2  C   UNL     1      43.857   5.076  11.758  0.00  0.00    +0.000 C 
ENDROOT
BRANCH   2   3
ATOM      3  C   UNL     1      44.602   6.404  11.781  0.00  0.00    +0.000 A 
ATOM      4  C   UNL     1      43.941   7.589  11.436  0.00  0.00    +0.000 A 
ATOM      5  C   UNL     1      44.628   8.802  11.430  0.00  0.00    +0.000 A 
ATOM      6  C   UNL     1      45.984   8.849  11.769  0.00  0.00    +0.000 A 
ATOM      7  C   UNL     1      46.675   7.694  12.166  0.00  0.00    +0.000 A 
ATOM      8  C   UNL     1      45.945   6.489  12.176  0.00  0.00    +0.000 A 
BRANCH   7   9
ATOM      9  C   UNL     1      48.092   7.710  12.609  0.00  0.00    +0.000 A 
ATOM     10  C   UNL     1      49.117   8.212  11.789  0.00  0.00    +0.000 A 
ATOM     11  C   UNL     1      50.428   8.341  12.260  0.00  0.00    +0.000 A 
ATOM     12  C   UNL     1      50.748   7.976  13.564  0.00  0.00    +0.000 A 
ATOM     13  C   UNL     1      49.763   7.439  14.386  0.00  0.00    +0.000 A 
ATOM     14  C   UNL     1      48.458   7.289  13.905  0.00  0.00    +0.000 A 
ENDBRANCH   7   9
ENDBRANCH   2   3
BRANCH   2  15
ATOM     15  C   UNL     1      44.741   3.800  11.820  0.00  0.00    +0.000 C 
BRANCH  15  16
ATOM     16  N   UNL     1      44.360   2.817  10.808  0.00  0.00    +0.000 N 
ATOM     17  C   UNL     1      45.078   2.800   9.620  0.00  0.00    +0.000 A 
ATOM     18  C   UNL     1      45.414   3.958   8.928  0.00  0.00    +0.000 A 
ATOM     19  C   UNL     1      46.134   3.864   7.734  0.00  0.00    +0.000 A 
ATOM     20  C   UNL     1      46.491   2.613   7.236  0.00  0.00    +0.000 A 
ATOM     21  C   UNL     1      46.088   1.512   7.970  0.00  0.00    +0.000 A 
ATOM     22  N   UNL     1      45.400   1.580   9.145  0.00  0.00    +0.000 NA
ATOM     23  H   UNL     1      44.317   1.856  11.141  0.00  0.00    +0.000 HD
BRANCH  20  24
ATOM     24  C   UNL     1      47.275   2.543   5.979  0.00  0.00    +0.000 C 
ATOM     25  N   UNL     1      48.640   2.536   6.041  0.00  0.00    +0.000 N 
ATOM     26  O   UNL     1      46.717   2.492   4.885  0.00  0.00    +0.000 OA
ATOM     27  H   UNL     1      49.200   2.552   6.879  0.00  0.00    +0.000 HD
ATOM     28  H   UNL     1      49.130   2.487   5.153  0.00  0.00    +0.000 HD
ENDBRANCH  20  24
ENDBRANCH  15  16
ENDBRANCH   2  15
TORSDOF 5
ENDMDL
MODEL 6
REMARK VINA RESULT:    -7.033      4.389      7.964
REMARK INTER + INTRA:         -10.100
REMARK INTER:                  -8.794
REMARK INTRA:                  -1.306
REMARK UNBOUND:                -1.012
REMARK  Name = 
REMARK  6 active torsions:
REMARK  status: ('A' for Active; 'I' for Inactive)
REMARK    1  A    between atoms: C_1  and  C_2
REMARK    2  A    between atoms: C_2  and  C_3
REMARK    3  A    between atoms: C_2  and  C_14
REMARK    4  A    between atoms: C_3  and  N_4
REMARK    5  A    between atoms: C_8  and  C_9
REMARK    6  A    between atoms: C_18  and  C_19
REMARK                            x       y       z     vdW  Elec       q    Type
REMARK                         _______ _______ _______ _____ _____    ______ ____
ROOT
ATOM      1  C   UNL     1      49.700   9.081  11.287  0.00  0.00    +0.000 C 
ATOM      2  C   UNL     1      48.963   8.602  12.545  0.00  0.00    +0.000 C 
ENDROOT
BRANCH   2   3
ATOM      3  C   UNL     1      47.515   8.295  12.187  0.00  0.00    +0.000 A 
ATOM      4  C   UNL     1      46.544   9.301  12.256  0.00  0.00    +0.000 A 
ATOM      5  C   UNL     1      45.213   9.016  11.955  0.00  0.00    +0.000 A 
ATOM      6  C   UNL     1      44.832   7.722  11.583  0.00  0.00    +0.000 A 
ATOM      7  C   UNL     1      45.779   6.694  11.457  0.00  0.00    +0.000 A 
ATOM      8  C   UNL     1      47.117   7.022  11.752  0.00  0.00    +0.000 A 
BRANCH   7   9
ATOM      9  C   UNL     1      45.434   5.328  10.989  0.00  0.00    +0.000 A 
ATOM     10  C   UNL     1      45.094   4.302  11.889  0.00  0.00    +0.000 A 
ATOM     11  C   UNL     1      44.647   3.056  11.437  0.00  0.00    +0.000 A 
ATOM     12  C   UNL     1      44.525   2.804  10.074  0.00  0.00    +0.000 A 
ATOM     13  C   UNL     1      44.890   3.785   9.160  0.00  0.00    +0.000 A 
ATOM     14  C   UNL     1      45.359   5.022   9.614  0.00  0.00    +0.000 A 
ENDBRANCH   7   9
ENDBRANCH   2   3
BRANCH   2  15
ATOM     15  C   UNL     1      49.764   7.439  13.192  0.00  0.00    +0.000 C 
BRANCH  15  16
ATOM     16  N   UNL     1      49.810   7.546  14.649  0.00  0.00    +0.000 N 
ATOM     17  C   UNL     1      49.248   6.516  15.392  0.00  0.00    +0.000 A 
ATOM     18  C   UNL     1      48.014   5.954  15.083  0.00  0.00    +0.000 A 
ATOM     19  C   UNL     1      47.507   4.924  15.881  0.00  0.00    +0.000 A 
ATOM     20  C   UNL     1      48.229   4.483  16.987  0.00  0.00    +0.000 A 
ATOM     21  C   UNL     1      49.431   5.120  17.240  0.00  0.00    +0.000 A 
ATOM     22  N   UNL     1      49.953   6.115  16.468  0.00  0.00    +0.000 NA
ATOM     23  H   UNL     1      50.736   7.718  15.035  0.00  0.00    +0.000 HD
BRANCH  20  24
ATOM     24  C   UNL     1      47.679   3.373  17.801  0.00  0.00    +0.000 C 
ATOM     25  N   UNL     1      48.340   2.980  18.931  0.00  0.00    +0.000 N 
ATOM     26  O   UNL     1      46.641   2.802  17.476  0.00  0.00    +0.000 OA
ATOM     27  H   UNL     1      49.182   3.389  19.303  0.00  0.00    +0.000 HD
ATOM     28  H   UNL     1      47.923   2.216  19.453  0.00  0.00    +0.000 HD
ENDBRANCH  20  24
ENDBRANCH  15  16
ENDBRANCH   2  15
TORSDOF 5
ENDMDL
MODEL 7
REMARK VINA RESULT:    -6.923      3.037      4.764
REMARK INTER + INTRA:          -9.958
REMARK INTER:                  -8.758
REMARK INTRA:                  -1.200
REMARK UNBOUND:                -1.012
REMARK  Name = 
REMARK  6 active torsions:
REMARK  status: ('A' for Active; 'I' for Inactive)
REMARK    1  A    between atoms: C_1  and  C_2
REMARK    2  A    between atoms: C_2  and  C_3
REMARK    3  A    between atoms: C_2  and  C_14
REMARK    4  A    between atoms: C_3  and  N_4
REMARK    5  A    between atoms: C_8  and  C_9
REMARK    6  A    between atoms: C_18  and  C_19
REMARK                            x       y       z     vdW  Elec       q    Type
REMARK                         _______ _______ _______ _____ _____    ______ ____
ROOT
ATOM      1  C   UNL     1      48.822   8.934  11.764  0.00  0.00    +0.000 C 
ATOM      2  C   UNL     1      47.740   8.178  12.546  0.00  0.00    +0.000 C 
ENDROOT
BRANCH   2   3
ATOM      3  C   UNL     1      48.163   8.070  14.005  0.00  0.00    +0.000 A 
ATOM      4  C   UNL     1      48.387   9.226  14.761  0.00  0.00    +0.000 A 
ATOM      5  C   UNL     1      48.801   9.129  16.089  0.00  0.00    +0.000 A 
ATOM      6  C   UNL     1      48.998   7.877  16.680  0.00  0.00    +0.000 A 
ATOM      7  C   UNL     1      48.741   6.692  15.974  0.00  0.00    +0.000 A 
ATOM      8  C   UNL     1      48.308   6.827  14.640  0.00  0.00    +0.000 A 
BRANCH   7   9
ATOM      9  C   UNL     1      48.860   5.344  16.584  0.00  0.00    +0.000 A 
ATOM     10  C   UNL     1      47.887   4.350  16.379  0.00  0.00    +0.000 A 
ATOM     11  C   UNL     1      48.068   3.045  16.851  0.00  0.00    +0.000 A 
ATOM     12  C   UNL     1      49.228   2.700  17.538  0.00  0.00    +0.000 A 
ATOM     13  C   UNL     1      50.190   3.670  17.791  0.00  0.00    +0.000 A 
ATOM     14  C   UNL     1      49.996   4.979  17.338  0.00  0.00    +0.000 A 
ENDBRANCH   7   9
ENDBRANCH   2   3
BRANCH   2  15
ATOM     15  C   UNL     1      46.363   8.848  12.286  0.00  0.00    +0.000 C 
BRANCH  15  16
ATOM     16  N   UNL     1      45.269   8.125  12.934  0.00  0.00    +0.000 N 
ATOM     17  C   UNL     1      44.947   6.866  12.446  0.00  0.00    +0.000 A 
ATOM     18  C   UNL     1      44.842   6.590  11.087  0.00  0.00    +0.000 A 
ATOM     19  C   UNL     1      44.507   5.299  10.670  0.00  0.00    +0.000 A 
ATOM     20  C   UNL     1      44.261   4.306  11.614  0.00  0.00    +0.000 A 
ATOM     21  C   UNL     1      44.355   4.675  12.945  0.00  0.00    +0.000 A 
ATOM     22  N   UNL     1      44.696   5.922  13.375  0.00  0.00    +0.000 NA
ATOM     23  H   UNL     1      45.355   8.038  13.944  0.00  0.00    +0.000 HD
BRANCH  20  24
ATOM     24  C   UNL     1      43.932   2.939  11.143  0.00  0.00    +0.000 C 
ATOM     25  N   UNL     1      44.712   2.354  10.187  0.00  0.00    +0.000 N 
ATOM     26  O   UNL     1      42.968   2.327  11.599  0.00  0.00    +0.000 OA
ATOM     27  H   UNL     1      45.535   2.751   9.762  0.00  0.00    +0.000 HD
ATOM     28  H   UNL     1      44.444   1.418   9.899  0.00  0.00    +0.000 HD
ENDBRANCH  20  24
ENDBRANCH  15  16
ENDBRANCH   2  15
TORSDOF 5
ENDMDL
MODEL 8
REMARK VINA RESULT:    -6.838      3.291      5.857
REMARK INTER + INTRA:          -9.848
REMARK INTER:                  -9.109
REMARK INTRA:                  -0.740
REMARK UNBOUND:                -1.012
REMARK  Name = 
REMARK  6 active torsions:
REMARK  status: ('A' for Active; 'I' for Inactive)
REMARK    1  A    between atoms: C_1  and  C_2
REMARK    2  A    between atoms: C_2  and  C_3
REMARK    3  A    between atoms: C_2  and  C_14
REMARK    4  A    between atoms: C_3  and  N_4
REMARK    5  A    between atoms: C_8  and  C_9
REMARK    6  A    between atoms: C_18  and  C_19
REMARK                            x       y       z     vdW  Elec       q    Type
REMARK                         _______ _______ _______ _____ _____    ______ ____
ROOT
ATOM      1  C   UNL     1      48.392   2.583  16.484  0.00  0.00    +0.000 C 
ATOM      2  C   UNL     1      47.636   3.878  16.807  0.00  0.00    +0.000 C 
ENDROOT
BRANCH   2   3
ATOM      3  C   UNL     1      48.386   4.634  17.896  0.00  0.00    +0.000 A 
ATOM      4  C   UNL     1      49.649   4.198  18.314  0.00  0.00    +0.000 A 
ATOM      5  C   UNL     1      50.325   4.872  19.330  0.00  0.00    +0.000 A 
ATOM      6  C   UNL     1      49.750   5.990  19.943  0.00  0.00    +0.000 A 
ATOM      7  C   UNL     1      48.507   6.489  19.525  0.00  0.00    +0.000 A 
ATOM      8  C   UNL     1      47.859   5.793  18.485  0.00  0.00    +0.000 A 
BRANCH   7   9
ATOM      9  C   UNL     1      47.895   7.717  20.092  0.00  0.00    +0.000 A 
ATOM     10  C   UNL     1      47.474   8.780  19.273  0.00  0.00    +0.000 A 
ATOM     11  C   UNL     1      46.784   9.877  19.801  0.00  0.00    +0.000 A 
ATOM     12  C   UNL     1      46.494   9.937  21.161  0.00  0.00    +0.000 A 
ATOM     13  C   UNL     1      46.932   8.921  22.002  0.00  0.00    +0.000 A 
ATOM     14  C   UNL     1      47.642   7.837  21.475  0.00  0.00    +0.000 A 
ENDBRANCH   7   9
ENDBRANCH   2   3
BRANCH   2  15
ATOM     15  C   UNL     1      47.380   4.661  15.490  0.00  0.00    +0.000 C 
BRANCH  15  16
ATOM     16  N   UNL     1      46.057   4.382  14.933  0.00  0.00    +0.000 N 
ATOM     17  C   UNL     1      45.888   4.531  13.563  0.00  0.00    +0.000 A 
ATOM     18  C   UNL     1      46.382   5.623  12.859  0.00  0.00    +0.000 A 
ATOM     19  C   UNL     1      46.167   5.710  11.481  0.00  0.00    +0.000 A 
ATOM     20  C   UNL     1      45.444   4.715  10.828  0.00  0.00    +0.000 A 
ATOM     21  C   UNL     1      44.960   3.681  11.609  0.00  0.00    +0.000 A 
ATOM     22  N   UNL     1      45.171   3.567  12.951  0.00  0.00    +0.000 NA
ATOM     23  H   UNL     1      45.673   3.473  15.182  0.00  0.00    +0.000 HD
BRANCH  20  24
ATOM     24  C   UNL     1      45.251   4.820   9.361  0.00  0.00    +0.000 C 
ATOM     25  N   UNL     1      44.109   4.325   8.799  0.00  0.00    +0.000 N 
ATOM     26  O   UNL     1      46.103   5.343   8.645  0.00  0.00    +0.000 OA
ATOM     27  H   UNL     1      43.338   3.900   9.289  0.00  0.00    +0.000 HD
ATOM     28  H   UNL     1      44.025   4.422   7.791  0.00  0.00    +0.000 HD
ENDBRANCH  20  24
ENDBRANCH  15  16
ENDBRANCH   2  15
TORSDOF 5
ENDMDL
MODEL 9
REMARK VINA RESULT:    -6.837      3.066      5.590
REMARK INTER + INTRA:          -9.847
REMARK INTER:                  -8.961
REMARK INTRA:                  -0.886
REMARK UNBOUND:                -1.012
REMARK  Name = 
REMARK  6 active torsions:
REMARK  status: ('A' for Active; 'I' for Inactive)
REMARK    1  A    between atoms: C_1  and  C_2
REMARK    2  A    between atoms: C_2  and  C_3
REMARK    3  A    between atoms: C_2  and  C_14
REMARK    4  A    between atoms: C_3  and  N_4
REMARK    5  A    between atoms: C_8  and  C_9
REMARK    6  A    between atoms: C_18  and  C_19
REMARK                            x       y       z     vdW  Elec       q    Type
REMARK                         _______ _______ _______ _____ _____    ______ ____
ROOT
ATOM      1  C   UNL     1      48.313   8.928  15.479  0.00  0.00    +0.000 C 
ATOM      2  C   UNL     1      49.110   7.638  15.244  0.00  0.00    +0.000 C 
ENDROOT
BRANCH   2   3
ATOM      3  C   UNL     1      49.191   6.858  16.550  0.00  0.00    +0.000 A 
ATOM      4  C   UNL     1      48.489   7.298  17.678  0.00  0.00    +0.000 A 
ATOM      5  C   UNL     1      48.583   6.601  18.882  0.00  0.00    +0.000 A 
ATOM      6  C   UNL     1      49.380   5.455  18.976  0.00  0.00    +0.000 A 
ATOM      7  C   UNL     1      50.064   4.952  17.858  0.00  0.00    +0.000 A 
ATOM      8  C   UNL     1      49.933   5.672  16.655  0.00  0.00    +0.000 A 
BRANCH   7   9
ATOM      9  C   UNL     1      50.857   3.698  17.892  0.00  0.00    +0.000 A 
ATOM     10  C   UNL     1      50.360   2.494  17.362  0.00  0.00    +0.000 A 
ATOM     11  C   UNL     1      51.159   1.348  17.283  0.00  0.00    +0.000 A 
ATOM     12  C   UNL     1      52.478   1.377  17.728  0.00  0.00    +0.000 A 
ATOM     13  C   UNL     1      52.985   2.542  18.293  0.00  0.00    +0.000 A 
ATOM     14  C   UNL     1      52.176   3.678  18.393  0.00  0.00    +0.000 A 
ENDBRANCH   7   9
ENDBRANCH   2   3
BRANCH   2  15
ATOM     15  C   UNL     1      48.501   6.877  14.034  0.00  0.00    +0.000 C 
BRANCH  15  16
ATOM     16  N   UNL     1      47.219   6.255  14.364  0.00  0.00    +0.000 N 
ATOM     17  C   UNL     1      46.493   5.683  13.329  0.00  0.00    +0.000 A 
ATOM     18  C   UNL     1      46.315   6.308  12.101  0.00  0.00    +0.000 A 
ATOM     19  C   UNL     1      45.564   5.674  11.107  0.00  0.00    +0.000 A 
ATOM     20  C   UNL     1      44.985   4.433  11.360  0.00  0.00    +0.000 A 
ATOM     21  C   UNL     1      45.184   3.898  12.620  0.00  0.00    +0.000 A 
ATOM     22  N   UNL     1      45.925   4.490  13.599  0.00  0.00    +0.000 NA
ATOM     23  H   UNL     1      47.260   5.567  15.114  0.00  0.00    +0.000 HD
BRANCH  20  24
ATOM     24  C   UNL     1      44.214   3.772  10.279  0.00  0.00    +0.000 C 
ATOM     25  N   UNL     1      44.026   4.425   9.094  0.00  0.00    +0.000 N 
ATOM     26  O   UNL     1      43.742   2.648  10.434  0.00  0.00    +0.000 OA
ATOM     27  H   UNL     1      44.385   5.334   8.850  0.00  0.00    +0.000 HD
ATOM     28  H   UNL     1      43.491   3.929   8.387  0.00  0.00    +0.000 HD
ENDBRANCH  20  24
ENDBRANCH  15  16
ENDBRANCH   2  15
TORSDOF 5
ENDMDL
