MODEL 1
REMARK VINA RESULT:    -7.040      0.000      0.000
REMARK INTER + INTRA:          -9.081
REMARK INTER:                  -8.686
REMARK INTRA:                  -0.395
REMARK UNBOUND:                -0.395
REMARK  Name = 
REMARK  7 active torsions:
REMARK  status: ('A' for Active; 'I' for Inactive)
REMARK    1  A    between atoms: C_1  and  C_2
REMARK    2  A    between atoms: C_4  and  C_5
REMARK    3  A    between atoms: N_8  and  C_9
REMARK    4  A    between atoms: C_9  and  C_10
REMARK    5  A    between atoms: C_14  and  N_15
REMARK    6  A    between atoms: N_18  and  S_19
REMARK    7  A    between atoms: S_19  and  C_20
REMARK                            x       y       z     vdW  Elec       q    Type
REMARK                         _______ _______ _______ _____ _____    ______ ____
ROOT
ATOM      1  C   UNL     1      49.385   7.691  14.511  0.00  0.00    +0.000 A 
ATOM      2  C   UNL     1      50.127   8.292  13.505  0.00  0.00    +0.000 A 
ATOM      3  N   UNL     1      49.803   8.289  12.191  0.00  0.00    +0.000 NA
ATOM      4  C   UNL     1      48.666   7.630  11.860  0.00  0.00    +0.000 A 
ATOM      5  C   UNL     1      47.840   6.950  12.755  0.00  0.00    +0.000 A 
ATOM      6  C   UNL     1      48.238   6.996  14.086  0.00  0.00    +0.000 A 
ENDROOT
BRANCH   5   7
ATOM      7  N   UNL     1      46.728   6.216  12.400  0.00  0.00    +0.000 N 
ATOM      8  C   UNL     1      46.195   6.244  11.024  0.00  0.00    +0.000 C 
ATOM      9  C   UNL     1      44.656   6.248  11.054  0.00  0.00    +0.000 C 
ATOM     10  N   UNL     1      44.111   5.113  11.872  0.00  0.00    +0.000 NA
ATOM     11  C   UNL     1      44.663   5.183  13.267  0.00  0.00    +0.000 C 
ATOM     12  C   UNL     1      46.208   5.188  13.304  0.00  0.00    +0.000 C 
BRANCH  10  13
ATOM     13  S   UNL     1      44.151   3.594  11.115  0.00  0.00    +0.000 S 
ATOM     14  C   UNL     1      44.193   4.060   9.399  0.00  0.00    +0.000 C 
ATOM     15  O   UNL     1      45.420   2.974  11.427  0.00  0.00    +0.000 OA
ATOM     16  O   UNL     1      42.901   2.912  11.369  0.00  0.00    +0.000 OA
ENDBRANCH  10  13
ENDBRANCH   5   7
BRANCH   1  17
ATOM     17  C   UNL     1      49.708   7.798  15.986  0.00  0.00    +0.000 C 
ATOM     18  C   UNL     1      49.965   9.179  16.573  0.00  0.00    +0.000 C 
ATOM     19  C   UNL     1      48.659   8.506  16.831  0.00  0.00    +0.000 C 
BRANCH  17  27
ATOM     20  C   UNL     1      47.334   3.092  17.420  0.00  0.00    +0.000 C 
ATOM     21  C   UNL     1      48.727   3.641  17.367  0.00  0.00    +0.000 A 
ATOM     22  C   UNL     1      49.830   2.857  17.709  0.00  0.00    +0.000 A 
ATOM     23  C   UNL     1      51.095   3.413  17.625  0.00  0.00    +0.000 A 
ATOM     24  C   UNL     1      52.316   2.639  18.026  0.00  0.00    +0.000 C 
ATOM     25  N   UNL     1      51.306   4.682  17.200  0.00  0.00    +0.000 NA
ATOM     26  C   UNL     1      50.244   5.449  16.876  0.00  0.00    +0.000 A 
ATOM     27  N   UNL     1      50.572   6.749  16.507  0.00  0.00    +0.000 N 
ATOM     28  C   UNL     1      48.945   4.960  16.961  0.00  0.00    +0.000 A 
ATOM     29  H   UNL     1      51.579   6.810  16.408  0.00  0.00    +0.000 HD
ENDBRANCH  17  27
ENDBRANCH   1  17
TORSDOF 4
ENDMDL
MODEL 2
REMARK VINA RESULT:    -7.009      1.577      3.002
REMARK INTER + INTRA:          -9.043
REMARK INTER:                  -8.623
REMARK INTRA:                  -0.420
REMARK UNBOUND:                -0.395
REMARK  Name = 
REMARK  7 active torsions:
REMARK  status: ('A' for Active; 'I' for Inactive)
REMARK    1  A    between atoms: C_1  and  C_2
REMARK    2  A    between atoms: C_4  and  C_5
REMARK    3  A    between atoms: N_8  and  C_9
REMARK    4  A    between atoms: C_9  and  C_10
REMARK    5  A    between atoms: C_14  and  N_15
REMARK    6  A    between atoms: N_18  and  S_19
REMARK    7  A    between atoms: S_19  and  C_20
REMARK                            x       y       z     vdW  Elec       q    Type
REMARK                         _______ _______ _______ _____ _____    ______ ____
ROOT
ATOM      1  C   UNL     1      48.312   8.530  12.535  0.00  0.00    +0.000 A 
ATOM      2  C   UNL     1      47.706   9.769  12.388  0.00  0.00    +0.000 A 
ATOM      3  N   UNL     1      46.388   9.967  12.151  0.00  0.00    +0.000 NA
ATOM      4  C   UNL     1      45.629   8.851  12.039  0.00  0.00    +0.000 A 
ATOM      5  C   UNL     1      46.104   7.543  12.125  0.00  0.00    +0.000 A 
ATOM      6  C   UNL     1      47.466   7.418  12.370  0.00  0.00    +0.000 A 
ENDROOT
BRANCH   5   7
ATOM      7  N   UNL     1      45.339   6.411  11.933  0.00  0.00    +0.000 N 
ATOM      8  C   UNL     1      45.324   5.704  10.637  0.00  0.00    +0.000 C 
ATOM      9  C   UNL     1      43.898   5.223  10.315  0.00  0.00    +0.000 C 
ATOM     10  N   UNL     1      43.319   4.408  11.435  0.00  0.00    +0.000 NA
ATOM     11  C   UNL     1      43.327   5.212  12.704  0.00  0.00    +0.000 C 
ATOM     12  C   UNL     1      44.733   5.730  13.079  0.00  0.00    +0.000 C 
BRANCH  10  13
ATOM     13  S   UNL     1      43.896   2.815  11.542  0.00  0.00    +0.000 S 
ATOM     14  C   UNL     1      44.530   2.562   9.899  0.00  0.00    +0.000 C 
ATOM     15  O   UNL     1      45.025   2.810  12.447  0.00  0.00    +0.000 OA
ATOM     16  O   UNL     1      42.775   1.923  11.738  0.00  0.00    +0.000 OA
ENDBRANCH  10  13
ENDBRANCH   5   7
BRANCH   1  17
ATOM     17  C   UNL     1      49.766   8.333  12.908  0.00  0.00    +0.000 C 
ATOM     18  C   UNL     1      50.811   8.385  11.802  0.00  0.00    +0.000 C 
ATOM     19  C   UNL     1      50.656   9.553  12.718  0.00  0.00    +0.000 C 
BRANCH  17  27
ATOM     20  C   UNL     1      47.934   9.365  17.949  0.00  0.00    +0.000 C 
ATOM     21  C   UNL     1      48.633   8.239  17.250  0.00  0.00    +0.000 A 
ATOM     22  C   UNL     1      48.938   7.050  17.914  0.00  0.00    +0.000 A 
ATOM     23  C   UNL     1      49.570   6.038  17.212  0.00  0.00    +0.000 A 
ATOM     24  C   UNL     1      49.970   4.756  17.882  0.00  0.00    +0.000 C 
ATOM     25  N   UNL     1      49.882   6.147  15.899  0.00  0.00    +0.000 NA
ATOM     26  C   UNL     1      49.598   7.298  15.252  0.00  0.00    +0.000 A 
ATOM     27  N   UNL     1      50.011   7.321  13.925  0.00  0.00    +0.000 N 
ATOM     28  C   UNL     1      48.986   8.362  15.904  0.00  0.00    +0.000 A 
ATOM     29  H   UNL     1      50.313   6.388  13.665  0.00  0.00    +0.000 HD
ENDBRANCH  17  27
ENDBRANCH   1  17
TORSDOF 4
ENDMDL
MODEL 3
REMARK VINA RESULT:    -6.137      1.603      2.533
REMARK INTER + INTRA:          -7.967
REMARK INTER:                  -8.052
REMARK INTRA:                   0.085
REMARK UNBOUND:                -0.395
REMARK  Name = 
REMARK  7 active torsions:
REMARK  status: ('A' for Active; 'I' for Inactive)
REMARK    1  A    between atoms: C_1  and  C_2
REMARK    2  A    between atoms: C_4  and  C_5
REMARK    3  A    between atoms: N_8  and  C_9
REMARK    4  A    between atoms: C_9  and  C_10
REMARK    5  A    between atoms: C_14  and  N_15
REMARK    6  A    between atoms: N_18  and  S_19
REMARK    7  A    between atoms: S_19  and  C_20
REMARK                            x       y       z     vdW  Elec       q    Type
REMARK                         _______ _______ _______ _____ _____    ______ ____
ROOT
ATOM      1  C   UNL     1      49.106   8.396  13.917  0.00  0.00    +0.000 A 
ATOM      2  C   UNL     1      48.795   9.685  13.509  0.00  0.00    +0.000 A 
ATOM      3  N   UNL     1      47.698  10.032  12.797  0.00  0.00    +0.000 NA
ATOM      4  C   UNL     1      46.863   9.019  12.459  0.00  0.00    +0.000 A 
ATOM      5  C   UNL     1      47.064   7.674  12.766  0.00  0.00    +0.000 A 
ATOM      6  C   UNL     1      48.212   7.394  13.498  0.00  0.00    +0.000 A 
ENDROOT
BRANCH   5   7
ATOM      7  N   UNL     1      46.250   6.640  12.351  0.00  0.00    +0.000 N 
ATOM      8  C   UNL     1      45.829   5.573  13.279  0.00  0.00    +0.000 C 
ATOM      9  C   UNL     1      45.838   4.213  12.559  0.00  0.00    +0.000 C 
ATOM     10  N   UNL     1      45.027   4.246  11.296  0.00  0.00    +0.000 NA
ATOM     11  C   UNL     1      45.546   5.324  10.388  0.00  0.00    +0.000 C 
ATOM     12  C   UNL     1      45.568   6.716  11.057  0.00  0.00    +0.000 C 
BRANCH  10  13
ATOM     13  S   UNL     1      43.345   4.185  11.517  0.00  0.00    +0.000 S 
ATOM     14  C   UNL     1      43.200   4.635  13.232  0.00  0.00    +0.000 C 
ATOM     15  O   UNL     1      42.754   5.252  10.738  0.00  0.00    +0.000 OA
ATOM     16  O   UNL     1      42.903   2.816  11.368  0.00  0.00    +0.000 OA
ENDBRANCH  10  13
ENDBRANCH   5   7
BRANCH   1  17
ATOM     17  C   UNL     1      50.282   8.045  14.804  0.00  0.00    +0.000 C 
ATOM     18  C   UNL     1      51.680   8.424  14.338  0.00  0.00    +0.000 C 
ATOM     19  C   UNL     1      51.020   9.233  15.404  0.00  0.00    +0.000 C 
BRANCH  17  27
ATOM     20  C   UNL     1      47.454   7.804  19.471  0.00  0.00    +0.000 C 
ATOM     21  C   UNL     1      48.186   6.841  18.587  0.00  0.00    +0.000 A 
ATOM     22  C   UNL     1      48.219   5.475  18.872  0.00  0.00    +0.000 A 
ATOM     23  C   UNL     1      48.898   4.631  18.008  0.00  0.00    +0.000 A 
ATOM     24  C   UNL     1      49.013   3.161  18.285  0.00  0.00    +0.000 C 
ATOM     25  N   UNL     1      49.509   5.076  16.885  0.00  0.00    +0.000 NA
ATOM     26  C   UNL     1      49.489   6.397  16.608  0.00  0.00    +0.000 A 
ATOM     27  N   UNL     1      50.193   6.749  15.463  0.00  0.00    +0.000 N 
ATOM     28  C   UNL     1      48.846   7.302  17.445  0.00  0.00    +0.000 A 
ATOM     29  H   UNL     1      50.458   5.901  14.974  0.00  0.00    +0.000 HD
ENDBRANCH  17  27
ENDBRANCH   1  17
TORSDOF 4
ENDMDL
MODEL 4
REMARK VINA RESULT:    -6.111      3.840      7.246
REMARK INTER + INTRA:          -7.935
REMARK INTER:                  -7.504
REMARK INTRA:                  -0.431
REMARK UNBOUND:                -0.395
REMARK  Name = 
REMARK  7 active torsions:
REMARK  status: ('A' for Active; 'I' for Inactive)
REMARK    1  A    between atoms: C_1  and  C_2
REMARK    2  A    between atoms: C_4  and  C_5
REMARK    3  A    between atoms: N_8  and  C_9
REMARK    4  A    between atoms: C_9  and  C_10
REMARK    5  A    between atoms: C_14  and  N_15
REMARK    6  A    between atoms: N_18  and  S_19
REMARK    7  A    between atoms: S_19  and  C_20
REMARK                            x       y       z     vdW  Elec       q    Type
REMARK                         _______ _______ _______ _____ _____    ______ ____
ROOT
ATOM      1  C   UNL     1      48.416  10.084  12.267  0.00  0.00    +0.000 A 
ATOM      2  C   UNL     1      49.667   9.686  11.818  0.00  0.00    +0.000 A 
ATOM      3  N   UNL     1      50.007   8.419  11.486  0.00  0.00    +0.000 NA
ATOM      4  C   UNL     1      49.034   7.486  11.625  0.00  0.00    +0.000 A 
ATOM      5  C   UNL     1      47.746   7.731  12.098  0.00  0.00    +0.000 A 
ATOM      6  C   UNL     1      47.470   9.055  12.420  0.00  0.00    +0.000 A 
ENDROOT
BRANCH   5   7
ATOM      7  N   UNL     1      46.786   6.763  12.311  0.00  0.00    +0.000 N 
ATOM      8  C   UNL     1      45.416   6.909  11.782  0.00  0.00    +0.000 C 
ATOM      9  C   UNL     1      44.395   6.394  12.811  0.00  0.00    +0.000 C 
ATOM     10  N   UNL     1      44.707   4.993  13.253  0.00  0.00    +0.000 NA
ATOM     11  C   UNL     1      46.097   4.939  13.821  0.00  0.00    +0.000 C 
ATOM     12  C   UNL     1      47.170   5.450  12.834  0.00  0.00    +0.000 C 
BRANCH  10  13
ATOM     13  S   UNL     1      44.292   3.777  12.144  0.00  0.00    +0.000 S 
ATOM     14  C   UNL     1      42.962   4.554  11.255  0.00  0.00    +0.000 C 
ATOM     15  O   UNL     1      45.395   3.618  11.222  0.00  0.00    +0.000 OA
ATOM     16  O   UNL     1      43.753   2.647  12.869  0.00  0.00    +0.000 OA
ENDBRANCH  10  13
ENDBRANCH   5   7
BRANCH   1  17
ATOM     17  C   UNL     1      48.025  11.523  12.529  0.00  0.00    +0.000 C 
ATOM     18  C   UNL     1      48.811  12.310  13.569  0.00  0.00    +0.000 C 
ATOM     19  C   UNL     1      49.059  12.562  12.120  0.00  0.00    +0.000 C 
BRANCH  17  27
ATOM     20  C   UNL     1      45.609  12.171   7.673  0.00  0.00    +0.000 C 
ATOM     21  C   UNL     1      45.183  12.143   9.110  0.00  0.00    +0.000 A 
ATOM     22  C   UNL     1      43.841  12.265   9.472  0.00  0.00    +0.000 A 
ATOM     23  C   UNL     1      43.506  12.215  10.815  0.00  0.00    +0.000 A 
ATOM     24  C   UNL     1      42.089  12.390  11.272  0.00  0.00    +0.000 C 
ATOM     25  N   UNL     1      44.428  12.027  11.789  0.00  0.00    +0.000 NA
ATOM     26  C   UNL     1      45.730  11.918  11.447  0.00  0.00    +0.000 A 
ATOM     27  N   UNL     1      46.593  11.784  12.528  0.00  0.00    +0.000 N 
ATOM     28  C   UNL     1      46.136  11.983  10.119  0.00  0.00    +0.000 A 
ATOM     29  H   UNL     1      46.040  11.641  13.366  0.00  0.00    +0.000 HD
ENDBRANCH  17  27
ENDBRANCH   1  17
TORSDOF 4
ENDMDL
MODEL 5
REMARK VINA RESULT:    -6.096      3.204      5.176
REMARK INTER + INTRA:          -7.917
REMARK INTER:                  -7.625
REMARK INTRA:                  -0.292
REMARK UNBOUND:                -0.395
REMARK  Name = 
REMARK  7 active torsions:
REMARK  status: ('A' for Active; 'I' for Inactive)
REMARK    1  A    between atoms: C_1  and  C_2
REMARK    2  A    between atoms: C_4  and  C_5
REMARK    3  A    between atoms: N_8  and  C_9
REMARK    4  A    between atoms: C_9  and  C_10
REMARK    5  A    between atoms: C_14  and  N_15
REMARK    6  A    between atoms: N_18  and  S_19
REMARK    7  A    between atoms: S_19  and  C_20
REMARK                            x       y       z     vdW  Elec       q    Type
REMARK                         _______ _______ _______ _____ _____    ______ ____
ROOT
ATOM      1  C   UNL     1      47.435   8.951  13.152  0.00  0.00    +0.000 A 
ATOM      2  C   UNL     1      46.926  10.080  12.526  0.00  0.00    +0.000 A 
ATOM      3  N   UNL     1      45.788  10.117  11.794  0.00  0.00    +0.000 NA
ATOM      4  C   UNL     1      45.121   8.944  11.671  0.00  0.00    +0.000 A 
ATOM      5  C   UNL     1      45.530   7.726  12.211  0.00  0.00    +0.000 A 
ATOM      6  C   UNL     1      46.707   7.765  12.949  0.00  0.00    +0.000 A 
ENDROOT
BRANCH   5   7
ATOM      7  N   UNL     1      44.887   6.521  12.016  0.00  0.00    +0.000 N 
ATOM      8  C   UNL     1      44.904   5.844  10.704  0.00  0.00    +0.000 C 
ATOM      9  C   UNL     1      43.530   5.215  10.417  0.00  0.00    +0.000 C 
ATOM     10  N   UNL     1      43.083   4.317  11.535  0.00  0.00    +0.000 NA
ATOM     11  C   UNL     1      43.047   5.090  12.822  0.00  0.00    +0.000 C 
ATOM     12  C   UNL     1      44.400   5.753  13.164  0.00  0.00    +0.000 C 
BRANCH  10  13
ATOM     13  S   UNL     1      43.835   2.796  11.584  0.00  0.00    +0.000 S 
ATOM     14  C   UNL     1      44.524   2.694   9.947  0.00  0.00    +0.000 C 
ATOM     15  O   UNL     1      44.940   2.875  12.515  0.00  0.00    +0.000 OA
ATOM     16  O   UNL     1      42.819   1.776  11.712  0.00  0.00    +0.000 OA
ENDBRANCH  10  13
ENDBRANCH   5   7
BRANCH   1  17
ATOM     17  C   UNL     1      48.650   8.955  14.055  0.00  0.00    +0.000 C 
ATOM     18  C   UNL     1      48.435   8.885  15.560  0.00  0.00    +0.000 C 
ATOM     19  C   UNL     1      48.888   7.667  14.829  0.00  0.00    +0.000 C 
BRANCH  17  27
ATOM     20  C   UNL     1      51.950   7.176  10.081  0.00  0.00    +0.000 C 
ATOM     21  C   UNL     1      51.798   8.423  10.899  0.00  0.00    +0.000 A 
ATOM     22  C   UNL     1      52.617   9.533  10.689  0.00  0.00    +0.000 A 
ATOM     23  C   UNL     1      52.419  10.664  11.464  0.00  0.00    +0.000 A 
ATOM     24  C   UNL     1      53.298  11.870  11.322  0.00  0.00    +0.000 C 
ATOM     25  N   UNL     1      51.445  10.742  12.402  0.00  0.00    +0.000 NA
ATOM     26  C   UNL     1      50.655   9.669  12.617  0.00  0.00    +0.000 A 
ATOM     27  N   UNL     1      49.727   9.842  13.637  0.00  0.00    +0.000 N 
ATOM     28  C   UNL     1      50.816   8.495  11.890  0.00  0.00    +0.000 A 
ATOM     29  H   UNL     1      49.733  10.816  13.917  0.00  0.00    +0.000 HD
ENDBRANCH  17  27
ENDBRANCH   1  17
TORSDOF 4
ENDMDL
MODEL 6
REMARK VINA RESULT:    -5.945      1.773      2.551
REMARK INTER + INTRA:          -7.730
REMARK INTER:                  -7.706
REMARK INTRA:                  -0.024
REMARK UNBOUND:                -0.395
REMARK  Name = 
REMARK  7 active torsions:
REMARK  status: ('A' for Active; 'I' for Inactive)
REMARK    1  A    between atoms: C_1  and  C_2
REMARK    2  A    between atoms: C_4  and  C_5
REMARK    3  A    between atoms: N_8  and  C_9
REMARK    4  A    between atoms: C_9  and  C_10
REMARK    5  A    between atoms: C_14  and  N_15
REMARK    6  A    between atoms: N_18  and  S_19
REMARK    7  A    between atoms: S_19  and  C_20
REMARK                            x       y       z     vdW  Elec       q    Type
REMARK                         _______ _______ _______ _____ _____    ______ ____
ROOT
ATOM      1  C   UNL     1      50.281   7.799  14.254  0.00  0.00    +0.000 A 
ATOM      2  C   UNL     1      50.755   8.500  13.155  0.00  0.00    +0.000 A 
ATOM      3  N   UNL     1      50.151   8.549  11.945  0.00  0.00    +0.000 NA
ATOM      4  C   UNL     1      49.003   7.839  11.823  0.00  0.00    +0.000 A 
ATOM      5  C   UNL     1      48.428   7.061  12.826  0.00  0.00    +0.000 A 
ATOM      6  C   UNL     1      49.104   7.058  14.041  0.00  0.00    +0.000 A 
ENDROOT
BRANCH   5   7
ATOM      7  N   UNL     1      47.302   6.280  12.671  0.00  0.00    +0.000 N 
ATOM      8  C   UNL     1      46.902   5.294  13.695  0.00  0.00    +0.000 C 
ATOM      9  C   UNL     1      46.375   4.016  13.020  0.00  0.00    +0.000 C 
ATOM     10  N   UNL     1      45.282   4.316  12.035  0.00  0.00    +0.000 NA
ATOM     11  C   UNL     1      45.781   5.286  11.003  0.00  0.00    +0.000 C 
ATOM     12  C   UNL     1      46.331   6.592  11.620  0.00  0.00    +0.000 C 
BRANCH  10  13
ATOM     13  S   UNL     1      43.765   4.651  12.720  0.00  0.00    +0.000 S 
ATOM     14  C   UNL     1      42.753   4.818  11.266  0.00  0.00    +0.000 C 
ATOM     15  O   UNL     1      43.322   3.465  13.422  0.00  0.00    +0.000 OA
ATOM     16  O   UNL     1      43.824   5.935  13.382  0.00  0.00    +0.000 OA
ENDBRANCH  10  13
ENDBRANCH   5   7
BRANCH   1  17
ATOM     17  C   UNL     1      50.913   7.845  15.629  0.00  0.00    +0.000 C 
ATOM     18  C   UNL     1      52.243   7.134  15.839  0.00  0.00    +0.000 C 
ATOM     19  C   UNL     1      52.220   8.620  15.718  0.00  0.00    +0.000 C 
BRANCH  17  27
ATOM     20  C   UNL     1      49.757   2.806  17.393  0.00  0.00    +0.000 C 
ATOM     21  C   UNL     1      49.395   4.208  17.779  0.00  0.00    +0.000 A 
ATOM     22  C   UNL     1      48.583   4.471  18.883  0.00  0.00    +0.000 A 
ATOM     23  C   UNL     1      48.296   5.788  19.201  0.00  0.00    +0.000 A 
ATOM     24  C   UNL     1      47.390   6.134  20.344  0.00  0.00    +0.000 C 
ATOM     25  N   UNL     1      48.794   6.832  18.497  0.00  0.00    +0.000 NA
ATOM     26  C   UNL     1      49.573   6.586  17.422  0.00  0.00    +0.000 A 
ATOM     27  N   UNL     1      49.982   7.727  16.742  0.00  0.00    +0.000 N 
ATOM     28  C   UNL     1      49.880   5.286  17.034  0.00  0.00    +0.000 A 
ATOM     29  H   UNL     1      49.729   8.539  17.295  0.00  0.00    +0.000 HD
ENDBRANCH  17  27
ENDBRANCH   1  17
TORSDOF 4
ENDMDL
MODEL 7
REMARK VINA RESULT:    -5.793      3.160      5.624
REMARK INTER + INTRA:          -7.542
REMARK INTER:                  -7.846
REMARK INTRA:                   0.304
REMARK UNBOUND:                -0.395
REMARK  Name = 
REMARK  7 active torsions:
REMARK  status: ('A' for Active; 'I' for Inactive)
REMARK    1  A    between atoms: C_1  and  C_2
REMARK    2  A    between atoms: C_4  and  C_5
REMARK    3  A    between atoms: N_8  and  C_9
REMARK    4  A    between atoms: C_9  and  C_10
REMARK    5  A    between atoms: C_14  and  N_15
REMARK    6  A    between atoms: N_18  and  S_19
REMARK    7  A    between atoms: S_19  and  C_20
REMARK                            x       y       z     vdW  Elec       q    Type
REMARK                         _______ _______ _______ _____ _____    ______ ____
ROOT
ATOM      1  C   UNL     1      48.674   8.349  12.686  0.00  0.00    +0.000 A 
ATOM      2  C   UNL     1      48.143   9.623  12.538  0.00  0.00    +0.000 A 
ATOM      3  N   UNL     1      46.844   9.898  12.279  0.00  0.00    +0.000 NA
ATOM      4  C   UNL     1      46.023   8.828  12.146  0.00  0.00    +0.000 A 
ATOM      5  C   UNL     1      46.420   7.494  12.231  0.00  0.00    +0.000 A 
ATOM      6  C   UNL     1      47.769   7.289  12.499  0.00  0.00    +0.000 A 
ENDROOT
BRANCH   5   7
ATOM      7  N   UNL     1      45.595   6.410  12.017  0.00  0.00    +0.000 N 
ATOM      8  C   UNL     1      45.526   5.743  10.702  0.00  0.00    +0.000 C 
ATOM      9  C   UNL     1      44.073   5.346  10.387  0.00  0.00    +0.000 C 
ATOM     10  N   UNL     1      43.466   4.530  11.492  0.00  0.00    +0.000 NA
ATOM     11  C   UNL     1      43.532   5.295  12.783  0.00  0.00    +0.000 C 
ATOM     12  C   UNL     1      44.968   5.728  13.152  0.00  0.00    +0.000 C 
BRANCH  10  13
ATOM     13  S   UNL     1      43.961   2.907  11.545  0.00  0.00    +0.000 S 
ATOM     14  C   UNL     1      44.583   2.677   9.894  0.00  0.00    +0.000 C 
ATOM     15  O   UNL     1      45.086   2.813  12.449  0.00  0.00    +0.000 OA
ATOM     16  O   UNL     1      42.795   2.068  11.710  0.00  0.00    +0.000 OA
ENDBRANCH  10  13
ENDBRANCH   5   7
BRANCH   1  17
ATOM     17  C   UNL     1      50.107   8.066  13.083  0.00  0.00    +0.000 C 
ATOM     18  C   UNL     1      50.786   9.008  14.068  0.00  0.00    +0.000 C 
ATOM     19  C   UNL     1      50.313   7.673  14.538  0.00  0.00    +0.000 C 
BRANCH  17  27
ATOM     20  C   UNL     1      51.857  11.791   9.491  0.00  0.00    +0.000 C 
ATOM     21  C   UNL     1      52.053  10.324   9.726  0.00  0.00    +0.000 A 
ATOM     22  C   UNL     1      52.908   9.568   8.923  0.00  0.00    +0.000 A 
ATOM     23  C   UNL     1      53.061   8.219   9.198  0.00  0.00    +0.000 A 
ATOM     24  C   UNL     1      53.926   7.343   8.342  0.00  0.00    +0.000 C 
ATOM     25  N   UNL     1      52.433   7.611  10.233  0.00  0.00    +0.000 NA
ATOM     26  C   UNL     1      51.598   8.334  11.008  0.00  0.00    +0.000 A 
ATOM     27  N   UNL     1      50.966   7.598  12.004  0.00  0.00    +0.000 N 
ATOM     28  C   UNL     1      51.380   9.687  10.772  0.00  0.00    +0.000 A 
ATOM     29  H   UNL     1      51.388   6.677  12.040  0.00  0.00    +0.000 HD
ENDBRANCH  17  27
ENDBRANCH   1  17
TORSDOF 4
ENDMDL
MODEL 8
REMARK VINA RESULT:    -5.700      2.048      5.041
REMARK INTER + INTRA:          -7.428
REMARK INTER:                  -7.241
REMARK INTRA:                  -0.188
REMARK UNBOUND:                -0.395
REMARK  Name = 
REMARK  7 active torsions:
REMARK  status: ('A' for Active; 'I' for Inactive)
REMARK    1  A    between atoms: C_1  and  C_2
REMARK    2  A    between atoms: C_4  and  C_5
REMARK    3  A    between atoms: N_8  and  C_9
REMARK    4  A    between atoms: C_9  and  C_10
REMARK    5  A    between atoms: C_14  and  N_15
REMARK    6  A    between atoms: N_18  and  S_19
REMARK    7  A    between atoms: S_19  and  C_20
REMARK                            x       y       z     vdW  Elec       q    Type
REMARK                         _______ _______ _______ _____ _____    ______ ____
ROOT
ATOM      1  C   UNL     1      48.783   6.067  16.098  0.00  0.00    +0.000 A 
ATOM      2  C   UNL     1      48.810   5.042  17.033  0.00  0.00    +0.000 A 
ATOM      3  N   UNL     1      48.109   3.888  16.942  0.00  0.00    +0.000 NA
ATOM      4  C   UNL     1      47.318   3.756  15.849  0.00  0.00    +0.000 A 
ATOM      5  C   UNL     1      47.162   4.715  14.849  0.00  0.00    +0.000 A 
ATOM      6  C   UNL     1      47.912   5.874  15.010  0.00  0.00    +0.000 A 
ENDROOT
BRANCH   5   7
ATOM      7  N   UNL     1      46.296   4.606  13.781  0.00  0.00    +0.000 N 
ATOM      8  C   UNL     1      45.591   5.785  13.239  0.00  0.00    +0.000 C 
ATOM      9  C   UNL     1      44.149   5.407  12.857  0.00  0.00    +0.000 C 
ATOM     10  N   UNL     1      44.108   4.223  11.935  0.00  0.00    +0.000 NA
ATOM     11  C   UNL     1      44.803   3.056  12.576  0.00  0.00    +0.000 C 
ATOM     12  C   UNL     1      46.257   3.374  12.989  0.00  0.00    +0.000 C 
BRANCH  10  13
ATOM     13  S   UNL     1      44.512   4.553  10.319  0.00  0.00    +0.000 S 
ATOM     14  C   UNL     1      44.859   2.920   9.705  0.00  0.00    +0.000 C 
ATOM     15  O   UNL     1      43.320   5.024   9.649  0.00  0.00    +0.000 OA
ATOM     16  O   UNL     1      45.739   5.318  10.291  0.00  0.00    +0.000 OA
ENDBRANCH  10  13
ENDBRANCH   5   7
BRANCH   1  17
ATOM     17  C   UNL     1      49.656   7.302  16.165  0.00  0.00    +0.000 C 
ATOM     18  C   UNL     1      50.309   7.657  17.494  0.00  0.00    +0.000 C 
ATOM     19  C   UNL     1      51.134   7.040  16.415  0.00  0.00    +0.000 C 
BRANCH  17  27
ATOM     20  C   UNL     1      51.118   7.615  10.911  0.00  0.00    +0.000 C 
ATOM     21  C   UNL     1      50.264   8.404  11.856  0.00  0.00    +0.000 A 
ATOM     22  C   UNL     1      49.555   9.528  11.428  0.00  0.00    +0.000 A 
ATOM     23  C   UNL     1      48.769  10.208  12.343  0.00  0.00    +0.000 A 
ATOM     24  C   UNL     1      48.023  11.451  11.958  0.00  0.00    +0.000 C 
ATOM     25  N   UNL     1      48.641   9.810  13.631  0.00  0.00    +0.000 NA
ATOM     26  C   UNL     1      49.331   8.730  14.055  0.00  0.00    +0.000 A 
ATOM     27  N   UNL     1      49.169   8.445  15.406  0.00  0.00    +0.000 N 
ATOM     28  C   UNL     1      50.157   8.016  13.194  0.00  0.00    +0.000 A 
ATOM     29  H   UNL     1      48.428   9.033  15.772  0.00  0.00    +0.000 HD
ENDBRANCH  17  27
ENDBRANCH   1  17
TORSDOF 4
ENDMDL
MODEL 9
REMARK VINA RESULT:    -5.515      3.784      7.152
REMARK INTER + INTRA:          -7.200
REMARK INTER:                  -6.756
REMARK INTRA:                  -0.444
REMARK UNBOUND:                -0.395
REMARK  Name = 
REMARK  7 active torsions:
REMARK  status: ('A' for Active; 'I' for Inactive)
REMARK    1  A    between atoms: C_1  and  C_2
REMARK    2  A    between atoms: C_4  and  C_5
REMARK    3  A    between atoms: N_8  and  C_9
REMARK    4  A    between atoms: C_9  and  C_10
REMARK    5  A    between atoms: C_14  and  N_15
REMARK    6  A    between atoms: N_18  and  S_19
REMARK    7  A    between atoms: S_19  and  C_20
REMARK                            x       y       z     vdW  Elec       q    Type
REMARK                         _______ _______ _______ _____ _____    ______ ____
ROOT
ATOM      1  C   UNL     1      46.852   5.834  13.110  0.00  0.00    +0.000 A 
ATOM      2  C   UNL     1      46.307   4.656  12.618  0.00  0.00    +0.000 A 
ATOM      3  N   UNL     1      46.223   3.493  13.303  0.00  0.00    +0.000 NA
ATOM      4  C   UNL     1      46.730   3.504  14.560  0.00  0.00    +0.000 A 
ATOM      5  C   UNL     1      47.338   4.599  15.173  0.00  0.00    +0.000 A 
ATOM      6  C   UNL     1      47.389   5.758  14.408  0.00  0.00    +0.000 A 
ENDROOT
BRANCH   5   7
ATOM      7  N   UNL     1      47.921   4.580  16.423  0.00  0.00    +0.000 N 
ATOM      8  C   UNL     1      48.895   5.610  16.833  0.00  0.00    +0.000 C 
ATOM      9  C   UNL     1      50.028   4.969  17.653  0.00  0.00    +0.000 C 
ATOM     10  N   UNL     1      49.496   4.170  18.808  0.00  0.00    +0.000 NA
ATOM     11  C   UNL     1      48.552   3.116  18.305  0.00  0.00    +0.000 C 
ATOM     12  C   UNL     1      47.392   3.699  17.466  0.00  0.00    +0.000 C 
BRANCH  10  13
ATOM     13  S   UNL     1      48.972   5.087  20.138  0.00  0.00    +0.000 S 
ATOM     14  C   UNL     1      50.494   5.842  20.664  0.00  0.00    +0.000 C 
ATOM     15  O   UNL     1      48.114   6.141  19.642  0.00  0.00    +0.000 OA
ATOM     16  O   UNL     1      48.528   4.187  21.180  0.00  0.00    +0.000 OA
ENDBRANCH  10  13
ENDBRANCH   5   7
BRANCH   1  17
ATOM     17  C   UNL     1      46.838   7.153  12.367  0.00  0.00    +0.000 C 
ATOM     18  C   UNL     1      45.541   7.598  11.705  0.00  0.00    +0.000 C 
ATOM     19  C   UNL     1      45.967   8.237  12.984  0.00  0.00    +0.000 C 
BRANCH  17  27
ATOM     20  C   UNL     1      51.175   9.016  15.116  0.00  0.00    +0.000 C 
ATOM     21  C   UNL     1      50.855   8.651  13.698  0.00  0.00    +0.000 A 
ATOM     22  C   UNL     1      51.824   8.714  12.696  0.00  0.00    +0.000 A 
ATOM     23  C   UNL     1      51.474   8.348  11.407  0.00  0.00    +0.000 A 
ATOM     24  C   UNL     1      52.455   8.442  10.276  0.00  0.00    +0.000 C 
ATOM     25  N   UNL     1      50.234   7.908  11.086  0.00  0.00    +0.000 NA
ATOM     26  C   UNL     1      49.289   7.853  12.048  0.00  0.00    +0.000 A 
ATOM     27  N   UNL     1      48.040   7.441  11.597  0.00  0.00    +0.000 N 
ATOM     28  C   UNL     1      49.567   8.228  13.358  0.00  0.00    +0.000 A 
ATOM     29  H   UNL     1      48.136   7.112  10.643  0.00  0.00    +0.000 HD
ENDBRANCH  17  27
ENDBRANCH   1  17
TORSDOF 4
ENDMDL
