MODEL 1
REMARK VINA RESULT:    -7.929      0.000      0.000
REMARK INTER + INTRA:         -14.018
REMARK INTER:                 -12.333
REMARK INTRA:                  -1.685
REMARK UNBOUND:                -1.685
REMARK  Name = 
REMARK  10 active torsions:
REMARK  status: ('A' for Active; 'I' for Inactive)
REMARK    1  A    between atoms: C_2  and  C_23
REMARK    2  A    between atoms: N_3  and  C_4
REMARK    3  A    between atoms: C_4  and  C_5
REMARK    4  A    between atoms: C_8  and  C_9
REMARK    5  A    between atoms: C_9  and  N_10
REMARK    6  A    between atoms: N_10  and  C_11
REMARK    7  A    between atoms: N_10  and  C_14
REMARK    8  A    between atoms: C_11  and  C_12
REMARK    9  A    between atoms: C_12  and  O_13
REMARK   10  A    between atoms: C_14  and  C_15
REMARK                            x       y       z     vdW  Elec       q    Type
REMARK                         _______ _______ _______ _____ _____    ______ ____
ROOT
ATOM      1  C   UNL     1      46.207   7.481  12.302  0.00  0.00    +0.000 A 
ATOM      2  C   UNL     1      46.899   6.631  11.430  0.00  0.00    +0.000 A 
ATOM      3  C   UNL     1      46.203   5.764  10.590  0.00  0.00    +0.000 A 
ATOM      4  C   UNL     1      44.802   5.728  10.612  0.00  0.00    +0.000 A 
ATOM      5  C   UNL     1      44.110   6.663  11.394  0.00  0.00    +0.000 A 
ATOM      6  C   UNL     1      44.809   7.539  12.228  0.00  0.00    +0.000 A 
ENDROOT
BRANCH   1   7
ATOM      7  C   UNL     1      46.960   8.286  13.326  0.00  0.00    +0.000 C 
BRANCH   7  10
ATOM      8  O   UNL     1      49.614   7.549  13.898  0.00  0.00    +0.000 OA
ATOM      9  C   UNL     1      48.718   7.198  14.662  0.00  0.00    +0.000 C 
ATOM     10  N   UNL     1      47.399   7.475  14.426  0.00  0.00    +0.000 N 
ATOM     11  H   UNL     1      46.712   7.300  15.150  0.00  0.00    +0.000 HD
BRANCH   9  12
ATOM     12  C   UNL     1      49.007   6.411  15.867  0.00  0.00    +0.000 A 
ATOM     13  C   UNL     1      49.991   6.836  16.747  0.00  0.00    +0.000 A 
ATOM     14  S   UNL     1      50.178   5.818  18.102  0.00  0.00    +0.000 S 
ATOM     15  C   UNL     1      48.921   4.801  17.580  0.00  0.00    +0.000 A 
ATOM     16  N   UNL     1      48.528   3.732  18.327  0.00  0.00    +0.000 NA
ATOM     17  C   UNL     1      47.539   3.068  17.830  0.00  0.00    +0.000 A 
ATOM     18  N   UNL     1      46.922   3.359  16.644  0.00  0.00    +0.000 N 
ATOM     19  C   UNL     1      47.341   4.368  15.814  0.00  0.00    +0.000 A 
ATOM     20  O   UNL     1      46.872   4.496  14.688  0.00  0.00    +0.000 OA
ATOM     21  C   UNL     1      48.400   5.197  16.358  0.00  0.00    +0.000 A 
ATOM     22  H   UNL     1      46.180   2.772  16.287  0.00  0.00    +0.000 HD
ENDBRANCH   9  12
ENDBRANCH   7  10
ENDBRANCH   1   7
BRANCH   4  23
ATOM     23  C   UNL     1      44.057   4.637   9.865  0.00  0.00    +0.000 C 
BRANCH  23  24
ATOM     24  N   UNL     1      44.438   3.269  10.313  0.00  0.00    +0.000 NA
BRANCH  24  25
ATOM     25  C   UNL     1      43.553   2.816  11.416  0.00  0.00    +0.000 C 
BRANCH  25  26
ATOM     26  C   UNL     1      44.071   3.113  12.836  0.00  0.00    +0.000 C 
BRANCH  26  27
ATOM     27  O   UNL     1      45.461   2.809  12.939  0.00  0.00    +0.000 OA
ATOM     28  H   UNL     1      45.532   1.870  13.183  0.00  0.00    +0.000 HD
ENDBRANCH  26  27
ENDBRANCH  25  26
ENDBRANCH  24  25
BRANCH  24  29
ATOM     29  C   UNL     1      44.343   2.332   9.169  0.00  0.00    +0.000 C 
BRANCH  29  30
ATOM     30  C   UNL     1      45.538   2.302   8.234  0.00  0.00    +0.000 A 
ATOM     31  C   UNL     1      45.928   3.450   7.545  0.00  0.00    +0.000 A 
ATOM     32  C   UNL     1      47.096   3.413   6.787  0.00  0.00    +0.000 A 
ATOM     33  C   UNL     1      47.834   2.236   6.732  0.00  0.00    +0.000 A 
ATOM     34  C   UNL     1      47.365   1.136   7.426  0.00  0.00    +0.000 A 
ATOM     35  N   UNL     1      46.238   1.141   8.172  0.00  0.00    +0.000 NA
ENDBRANCH  29  30
ENDBRANCH  24  29
ENDBRANCH  23  24
ENDBRANCH   4  23
TORSDOF 10
ENDMDL
MODEL 2
REMARK VINA RESULT:    -7.820      1.356      1.826
REMARK INTER + INTRA:         -13.848
REMARK INTER:                 -12.190
REMARK INTRA:                  -1.658
REMARK UNBOUND:                -1.685
REMARK  Name = 
REMARK  10 active torsions:
REMARK  status: ('A' for Active; 'I' for Inactive)
REMARK    1  A    between atoms: C_2  and  C_23
REMARK    2  A    between atoms: N_3  and  C_4
REMARK    3  A    between atoms: C_4  and  C_5
REMARK    4  A    between atoms: C_8  and  C_9
REMARK    5  A    between atoms: C_9  and  N_10
REMARK    6  A    between atoms: N_10  and  C_11
REMARK    7  A    between atoms: N_10  and  C_14
REMARK    8  A    between atoms: C_11  and  C_12
REMARK    9  A    between atoms: C_12  and  O_13
REMARK   10  A    between atoms: C_14  and  C_15
REMARK                            x       y       z     vdW  Elec       q    Type
REMARK                         _______ _______ _______ _____ _____    ______ ____
ROOT
ATOM      1  C   UNL     1      47.802   7.908  12.925  0.00  0.00    +0.000 A 
ATOM      2  C   UNL     1      47.844   6.896  11.957  0.00  0.00    +0.000 A 
ATOM      3  C   UNL     1      46.676   6.479  11.321  0.00  0.00    +0.000 A 
ATOM      4  C   UNL     1      45.444   7.062  11.647  0.00  0.00    +0.000 A 
ATOM      5  C   UNL     1      45.421   8.155  12.524  0.00  0.00    +0.000 A 
ATOM      6  C   UNL     1      46.594   8.580  13.153  0.00  0.00    +0.000 A 
ENDROOT
BRANCH   1   7
ATOM      7  C   UNL     1      49.030   8.233  13.731  0.00  0.00    +0.000 C 
BRANCH   7  10
ATOM      8  O   UNL     1      48.421   8.778  16.423  0.00  0.00    +0.000 OA
ATOM      9  C   UNL     1      48.832   7.662  16.117  0.00  0.00    +0.000 C 
ATOM     10  N   UNL     1      49.195   7.336  14.838  0.00  0.00    +0.000 N 
ATOM     11  H   UNL     1      49.384   6.369  14.601  0.00  0.00    +0.000 HD
BRANCH   9  12
ATOM     12  C   UNL     1      49.001   6.608  17.125  0.00  0.00    +0.000 A 
ATOM     13  C   UNL     1      49.715   6.872  18.284  0.00  0.00    +0.000 A 
ATOM     14  S   UNL     1      49.794   5.544  19.351  0.00  0.00    +0.000 S 
ATOM     15  C   UNL     1      48.840   4.589  18.320  0.00  0.00    +0.000 A 
ATOM     16  N   UNL     1      48.484   3.321  18.670  0.00  0.00    +0.000 NA
ATOM     17  C   UNL     1      47.729   2.723  17.811  0.00  0.00    +0.000 A 
ATOM     18  N   UNL     1      47.317   3.264  16.624  0.00  0.00    +0.000 N 
ATOM     19  C   UNL     1      47.723   4.499  16.187  0.00  0.00    +0.000 A 
ATOM     20  O   UNL     1      47.468   4.884  15.052  0.00  0.00    +0.000 OA
ATOM     21  C   UNL     1      48.511   5.250  17.148  0.00  0.00    +0.000 A 
ATOM     22  H   UNL     1      46.762   2.726  15.972  0.00  0.00    +0.000 HD
ENDBRANCH   9  12
ENDBRANCH   7  10
ENDBRANCH   1   7
BRANCH   4  23
ATOM     23  C   UNL     1      44.155   6.461  11.121  0.00  0.00    +0.000 C 
BRANCH  23  24
ATOM     24  N   UNL     1      44.222   4.979  10.989  0.00  0.00    +0.000 NA
BRANCH  24  25
ATOM     25  C   UNL     1      43.259   4.328  11.914  0.00  0.00    +0.000 C 
BRANCH  25  26
ATOM     26  C   UNL     1      43.656   2.917  12.388  0.00  0.00    +0.000 C 
BRANCH  26  27
ATOM     27  O   UNL     1      42.904   1.923  11.694  0.00  0.00    +0.000 OA
ATOM     28  H   UNL     1      41.988   1.980  12.017  0.00  0.00    +0.000 HD
ENDBRANCH  26  27
ENDBRANCH  25  26
ENDBRANCH  24  25
BRANCH  24  29
ATOM     29  C   UNL     1      43.920   4.594   9.590  0.00  0.00    +0.000 C 
BRANCH  29  30
ATOM     30  C   UNL     1      44.987   3.781   8.880  0.00  0.00    +0.000 A 
ATOM     31  C   UNL     1      45.081   2.404   9.081  0.00  0.00    +0.000 A 
ATOM     32  C   UNL     1      45.998   1.677   8.326  0.00  0.00    +0.000 A 
ATOM     33  C   UNL     1      46.794   2.340   7.400  0.00  0.00    +0.000 A 
ATOM     34  C   UNL     1      46.654   3.711   7.278  0.00  0.00    +0.000 A 
ATOM     35  N   UNL     1      45.773   4.444   7.994  0.00  0.00    +0.000 NA
ENDBRANCH  29  30
ENDBRANCH  24  29
ENDBRANCH  23  24
ENDBRANCH   4  23
TORSDOF 10
ENDMDL
MODEL 3
REMARK VINA RESULT:    -7.240      2.249      2.824
REMARK INTER + INTRA:         -12.946
REMARK INTER:                 -12.177
REMARK INTRA:                  -0.769
REMARK UNBOUND:                -1.685
REMARK  Name = 
REMARK  10 active torsions:
REMARK  status: ('A' for Active; 'I' for Inactive)
REMARK    1  A    between atoms: C_2  and  C_23
REMARK    2  A    between atoms: N_3  and  C_4
REMARK    3  A    between atoms: C_4  and  C_5
REMARK    4  A    between atoms: C_8  and  C_9
REMARK    5  A    between atoms: C_9  and  N_10
REMARK    6  A    between atoms: N_10  and  C_11
REMARK    7  A    between atoms: N_10  and  C_14
REMARK    8  A    between atoms: C_11  and  C_12
REMARK    9  A    between atoms: C_12  and  O_13
REMARK   10  A    between atoms: C_14  and  C_15
REMARK                            x       y       z     vdW  Elec       q    Type
REMARK                         _______ _______ _______ _____ _____    ______ ____
ROOT
ATOM      1  C   UNL     1      48.329   6.727  13.236  0.00  0.00    +0.000 A 
ATOM      2  C   UNL     1      47.402   5.770  13.667  0.00  0.00    +0.000 A 
ATOM      3  C   UNL     1      46.302   5.445  12.875  0.00  0.00    +0.000 A 
ATOM      4  C   UNL     1      46.108   6.078  11.639  0.00  0.00    +0.000 A 
ATOM      5  C   UNL     1      47.098   6.943  11.155  0.00  0.00    +0.000 A 
ATOM      6  C   UNL     1      48.205   7.260  11.946  0.00  0.00    +0.000 A 
ENDROOT
BRANCH   1   7
ATOM      7  C   UNL     1      49.413   7.200  14.166  0.00  0.00    +0.000 C 
BRANCH   7  10
ATOM      8  O   UNL     1      50.483   5.863  16.399  0.00  0.00    +0.000 OA
ATOM      9  C   UNL     1      49.555   6.650  16.562  0.00  0.00    +0.000 C 
ATOM     10  N   UNL     1      48.949   7.301  15.520  0.00  0.00    +0.000 N 
ATOM     11  H   UNL     1      48.293   8.049  15.709  0.00  0.00    +0.000 HD
BRANCH   9  12
ATOM     12  C   UNL     1      49.001   6.913  17.895  0.00  0.00    +0.000 A 
ATOM     13  C   UNL     1      48.525   8.178  18.206  0.00  0.00    +0.000 A 
ATOM     14  S   UNL     1      47.899   8.300  19.788  0.00  0.00    +0.000 S 
ATOM     15  C   UNL     1      48.203   6.657  20.093  0.00  0.00    +0.000 A 
ATOM     16  N   UNL     1      47.851   6.088  21.280  0.00  0.00    +0.000 NA
ATOM     17  C   UNL     1      48.107   4.826  21.363  0.00  0.00    +0.000 A 
ATOM     18  N   UNL     1      48.704   4.084  20.380  0.00  0.00    +0.000 N 
ATOM     19  C   UNL     1      49.158   4.630  19.207  0.00  0.00    +0.000 A 
ATOM     20  O   UNL     1      49.831   3.972  18.422  0.00  0.00    +0.000 OA
ATOM     21  C   UNL     1      48.827   6.032  19.026  0.00  0.00    +0.000 A 
ATOM     22  H   UNL     1      48.919   3.107  20.525  0.00  0.00    +0.000 HD
ENDBRANCH   9  12
ENDBRANCH   7  10
ENDBRANCH   1   7
BRANCH   4  23
ATOM     23  C   UNL     1      44.805   5.889  10.885  0.00  0.00    +0.000 C 
BRANCH  23  24
ATOM     24  N   UNL     1      44.446   4.455  10.706  0.00  0.00    +0.000 NA
BRANCH  24  25
ATOM     25  C   UNL     1      43.226   4.121  11.485  0.00  0.00    +0.000 C 
BRANCH  25  26
ATOM     26  C   UNL     1      42.482   5.329  12.086  0.00  0.00    +0.000 C 
BRANCH  26  27
ATOM     27  O   UNL     1      42.588   5.329  13.509  0.00  0.00    +0.000 OA
ATOM     28  H   UNL     1      43.242   6.008  13.747  0.00  0.00    +0.000 HD
ENDBRANCH  26  27
ENDBRANCH  25  26
ENDBRANCH  24  25
BRANCH  24  29
ATOM     29  C   UNL     1      44.220   4.178   9.268  0.00  0.00    +0.000 C 
BRANCH  29  30
ATOM     30  C   UNL     1      45.314   3.397   8.562  0.00  0.00    +0.000 A 
ATOM     31  C   UNL     1      45.466   2.029   8.786  0.00  0.00    +0.000 A 
ATOM     32  C   UNL     1      46.405   1.327   8.035  0.00  0.00    +0.000 A 
ATOM     33  C   UNL     1      47.166   2.006   7.090  0.00  0.00    +0.000 A 
ATOM     34  C   UNL     1      46.969   3.368   6.946  0.00  0.00    +0.000 A 
ATOM     35  N   UNL     1      46.065   4.076   7.658  0.00  0.00    +0.000 NA
ENDBRANCH  29  30
ENDBRANCH  24  29
ENDBRANCH  23  24
ENDBRANCH   4  23
TORSDOF 10
ENDMDL
MODEL 4
REMARK VINA RESULT:    -7.151      2.239      2.791
REMARK INTER + INTRA:         -12.808
REMARK INTER:                 -11.537
REMARK INTRA:                  -1.271
REMARK UNBOUND:                -1.685
REMARK  Name = 
REMARK  10 active torsions:
REMARK  status: ('A' for Active; 'I' for Inactive)
REMARK    1  A    between atoms: C_2  and  C_23
REMARK    2  A    between atoms: N_3  and  C_4
REMARK    3  A    between atoms: C_4  and  C_5
REMARK    4  A    between atoms: C_8  and  C_9
REMARK    5  A    between atoms: C_9  and  N_10
REMARK    6  A    between atoms: N_10  and  C_11
REMARK    7  A    between atoms: N_10  and  C_14
REMARK    8  A    between atoms: C_11  and  C_12
REMARK    9  A    between atoms: C_12  and  O_13
REMARK   10  A    between atoms: C_14  and  C_15
REMARK                            x       y       z     vdW  Elec       q    Type
REMARK                         _______ _______ _______ _____ _____    ______ ____
ROOT
ATOM      1  C   UNL     1      47.435   8.078  13.517  0.00  0.00    +0.000 A 
ATOM      2  C   UNL     1      47.933   7.098  12.650  0.00  0.00    +0.000 A 
ATOM      3  C   UNL     1      47.113   6.541  11.670  0.00  0.00    +0.000 A 
ATOM      4  C   UNL     1      45.778   6.951  11.545  0.00  0.00    +0.000 A 
ATOM      5  C   UNL     1      45.319   8.017  12.331  0.00  0.00    +0.000 A 
ATOM      6  C   UNL     1      46.145   8.581  13.306  0.00  0.00    +0.000 A 
ENDROOT
BRANCH   1   7
ATOM      7  C   UNL     1      48.266   8.549  14.680  0.00  0.00    +0.000 C 
BRANCH   7  10
ATOM      8  O   UNL     1      50.054   6.534  15.495  0.00  0.00    +0.000 OA
ATOM      9  C   UNL     1      49.059   6.764  16.179  0.00  0.00    +0.000 C 
ATOM     10  N   UNL     1      48.119   7.693  15.823  0.00  0.00    +0.000 N 
ATOM     11  H   UNL     1      47.398   7.957  16.484  0.00  0.00    +0.000 HD
BRANCH   9  12
ATOM     12  C   UNL     1      48.792   6.017  17.413  0.00  0.00    +0.000 A 
ATOM     13  C   UNL     1      49.040   4.653  17.460  0.00  0.00    +0.000 A 
ATOM     14  S   UNL     1      48.694   3.950  18.975  0.00  0.00    +0.000 S 
ATOM     15  C   UNL     1      48.244   5.452  19.630  0.00  0.00    +0.000 A 
ATOM     16  N   UNL     1      47.875   5.564  20.937  0.00  0.00    +0.000 NA
ATOM     17  C   UNL     1      47.593   6.767  21.310  0.00  0.00    +0.000 A 
ATOM     18  N   UNL     1      47.624   7.864  20.493  0.00  0.00    +0.000 N 
ATOM     19  C   UNL     1      47.900   7.788  19.152  0.00  0.00    +0.000 A 
ATOM     20  O   UNL     1      47.758   8.761  18.421  0.00  0.00    +0.000 OA
ATOM     21  C   UNL     1      48.300   6.470  18.693  0.00  0.00    +0.000 A 
ATOM     22  H   UNL     1      47.348   8.775  20.837  0.00  0.00    +0.000 HD
ENDBRANCH   9  12
ENDBRANCH   7  10
ENDBRANCH   1   7
BRANCH   4  23
ATOM     23  C   UNL     1      44.832   6.194  10.633  0.00  0.00    +0.000 C 
BRANCH  23  24
ATOM     24  N   UNL     1      44.921   4.718  10.809  0.00  0.00    +0.000 NA
BRANCH  24  25
ATOM     25  C   UNL     1      44.194   4.293  12.033  0.00  0.00    +0.000 C 
BRANCH  25  26
ATOM     26  C   UNL     1      42.785   4.893  12.201  0.00  0.00    +0.000 C 
BRANCH  26  27
ATOM     27  O   UNL     1      42.718   5.702  13.374  0.00  0.00    +0.000 OA
ATOM     28  H   UNL     1      43.159   5.210  14.087  0.00  0.00    +0.000 HD
ENDBRANCH  26  27
ENDBRANCH  25  26
ENDBRANCH  24  25
BRANCH  24  29
ATOM     29  C   UNL     1      44.346   4.044   9.620  0.00  0.00    +0.000 C 
BRANCH  29  30
ATOM     30  C   UNL     1      45.341   3.364   8.698  0.00  0.00    +0.000 A 
ATOM     31  C   UNL     1      45.602   1.999   8.818  0.00  0.00    +0.000 A 
ATOM     32  C   UNL     1      46.433   1.390   7.881  0.00  0.00    +0.000 A 
ATOM     33  C   UNL     1      46.982   2.155   6.859  0.00  0.00    +0.000 A 
ATOM     34  C   UNL     1      46.690   3.507   6.824  0.00  0.00    +0.000 A 
ATOM     35  N   UNL     1      45.887   4.127   7.716  0.00  0.00    +0.000 NA
ENDBRANCH  29  30
ENDBRANCH  24  29
ENDBRANCH  23  24
ENDBRANCH   4  23
TORSDOF 10
ENDMDL
MODEL 5
REMARK VINA RESULT:    -6.742      2.325      3.047
REMARK INTER + INTRA:         -12.171
REMARK INTER:                 -11.146
REMARK INTRA:                  -1.025
REMARK UNBOUND:                -1.685
REMARK  Name = 
REMARK  10 active torsions:
REMARK  status: ('A' for Active; 'I' for Inactive)
REMARK    1  A    between atoms: C_2  and  C_23
REMARK    2  A    between atoms: N_3  and  C_4
REMARK    3  A    between atoms: C_4  and  C_5
REMARK    4  A    between atoms: C_8  and  C_9
REMARK    5  A    between atoms: C_9  and  N_10
REMARK    6  A    between atoms: N_10  and  C_11
REMARK    7  A    between atoms: N_10  and  C_14
REMARK    8  A    between atoms: C_11  and  C_12
REMARK    9  A    between atoms: C_12  and  O_13
REMARK   10  A    between atoms: C_14  and  C_15
REMARK                            x       y       z     vdW  Elec       q    Type
REMARK                         _______ _______ _______ _____ _____    ______ ____
ROOT
ATOM      1  C   UNL     1      48.001   7.589  14.468  0.00  0.00    +0.000 A 
ATOM      2  C   UNL     1      47.020   8.401  13.887  0.00  0.00    +0.000 A 
ATOM      3  C   UNL     1      46.248   7.927  12.827  0.00  0.00    +0.000 A 
ATOM      4  C   UNL     1      46.452   6.633  12.326  0.00  0.00    +0.000 A 
ATOM      5  C   UNL     1      47.347   5.781  12.987  0.00  0.00    +0.000 A 
ATOM      6  C   UNL     1      48.112   6.255  14.056  0.00  0.00    +0.000 A 
ENDROOT
BRANCH   1   7
ATOM      7  C   UNL     1      48.945   8.162  15.491  0.00  0.00    +0.000 C 
BRANCH   7  10
ATOM      8  O   UNL     1      48.940   6.863  17.987  0.00  0.00    +0.000 OA
ATOM      9  C   UNL     1      49.799   6.566  17.160  0.00  0.00    +0.000 C 
ATOM     10  N   UNL     1      49.897   7.188  15.944  0.00  0.00    +0.000 N 
ATOM     11  H   UNL     1      50.519   6.814  15.237  0.00  0.00    +0.000 HD
BRANCH   9  12
ATOM     12  C   UNL     1      50.813   5.544  17.445  0.00  0.00    +0.000 A 
ATOM     13  C   UNL     1      52.057   5.923  17.925  0.00  0.00    +0.000 A 
ATOM     14  S   UNL     1      53.102   4.608  18.221  0.00  0.00    +0.000 S 
ATOM     15  C   UNL     1      51.911   3.488  17.760  0.00  0.00    +0.000 A 
ATOM     16  N   UNL     1      52.146   2.147  17.827  0.00  0.00    +0.000 NA
ATOM     17  C   UNL     1      51.144   1.412  17.482  0.00  0.00    +0.000 A 
ATOM     18  N   UNL     1      49.936   1.891  17.054  0.00  0.00    +0.000 N 
ATOM     19  C   UNL     1      49.682   3.228  16.883  0.00  0.00    +0.000 A 
ATOM     20  O   UNL     1      48.650   3.612  16.345  0.00  0.00    +0.000 OA
ATOM     21  C   UNL     1      50.748   4.106  17.330  0.00  0.00    +0.000 A 
ATOM     22  H   UNL     1      49.204   1.261  16.754  0.00  0.00    +0.000 HD
ENDBRANCH   9  12
ENDBRANCH   7  10
ENDBRANCH   1   7
BRANCH   4  23
ATOM     23  C   UNL     1      45.773   6.200  11.041  0.00  0.00    +0.000 C 
BRANCH  23  24
ATOM     24  N   UNL     1      44.984   4.946  11.200  0.00  0.00    +0.000 NA
BRANCH  24  25
ATOM     25  C   UNL     1      43.899   5.136  12.197  0.00  0.00    +0.000 C 
BRANCH  25  26
ATOM     26  C   UNL     1      42.539   5.560  11.611  0.00  0.00    +0.000 C 
BRANCH  26  27
ATOM     27  O   UNL     1      42.534   6.954  11.307  0.00  0.00    +0.000 OA
ATOM     28  H   UNL     1      42.323   7.040  10.361  0.00  0.00    +0.000 HD
ENDBRANCH  26  27
ENDBRANCH  25  26
ENDBRANCH  24  25
BRANCH  24  29
ATOM     29  C   UNL     1      44.408   4.556   9.892  0.00  0.00    +0.000 C 
BRANCH  29  30
ATOM     30  C   UNL     1      45.307   3.726   8.992  0.00  0.00    +0.000 A 
ATOM     31  C   UNL     1      45.369   2.340   9.136  0.00  0.00    +0.000 A 
ATOM     32  C   UNL     1      46.116   1.604   8.219  0.00  0.00    +0.000 A 
ATOM     33  C   UNL     1      46.779   2.268   7.193  0.00  0.00    +0.000 A 
ATOM     34  C   UNL     1      46.683   3.647   7.135  0.00  0.00    +0.000 A 
ATOM     35  N   UNL     1      45.966   4.388   8.008  0.00  0.00    +0.000 NA
ENDBRANCH  29  30
ENDBRANCH  24  29
ENDBRANCH  23  24
ENDBRANCH   4  23
TORSDOF 10
ENDMDL
MODEL 6
REMARK VINA RESULT:    -6.424      3.188      4.319
REMARK INTER + INTRA:         -11.677
REMARK INTER:                 -10.721
REMARK INTRA:                  -0.957
REMARK UNBOUND:                -1.685
REMARK  Name = 
REMARK  10 active torsions:
REMARK  status: ('A' for Active; 'I' for Inactive)
REMARK    1  A    between atoms: C_2  and  C_23
REMARK    2  A    between atoms: N_3  and  C_4
REMARK    3  A    between atoms: C_4  and  C_5
REMARK    4  A    between atoms: C_8  and  C_9
REMARK    5  A    between atoms: C_9  and  N_10
REMARK    6  A    between atoms: N_10  and  C_11
REMARK    7  A    between atoms: N_10  and  C_14
REMARK    8  A    between atoms: C_11  and  C_12
REMARK    9  A    between atoms: C_12  and  O_13
REMARK   10  A    between atoms: C_14  and  C_15
REMARK                            x       y       z     vdW  Elec       q    Type
REMARK                         _______ _______ _______ _____ _____    ______ ____
ROOT
ATOM      1  C   UNL     1      47.671   5.190  15.271  0.00  0.00    +0.000 A 
ATOM      2  C   UNL     1      47.104   4.048  14.693  0.00  0.00    +0.000 A 
ATOM      3  C   UNL     1      46.554   4.104  13.413  0.00  0.00    +0.000 A 
ATOM      4  C   UNL     1      46.556   5.307  12.693  0.00  0.00    +0.000 A 
ATOM      5  C   UNL     1      47.232   6.414  13.222  0.00  0.00    +0.000 A 
ATOM      6  C   UNL     1      47.792   6.354  14.501  0.00  0.00    +0.000 A 
ENDROOT
BRANCH   1   7
ATOM      7  C   UNL     1      48.104   5.170  16.712  0.00  0.00    +0.000 C 
BRANCH   7  10
ATOM      8  O   UNL     1      48.631   3.079  18.521  0.00  0.00    +0.000 OA
ATOM      9  C   UNL     1      49.520   3.448  17.757  0.00  0.00    +0.000 C 
ATOM     10  N   UNL     1      49.356   4.489  16.884  0.00  0.00    +0.000 N 
ATOM     11  H   UNL     1      50.057   4.663  16.173  0.00  0.00    +0.000 HD
BRANCH   9  12
ATOM     12  C   UNL     1      50.844   2.814  17.764  0.00  0.00    +0.000 A 
ATOM     13  C   UNL     1      50.966   1.470  17.446  0.00  0.00    +0.000 A 
ATOM     14  S   UNL     1      52.575   0.905  17.482  0.00  0.00    +0.000 S 
ATOM     15  C   UNL     1      53.165   2.447  17.881  0.00  0.00    +0.000 A 
ATOM     16  N   UNL     1      54.502   2.673  18.016  0.00  0.00    +0.000 NA
ATOM     17  C   UNL     1      54.812   3.896  18.284  0.00  0.00    +0.000 A 
ATOM     18  N   UNL     1      53.909   4.911  18.453  0.00  0.00    +0.000 N 
ATOM     19  C   UNL     1      52.552   4.715  18.417  0.00  0.00    +0.000 A 
ATOM     20  O   UNL     1      51.776   5.609  18.733  0.00  0.00    +0.000 OA
ATOM     21  C   UNL     1      52.147   3.373  18.042  0.00  0.00    +0.000 A 
ATOM     22  H   UNL     1      54.215   5.841  18.707  0.00  0.00    +0.000 HD
ENDBRANCH   9  12
ENDBRANCH   7  10
ENDBRANCH   1   7
BRANCH   4  23
ATOM     23  C   UNL     1      45.767   5.422  11.403  0.00  0.00    +0.000 C 
BRANCH  23  24
ATOM     24  N   UNL     1      44.713   4.378  11.277  0.00  0.00    +0.000 NA
BRANCH  24  25
ATOM     25  C   UNL     1      43.571   4.678  12.178  0.00  0.00    +0.000 C 
BRANCH  25  26
ATOM     26  C   UNL     1      42.314   5.231  11.482  0.00  0.00    +0.000 C 
BRANCH  26  27
ATOM     27  O   UNL     1      42.132   6.612  11.792  0.00  0.00    +0.000 OA
ATOM     28  H   UNL     1      41.175   6.783  11.786  0.00  0.00    +0.000 HD
ENDBRANCH  26  27
ENDBRANCH  25  26
ENDBRANCH  24  25
BRANCH  24  29
ATOM     29  C   UNL     1      44.246   4.316   9.872  0.00  0.00    +0.000 C 
BRANCH  29  30
ATOM     30  C   UNL     1      45.116   3.516   8.918  0.00  0.00    +0.000 A 
ATOM     31  C   UNL     1      45.849   4.158   7.920  0.00  0.00    +0.000 A 
ATOM     32  C   UNL     1      46.722   3.404   7.140  0.00  0.00    +0.000 A 
ATOM     33  C   UNL     1      46.835   2.038   7.372  0.00  0.00    +0.000 A 
ATOM     34  C   UNL     1      46.056   1.476   8.367  0.00  0.00    +0.000 A 
ATOM     35  N   UNL     1      45.202   2.180   9.142  0.00  0.00    +0.000 NA
ENDBRANCH  29  30
ENDBRANCH  24  29
ENDBRANCH  23  24
ENDBRANCH   4  23
TORSDOF 10
ENDMDL
MODEL 7
REMARK VINA RESULT:    -6.377      4.578      6.329
REMARK INTER + INTRA:         -11.604
REMARK INTER:                 -10.339
REMARK INTRA:                  -1.265
REMARK UNBOUND:                -1.685
REMARK  Name = 
REMARK  10 active torsions:
REMARK  status: ('A' for Active; 'I' for Inactive)
REMARK    1  A    between atoms: C_2  and  C_23
REMARK    2  A    between atoms: N_3  and  C_4
REMARK    3  A    between atoms: C_4  and  C_5
REMARK    4  A    between atoms: C_8  and  C_9
REMARK    5  A    between atoms: C_9  and  N_10
REMARK    6  A    between atoms: N_10  and  C_11
REMARK    7  A    between atoms: N_10  and  C_14
REMARK    8  A    between atoms: C_11  and  C_12
REMARK    9  A    between atoms: C_12  and  O_13
REMARK   10  A    between atoms: C_14  and  C_15
REMARK                            x       y       z     vdW  Elec       q    Type
REMARK                         _______ _______ _______ _____ _____    ______ ____
ROOT
ATOM      1  C   UNL     1      47.856   8.009  12.571  0.00  0.00    +0.000 A 
ATOM      2  C   UNL     1      46.707   8.805  12.495  0.00  0.00    +0.000 A 
ATOM      3  C   UNL     1      45.479   8.241  12.153  0.00  0.00    +0.000 A 
ATOM      4  C   UNL     1      45.382   6.871  11.873  0.00  0.00    +0.000 A 
ATOM      5  C   UNL     1      46.505   6.056  12.069  0.00  0.00    +0.000 A 
ATOM      6  C   UNL     1      47.733   6.621  12.422  0.00  0.00    +0.000 A 
ENDROOT
BRANCH   1   7
ATOM      7  C   UNL     1      49.204   8.647  12.769  0.00  0.00    +0.000 C 
BRANCH   7  10
ATOM      8  O   UNL     1      52.010   8.442  12.719  0.00  0.00    +0.000 OA
ATOM      9  C   UNL     1      51.388   8.389  11.661  0.00  0.00    +0.000 C 
ATOM     10  N   UNL     1      50.027   8.530  11.599  0.00  0.00    +0.000 N 
ATOM     11  H   UNL     1      49.541   8.332  10.733  0.00  0.00    +0.000 HD
BRANCH   9  12
ATOM     12  C   UNL     1      52.077   8.212  10.377  0.00  0.00    +0.000 A 
ATOM     13  C   UNL     1      52.362   6.935   9.919  0.00  0.00    +0.000 A 
ATOM     14  S   UNL     1      53.145   6.914   8.404  0.00  0.00    +0.000 S 
ATOM     15  C   UNL     1      53.088   8.608   8.291  0.00  0.00    +0.000 A 
ATOM     16  N   UNL     1      53.561   9.253   7.188  0.00  0.00    +0.000 NA
ATOM     17  C   UNL     1      53.423  10.535   7.219  0.00  0.00    +0.000 A 
ATOM     18  N   UNL     1      52.878  11.236   8.260  0.00  0.00    +0.000 N 
ATOM     19  C   UNL     1      52.472  10.641   9.428  0.00  0.00    +0.000 A 
ATOM     20  O   UNL     1      52.142  11.313  10.398  0.00  0.00    +0.000 OA
ATOM     21  C   UNL     1      52.533   9.191   9.418  0.00  0.00    +0.000 A 
ATOM     22  H   UNL     1      52.839  12.246   8.242  0.00  0.00    +0.000 HD
ENDBRANCH   9  12
ENDBRANCH   7  10
ENDBRANCH   1   7
BRANCH   4  23
ATOM     23  C   UNL     1      44.102   6.302  11.290  0.00  0.00    +0.000 C 
BRANCH  23  24
ATOM     24  N   UNL     1      44.187   4.837  11.034  0.00  0.00    +0.000 NA
BRANCH  24  25
ATOM     25  C   UNL     1      43.201   4.104  11.868  0.00  0.00    +0.000 C 
BRANCH  25  26
ATOM     26  C   UNL     1      43.682   2.744  12.409  0.00  0.00    +0.000 C 
BRANCH  26  27
ATOM     27  O   UNL     1      45.096   2.750  12.600  0.00  0.00    +0.000 OA
ATOM     28  H   UNL     1      45.430   3.590  12.241  0.00  0.00    +0.000 HD
ENDBRANCH  26  27
ENDBRANCH  25  26
ENDBRANCH  24  25
BRANCH  24  29
ATOM     29  C   UNL     1      43.933   4.572   9.598  0.00  0.00    +0.000 C 
BRANCH  29  30
ATOM     30  C   UNL     1      45.002   3.775   8.871  0.00  0.00    +0.000 A 
ATOM     31  C   UNL     1      45.103   2.395   9.051  0.00  0.00    +0.000 A 
ATOM     32  C   UNL     1      46.020   1.684   8.281  0.00  0.00    +0.000 A 
ATOM     33  C   UNL     1      46.809   2.365   7.362  0.00  0.00    +0.000 A 
ATOM     34  C   UNL     1      46.662   3.737   7.261  0.00  0.00    +0.000 A 
ATOM     35  N   UNL     1      45.780   4.455   7.992  0.00  0.00    +0.000 NA
ENDBRANCH  29  30
ENDBRANCH  24  29
ENDBRANCH  23  24
ENDBRANCH   4  23
TORSDOF 10
ENDMDL
MODEL 8
REMARK VINA RESULT:    -6.324      3.453      8.304
REMARK INTER + INTRA:         -11.522
REMARK INTER:                  -9.255
REMARK INTRA:                  -2.267
REMARK UNBOUND:                -1.685
REMARK  Name = 
REMARK  10 active torsions:
REMARK  status: ('A' for Active; 'I' for Inactive)
REMARK    1  A    between atoms: C_2  and  C_23
REMARK    2  A    between atoms: N_3  and  C_4
REMARK    3  A    between atoms: C_4  and  C_5
REMARK    4  A    between atoms: C_8  and  C_9
REMARK    5  A    between atoms: C_9  and  N_10
REMARK    6  A    between atoms: N_10  and  C_11
REMARK    7  A    between atoms: N_10  and  C_14
REMARK    8  A    between atoms: C_11  and  C_12
REMARK    9  A    between atoms: C_12  and  O_13
REMARK   10  A    between atoms: C_14  and  C_15
REMARK                            x       y       z     vdW  Elec       q    Type
REMARK                         _______ _______ _______ _____ _____    ______ ____
ROOT
ATOM      1  C   UNL     1      48.700   8.547  15.895  0.00  0.00    +0.000 A 
ATOM      2  C   UNL     1      48.032   9.235  16.916  0.00  0.00    +0.000 A 
ATOM      3  C   UNL     1      48.261   8.910  18.252  0.00  0.00    +0.000 A 
ATOM      4  C   UNL     1      49.158   7.887  18.589  0.00  0.00    +0.000 A 
ATOM      5  C   UNL     1      49.915   7.285  17.574  0.00  0.00    +0.000 A 
ATOM      6  C   UNL     1      49.691   7.619  16.236  0.00  0.00    +0.000 A 
ENDROOT
BRANCH   1   7
ATOM      7  C   UNL     1      48.322   8.779  14.457  0.00  0.00    +0.000 C 
BRANCH   7  10
ATOM      8  O   UNL     1      48.892   6.527  12.870  0.00  0.00    +0.000 OA
ATOM      9  C   UNL     1      47.740   6.710  13.257  0.00  0.00    +0.000 C 
ATOM     10  N   UNL     1      47.375   7.807  13.990  0.00  0.00    +0.000 N 
ATOM     11  H   UNL     1      46.455   7.844  14.413  0.00  0.00    +0.000 HD
BRANCH   9  12
ATOM     12  C   UNL     1      46.662   5.774  12.915  0.00  0.00    +0.000 A 
ATOM     13  C   UNL     1      46.786   4.433  13.244  0.00  0.00    +0.000 A 
ATOM     14  S   UNL     1      45.434   3.495  12.793  0.00  0.00    +0.000 S 
ATOM     15  C   UNL     1      44.622   4.858  12.186  0.00  0.00    +0.000 A 
ATOM     16  N   UNL     1      43.361   4.756  11.681  0.00  0.00    +0.000 NA
ATOM     17  C   UNL     1      42.851   5.874  11.288  0.00  0.00    +0.000 A 
ATOM     18  N   UNL     1      43.493   7.082  11.330  0.00  0.00    +0.000 N 
ATOM     19  C   UNL     1      44.794   7.220  11.743  0.00  0.00    +0.000 A 
ATOM     20  O   UNL     1      45.388   8.284  11.614  0.00  0.00    +0.000 OA
ATOM     21  C   UNL     1      45.392   6.007  12.270  0.00  0.00    +0.000 A 
ATOM     22  H   UNL     1      43.054   7.916  10.965  0.00  0.00    +0.000 HD
ENDBRANCH   9  12
ENDBRANCH   7  10
ENDBRANCH   1   7
BRANCH   4  23
ATOM     23  C   UNL     1      49.241   7.388  20.019  0.00  0.00    +0.000 C 
BRANCH  23  24
ATOM     24  N   UNL     1      49.700   5.974  20.110  0.00  0.00    +0.000 NA
BRANCH  24  25
ATOM     25  C   UNL     1      50.482   5.759  21.355  0.00  0.00    +0.000 C 
BRANCH  25  26
ATOM     26  C   UNL     1      51.632   4.741  21.239  0.00  0.00    +0.000 C 
BRANCH  26  27
ATOM     27  O   UNL     1      51.761   4.278  19.896  0.00  0.00    +0.000 OA
ATOM     28  H   UNL     1      52.256   3.441  19.928  0.00  0.00    +0.000 HD
ENDBRANCH  26  27
ENDBRANCH  25  26
ENDBRANCH  24  25
BRANCH  24  29
ATOM     29  C   UNL     1      48.525   5.072  20.087  0.00  0.00    +0.000 C 
BRANCH  29  30
ATOM     30  C   UNL     1      48.294   4.316  18.791  0.00  0.00    +0.000 A 
ATOM     31  C   UNL     1      47.240   4.664  17.945  0.00  0.00    +0.000 A 
ATOM     32  C   UNL     1      47.130   4.024  16.714  0.00  0.00    +0.000 A 
ATOM     33  C   UNL     1      48.065   3.057  16.363  0.00  0.00    +0.000 A 
ATOM     34  C   UNL     1      49.067   2.755  17.269  0.00  0.00    +0.000 A 
ATOM     35  N   UNL     1      49.202   3.360  18.470  0.00  0.00    +0.000 NA
ENDBRANCH  29  30
ENDBRANCH  24  29
ENDBRANCH  23  24
ENDBRANCH   4  23
TORSDOF 10
ENDMDL
MODEL 9
REMARK VINA RESULT:    -6.127      2.837      8.225
REMARK INTER + INTRA:         -11.214
REMARK INTER:                  -9.609
REMARK INTRA:                  -1.606
REMARK UNBOUND:                -1.685
REMARK  Name = 
REMARK  10 active torsions:
REMARK  status: ('A' for Active; 'I' for Inactive)
REMARK    1  A    between atoms: C_2  and  C_23
REMARK    2  A    between atoms: N_3  and  C_4
REMARK    3  A    between atoms: C_4  and  C_5
REMARK    4  A    between atoms: C_8  and  C_9
REMARK    5  A    between atoms: C_9  and  N_10
REMARK    6  A    between atoms: N_10  and  C_11
REMARK    7  A    between atoms: N_10  and  C_14
REMARK    8  A    between atoms: C_11  and  C_12
REMARK    9  A    between atoms: C_12  and  O_13
REMARK   10  A    between atoms: C_14  and  C_15
REMARK                            x       y       z     vdW  Elec       q    Type
REMARK                         _______ _______ _______ _____ _____    ______ ____
ROOT
ATOM      1  C   UNL     1      48.044   8.342  13.180  0.00  0.00    +0.000 A 
ATOM      2  C   UNL     1      48.154   9.355  14.141  0.00  0.00    +0.000 A 
ATOM      3  C   UNL     1      49.138   9.289  15.126  0.00  0.00    +0.000 A 
ATOM      4  C   UNL     1      50.025   8.204  15.171  0.00  0.00    +0.000 A 
ATOM      5  C   UNL     1      49.992   7.257  14.139  0.00  0.00    +0.000 A 
ATOM      6  C   UNL     1      49.012   7.329  13.146  0.00  0.00    +0.000 A 
ENDROOT
BRANCH   1   7
ATOM      7  C   UNL     1      46.878   8.327  12.229  0.00  0.00    +0.000 C 
BRANCH   7  10
ATOM      8  O   UNL     1      44.273   7.720  11.356  0.00  0.00    +0.000 OA
ATOM      9  C   UNL     1      45.042   6.802  11.627  0.00  0.00    +0.000 C 
ATOM     10  N   UNL     1      46.307   7.017  12.104  0.00  0.00    +0.000 N 
ATOM     11  H   UNL     1      46.957   6.242  12.171  0.00  0.00    +0.000 HD
BRANCH   9  12
ATOM     12  C   UNL     1      44.633   5.398  11.494  0.00  0.00    +0.000 A 
ATOM     13  C   UNL     1      43.959   4.777  12.535  0.00  0.00    +0.000 A 
ATOM     14  S   UNL     1      43.541   3.157  12.203  0.00  0.00    +0.000 S 
ATOM     15  C   UNL     1      44.208   3.247  10.643  0.00  0.00    +0.000 A 
ATOM     16  N   UNL     1      44.141   2.186   9.791  0.00  0.00    +0.000 NA
ATOM     17  C   UNL     1      44.655   2.405   8.627  0.00  0.00    +0.000 A 
ATOM     18  N   UNL     1      45.250   3.576   8.244  0.00  0.00    +0.000 N 
ATOM     19  C   UNL     1      45.422   4.637   9.095  0.00  0.00    +0.000 A 
ATOM     20  O   UNL     1      46.101   5.605   8.771  0.00  0.00    +0.000 OA
ATOM     21  C   UNL     1      44.794   4.477  10.394  0.00  0.00    +0.000 A 
ATOM     22  H   UNL     1      45.674   3.668   7.331  0.00  0.00    +0.000 HD
ENDBRANCH   9  12
ENDBRANCH   7  10
ENDBRANCH   1   7
BRANCH   4  23
ATOM     23  C   UNL     1      50.944   8.021  16.364  0.00  0.00    +0.000 C 
BRANCH  23  24
ATOM     24  N   UNL     1      51.424   6.619  16.511  0.00  0.00    +0.000 NA
BRANCH  24  25
ATOM     25  C   UNL     1      52.898   6.589  16.691  0.00  0.00    +0.000 C 
BRANCH  25  26
ATOM     26  C   UNL     1      53.695   7.492  15.729  0.00  0.00    +0.000 C 
BRANCH  26  27
ATOM     27  O   UNL     1      53.721   6.931  14.418  0.00  0.00    +0.000 OA
ATOM     28  H   UNL     1      53.963   5.994  14.512  0.00  0.00    +0.000 HD
ENDBRANCH  26  27
ENDBRANCH  25  26
ENDBRANCH  24  25
BRANCH  24  29
ATOM     29  C   UNL     1      50.759   5.990  17.677  0.00  0.00    +0.000 C 
BRANCH  29  30
ATOM     30  C   UNL     1      49.743   4.909  17.357  0.00  0.00    +0.000 A 
ATOM     31  C   UNL     1      48.440   5.245  16.989  0.00  0.00    +0.000 A 
ATOM     32  C   UNL     1      47.572   4.231  16.594  0.00  0.00    +0.000 A 
ATOM     33  C   UNL     1      48.022   2.917  16.581  0.00  0.00    +0.000 A 
ATOM     34  C   UNL     1      49.323   2.665  16.982  0.00  0.00    +0.000 A 
ATOM     35  N   UNL     1      50.189   3.627  17.368  0.00  0.00    +0.000 NA
ENDBRANCH  29  30
ENDBRANCH  24  29
ENDBRANCH  23  24
ENDBRANCH   4  23
TORSDOF 10
ENDMDL
