MODEL 1
REMARK VINA RESULT:    -7.235      0.000      0.000
REMARK INTER + INTRA:          -9.136
REMARK INTER:                  -8.504
REMARK INTRA:                  -0.632
REMARK UNBOUND:                -0.632
REMARK  Name = 
REMARK  3 active torsions:
REMARK  status: ('A' for Active; 'I' for Inactive)
REMARK    1  A    between atoms: C_4  and  N_5
REMARK    2  A    between atoms: N_5  and  C_6
REMARK    3  A    between atoms: C_6  and  C_7
REMARK                            x       y       z     vdW  Elec       q    Type
REMARK                         _______ _______ _______ _____ _____    ______ ____
ROOT
ATOM      1  C   UNL     1      44.662   4.524  11.865  0.00  0.00    +0.000 A 
ATOM      2  C   UNL     1      45.388   3.582  12.585  0.00  0.00    +0.000 A 
ATOM      3  C   UNL     1      46.430   4.037  13.374  0.00  0.00    +0.000 A 
ATOM      4  N   UNL     1      46.781   5.340  13.497  0.00  0.00    +0.000 NA
ATOM      5  C   UNL     1      46.059   6.270  12.834  0.00  0.00    +0.000 A 
ATOM      6  N   UNL     1      46.465   7.589  12.869  0.00  0.00    +0.000 N 
ATOM      7  C   UNL     1      45.516   8.703  12.787  0.00  0.00    +0.000 C 
ATOM      8  C   UNL     1      46.181   9.838  11.993  0.00  0.00    +0.000 C 
ATOM      9  O   UNL     1      47.426  10.243  12.590  0.00  0.00    +0.000 OA
ATOM     10  C   UNL     1      48.334   9.124  12.679  0.00  0.00    +0.000 C 
ATOM     11  C   UNL     1      47.737   7.962  13.497  0.00  0.00    +0.000 C 
ATOM     12  C   UNL     1      44.996   5.876  12.026  0.00  0.00    +0.000 A 
ENDROOT
BRANCH   1  13
ATOM     13  C   UNL     1      43.601   4.139  10.865  0.00  0.00    +0.000 C 
BRANCH  13  14
ATOM     14  N   UNL     1      44.002   4.476   9.510  0.00  0.00    +0.000 N 
ATOM     15  H   UNL     1      43.230   4.768   8.916  0.00  0.00    +0.000 HD
BRANCH  14  19
ATOM     16  C   UNL     1      46.805   2.076   7.448  0.00  0.00    +0.000 A 
ATOM     17  C   UNL     1      45.910   1.474   8.326  0.00  0.00    +0.000 A 
ATOM     18  C   UNL     1      44.972   2.254   9.017  0.00  0.00    +0.000 A 
ATOM     19  C   UNL     1      44.888   3.637   8.820  0.00  0.00    +0.000 A 
ATOM     20  C   UNL     1      45.818   4.225   7.947  0.00  0.00    +0.000 A 
ATOM     21  C   UNL     1      46.767   3.455   7.264  0.00  0.00    +0.000 A 
ENDBRANCH  14  19
ENDBRANCH  13  14
ENDBRANCH   1  13
TORSDOF 3
ENDMDL
MODEL 2
REMARK VINA RESULT:    -7.176      0.160      1.085
REMARK INTER + INTRA:          -9.067
REMARK INTER:                  -8.472
REMARK INTRA:                  -0.595
REMARK UNBOUND:                -0.632
REMARK  Name = 
REMARK  3 active torsions:
REMARK  status: ('A' for Active; 'I' for Inactive)
REMARK    1  A    between atoms: C_4  and  N_5
REMARK    2  A    between atoms: N_5  and  C_6
REMARK    3  A    between atoms: C_6  and  C_7
REMARK                            x       y       z     vdW  Elec       q    Type
REMARK                         _______ _______ _______ _____ _____    ______ ____
ROOT
ATOM      1  C   UNL     1      44.691   4.546  11.874  0.00  0.00    +0.000 A 
ATOM      2  C   UNL     1      45.397   3.557  12.550  0.00  0.00    +0.000 A 
ATOM      3  C   UNL     1      46.467   3.952  13.335  0.00  0.00    +0.000 A 
ATOM      4  N   UNL     1      46.862   5.238  13.495  0.00  0.00    +0.000 NA
ATOM      5  C   UNL     1      46.160   6.213  12.875  0.00  0.00    +0.000 A 
ATOM      6  N   UNL     1      46.610   7.516  12.947  0.00  0.00    +0.000 N 
ATOM      7  C   UNL     1      45.697   8.663  12.919  0.00  0.00    +0.000 C 
ATOM      8  C   UNL     1      46.385   9.801  12.151  0.00  0.00    +0.000 C 
ATOM      9  O   UNL     1      47.653  10.145  12.739  0.00  0.00    +0.000 OA
ATOM     10  C   UNL     1      48.525   8.996  12.775  0.00  0.00    +0.000 C 
ATOM     11  C   UNL     1      47.903   7.827  13.564  0.00  0.00    +0.000 C 
ATOM     12  C   UNL     1      45.072   5.881  12.074  0.00  0.00    +0.000 A 
ENDROOT
BRANCH   1  13
ATOM     13  C   UNL     1      43.601   4.229  10.881  0.00  0.00    +0.000 C 
BRANCH  13  14
ATOM     14  N   UNL     1      44.001   4.574   9.527  0.00  0.00    +0.000 N 
ATOM     15  H   UNL     1      43.221   4.802   8.917  0.00  0.00    +0.000 HD
BRANCH  14  19
ATOM     16  C   UNL     1      46.750   2.077   7.509  0.00  0.00    +0.000 A 
ATOM     17  C   UNL     1      46.786   3.449   7.283  0.00  0.00    +0.000 A 
ATOM     18  C   UNL     1      45.883   4.293   7.946  0.00  0.00    +0.000 A 
ATOM     19  C   UNL     1      44.956   3.790   8.865  0.00  0.00    +0.000 A 
ATOM     20  C   UNL     1      44.923   2.399   9.057  0.00  0.00    +0.000 A 
ATOM     21  C   UNL     1      45.812   1.548   8.389  0.00  0.00    +0.000 A 
ENDBRANCH  14  19
ENDBRANCH  13  14
ENDBRANCH   1  13
TORSDOF 3
ENDMDL
MODEL 3
REMARK VINA RESULT:    -7.025      1.623      2.540
REMARK INTER + INTRA:          -8.889
REMARK INTER:                  -8.429
REMARK INTRA:                  -0.460
REMARK UNBOUND:                -0.632
REMARK  Name = 
REMARK  3 active torsions:
REMARK  status: ('A' for Active; 'I' for Inactive)
REMARK    1  A    between atoms: C_4  and  N_5
REMARK    2  A    between atoms: N_5  and  C_6
REMARK    3  A    between atoms: C_6  and  C_7
REMARK                            x       y       z     vdW  Elec       q    Type
REMARK                         _______ _______ _______ _____ _____    ______ ____
ROOT
ATOM      1  C   UNL     1      44.421   3.957  10.144  0.00  0.00    +0.000 A 
ATOM      2  C   UNL     1      43.774   3.030  10.954  0.00  0.00    +0.000 A 
ATOM      3  C   UNL     1      43.993   3.104  12.318  0.00  0.00    +0.000 A 
ATOM      4  N   UNL     1      44.786   4.025  12.915  0.00  0.00    +0.000 NA
ATOM      5  C   UNL     1      45.389   4.957  12.143  0.00  0.00    +0.000 A 
ATOM      6  N   UNL     1      46.279   5.839  12.724  0.00  0.00    +0.000 N 
ATOM      7  C   UNL     1      46.474   7.201  12.219  0.00  0.00    +0.000 C 
ATOM      8  C   UNL     1      47.957   7.565  12.389  0.00  0.00    +0.000 C 
ATOM      9  O   UNL     1      48.378   7.441  13.759  0.00  0.00    +0.000 OA
ATOM     10  C   UNL     1      48.157   6.098  14.239  0.00  0.00    +0.000 C 
ATOM     11  C   UNL     1      46.676   5.684  14.127  0.00  0.00    +0.000 C 
ATOM     12  C   UNL     1      45.207   4.938  10.764  0.00  0.00    +0.000 A 
ENDROOT
BRANCH   1  13
ATOM     13  C   UNL     1      44.375   3.890   8.637  0.00  0.00    +0.000 C 
BRANCH  13  14
ATOM     14  N   UNL     1      45.687   4.117   8.056  0.00  0.00    +0.000 N 
ATOM     15  H   UNL     1      45.779   5.019   7.597  0.00  0.00    +0.000 HD
BRANCH  14  19
ATOM     16  C   UNL     1      47.429   0.927   5.899  0.00  0.00    +0.000 A 
ATOM     17  C   UNL     1      47.245   2.154   5.269  0.00  0.00    +0.000 A 
ATOM     18  C   UNL     1      46.671   3.223   5.969  0.00  0.00    +0.000 A 
ATOM     19  C   UNL     1      46.303   3.100   7.314  0.00  0.00    +0.000 A 
ATOM     20  C   UNL     1      46.475   1.846   7.921  0.00  0.00    +0.000 A 
ATOM     21  C   UNL     1      47.036   0.768   7.223  0.00  0.00    +0.000 A 
ENDBRANCH  14  19
ENDBRANCH  13  14
ENDBRANCH   1  13
TORSDOF 3
ENDMDL
MODEL 4
REMARK VINA RESULT:    -6.946      2.596      3.637
REMARK INTER + INTRA:          -8.796
REMARK INTER:                  -8.292
REMARK INTRA:                  -0.504
REMARK UNBOUND:                -0.632
REMARK  Name = 
REMARK  3 active torsions:
REMARK  status: ('A' for Active; 'I' for Inactive)
REMARK    1  A    between atoms: C_4  and  N_5
REMARK    2  A    between atoms: N_5  and  C_6
REMARK    3  A    between atoms: C_6  and  C_7
REMARK                            x       y       z     vdW  Elec       q    Type
REMARK                         _______ _______ _______ _____ _____    ______ ____
ROOT
ATOM      1  C   UNL     1      45.370   5.239  12.204  0.00  0.00    +0.000 A 
ATOM      2  C   UNL     1      45.989   6.322  11.589  0.00  0.00    +0.000 A 
ATOM      3  C   UNL     1      47.097   6.870  12.214  0.00  0.00    +0.000 A 
ATOM      4  N   UNL     1      47.620   6.414  13.377  0.00  0.00    +0.000 NA
ATOM      5  C   UNL     1      47.051   5.337  13.964  0.00  0.00    +0.000 A 
ATOM      6  N   UNL     1      47.509   4.923  15.199  0.00  0.00    +0.000 N 
ATOM      7  C   UNL     1      47.476   3.518  15.616  0.00  0.00    +0.000 C 
ATOM      8  C   UNL     1      47.175   3.475  17.122  0.00  0.00    +0.000 C 
ATOM      9  O   UNL     1      48.140   4.231  17.876  0.00  0.00    +0.000 OA
ATOM     10  C   UNL     1      48.169   5.604  17.433  0.00  0.00    +0.000 C 
ATOM     11  C   UNL     1      48.502   5.716  15.932  0.00  0.00    +0.000 C 
ATOM     12  C   UNL     1      45.937   4.739  13.385  0.00  0.00    +0.000 A 
ENDROOT
BRANCH   1  13
ATOM     13  C   UNL     1      44.077   4.650  11.697  0.00  0.00    +0.000 C 
BRANCH  13  14
ATOM     14  N   UNL     1      43.966   4.777  10.254  0.00  0.00    +0.000 N 
ATOM     15  H   UNL     1      43.013   4.914   9.928  0.00  0.00    +0.000 HD
BRANCH  14  19
ATOM     16  C   UNL     1      46.226   2.230   7.750  0.00  0.00    +0.000 A 
ATOM     17  C   UNL     1      45.438   1.674   8.751  0.00  0.00    +0.000 A 
ATOM     18  C   UNL     1      44.680   2.503   9.590  0.00  0.00    +0.000 A 
ATOM     19  C   UNL     1      44.669   3.893   9.424  0.00  0.00    +0.000 A 
ATOM     20  C   UNL     1      45.491   4.433   8.422  0.00  0.00    +0.000 A 
ATOM     21  C   UNL     1      46.263   3.612   7.589  0.00  0.00    +0.000 A 
ENDBRANCH  14  19
ENDBRANCH  13  14
ENDBRANCH   1  13
TORSDOF 3
ENDMDL
MODEL 5
REMARK VINA RESULT:    -6.693      1.146      1.721
REMARK INTER + INTRA:          -8.499
REMARK INTER:                  -7.907
REMARK INTRA:                  -0.592
REMARK UNBOUND:                -0.632
REMARK  Name = 
REMARK  3 active torsions:
REMARK  status: ('A' for Active; 'I' for Inactive)
REMARK    1  A    between atoms: C_4  and  N_5
REMARK    2  A    between atoms: N_5  and  C_6
REMARK    3  A    between atoms: C_6  and  C_7
REMARK                            x       y       z     vdW  Elec       q    Type
REMARK                         _______ _______ _______ _____ _____    ______ ____
ROOT
ATOM      1  C   UNL     1      44.754   5.514  12.199  0.00  0.00    +0.000 A 
ATOM      2  C   UNL     1      45.752   4.870  12.922  0.00  0.00    +0.000 A 
ATOM      3  C   UNL     1      46.794   5.641  13.409  0.00  0.00    +0.000 A 
ATOM      4  N   UNL     1      46.897   6.981  13.236  0.00  0.00    +0.000 NA
ATOM      5  C   UNL     1      45.913   7.625  12.569  0.00  0.00    +0.000 A 
ATOM      6  N   UNL     1      46.053   8.971  12.298  0.00  0.00    +0.000 N 
ATOM      7  C   UNL     1      44.903   9.875  12.204  0.00  0.00    +0.000 C 
ATOM      8  C   UNL     1      45.202  10.916  11.115  0.00  0.00    +0.000 C 
ATOM      9  O   UNL     1      46.420  11.632  11.387  0.00  0.00    +0.000 OA
ATOM     10  C   UNL     1      47.532  10.719  11.496  0.00  0.00    +0.000 C 
ATOM     11  C   UNL     1      47.307   9.668  12.600  0.00  0.00    +0.000 C 
ATOM     12  C   UNL     1      44.837   6.906  12.057  0.00  0.00    +0.000 A 
ENDROOT
BRANCH   1  13
ATOM     13  C   UNL     1      43.648   4.764  11.499  0.00  0.00    +0.000 C 
BRANCH  13  14
ATOM     14  N   UNL     1      43.752   4.892  10.055  0.00  0.00    +0.000 N 
ATOM     15  H   UNL     1      42.854   4.987   9.589  0.00  0.00    +0.000 HD
BRANCH  14  19
ATOM     16  C   UNL     1      46.199   2.210   7.891  0.00  0.00    +0.000 A 
ATOM     17  C   UNL     1      46.343   3.578   7.686  0.00  0.00    +0.000 A 
ATOM     18  C   UNL     1      45.542   4.482   8.397  0.00  0.00    +0.000 A 
ATOM     19  C   UNL     1      44.610   4.042   9.344  0.00  0.00    +0.000 A 
ATOM     20  C   UNL     1      44.465   2.656   9.515  0.00  0.00    +0.000 A 
ATOM     21  C   UNL     1      45.253   1.745   8.798  0.00  0.00    +0.000 A 
ENDBRANCH  14  19
ENDBRANCH  13  14
ENDBRANCH   1  13
TORSDOF 3
ENDMDL
MODEL 6
REMARK VINA RESULT:    -6.164      1.910      2.414
REMARK INTER + INTRA:          -7.877
REMARK INTER:                  -7.458
REMARK INTRA:                  -0.418
REMARK UNBOUND:                -0.632
REMARK  Name = 
REMARK  3 active torsions:
REMARK  status: ('A' for Active; 'I' for Inactive)
REMARK    1  A    between atoms: C_4  and  N_5
REMARK    2  A    between atoms: N_5  and  C_6
REMARK    3  A    between atoms: C_6  and  C_7
REMARK                            x       y       z     vdW  Elec       q    Type
REMARK                         _______ _______ _______ _____ _____    ______ ____
ROOT
ATOM      1  C   UNL     1      46.141   5.807  12.458  0.00  0.00    +0.000 A 
ATOM      2  C   UNL     1      46.064   4.574  13.097  0.00  0.00    +0.000 A 
ATOM      3  C   UNL     1      46.900   4.357  14.179  0.00  0.00    +0.000 A 
ATOM      4  N   UNL     1      47.778   5.268  14.659  0.00  0.00    +0.000 NA
ATOM      5  C   UNL     1      47.835   6.485  14.073  0.00  0.00    +0.000 A 
ATOM      6  N   UNL     1      48.793   7.388  14.486  0.00  0.00    +0.000 N 
ATOM      7  C   UNL     1      48.576   8.837  14.441  0.00  0.00    +0.000 C 
ATOM      8  C   UNL     1      49.911   9.509  14.085  0.00  0.00    +0.000 C 
ATOM      9  O   UNL     1      50.947   9.155  15.018  0.00  0.00    +0.000 OA
ATOM     10  C   UNL     1      51.127   7.724  15.060  0.00  0.00    +0.000 C 
ATOM     11  C   UNL     1      49.827   6.992  15.448  0.00  0.00    +0.000 C 
ATOM     12  C   UNL     1      47.018   6.767  12.982  0.00  0.00    +0.000 A 
ENDROOT
BRANCH   1  13
ATOM     13  C   UNL     1      45.387   6.110  11.187  0.00  0.00    +0.000 C 
BRANCH  13  14
ATOM     14  N   UNL     1      44.559   4.987  10.781  0.00  0.00    +0.000 N 
ATOM     15  H   UNL     1      44.152   4.478  11.561  0.00  0.00    +0.000 HD
BRANCH  14  19
ATOM     16  C   UNL     1      46.082   2.462   7.753  0.00  0.00    +0.000 A 
ATOM     17  C   UNL     1      45.415   1.899   8.836  0.00  0.00    +0.000 A 
ATOM     18  C   UNL     1      44.902   2.721   9.848  0.00  0.00    +0.000 A 
ATOM     19  C   UNL     1      45.014   4.114   9.783  0.00  0.00    +0.000 A 
ATOM     20  C   UNL     1      45.712   4.658   8.692  0.00  0.00    +0.000 A 
ATOM     21  C   UNL     1      46.240   3.842   7.683  0.00  0.00    +0.000 A 
ENDBRANCH  14  19
ENDBRANCH  13  14
ENDBRANCH   1  13
TORSDOF 3
ENDMDL
MODEL 7
REMARK VINA RESULT:    -6.142      2.939      4.122
REMARK INTER + INTRA:          -7.851
REMARK INTER:                  -7.362
REMARK INTRA:                  -0.489
REMARK UNBOUND:                -0.632
REMARK  Name = 
REMARK  3 active torsions:
REMARK  status: ('A' for Active; 'I' for Inactive)
REMARK    1  A    between atoms: C_4  and  N_5
REMARK    2  A    between atoms: N_5  and  C_6
REMARK    3  A    between atoms: C_6  and  C_7
REMARK                            x       y       z     vdW  Elec       q    Type
REMARK                         _______ _______ _______ _____ _____    ______ ____
ROOT
ATOM      1  C   UNL     1      46.818   6.675  12.414  0.00  0.00    +0.000 A 
ATOM      2  C   UNL     1      47.898   7.422  11.957  0.00  0.00    +0.000 A 
ATOM      3  C   UNL     1      49.022   7.486  12.762  0.00  0.00    +0.000 A 
ATOM      4  N   UNL     1      49.142   6.862  13.958  0.00  0.00    +0.000 NA
ATOM      5  C   UNL     1      48.114   6.100  14.395  0.00  0.00    +0.000 A 
ATOM      6  N   UNL     1      48.180   5.540  15.655  0.00  0.00    +0.000 N 
ATOM      7  C   UNL     1      47.536   4.264  15.980  0.00  0.00    +0.000 C 
ATOM      8  C   UNL     1      47.017   4.346  17.424  0.00  0.00    +0.000 C 
ATOM      9  O   UNL     1      48.074   4.658  18.349  0.00  0.00    +0.000 OA
ATOM     10  C   UNL     1      48.706   5.906  17.995  0.00  0.00    +0.000 C 
ATOM     11  C   UNL     1      49.280   5.876  16.565  0.00  0.00    +0.000 C 
ATOM     12  C   UNL     1      46.957   5.992  13.631  0.00  0.00    +0.000 A 
ENDROOT
BRANCH   1  13
ATOM     13  C   UNL     1      45.491   6.646  11.698  0.00  0.00    +0.000 C 
BRANCH  13  14
ATOM     14  N   UNL     1      44.873   5.333  11.778  0.00  0.00    +0.000 N 
ATOM     15  H   UNL     1      45.101   4.826  12.629  0.00  0.00    +0.000 HD
BRANCH  14  19
ATOM     16  C   UNL     1      45.098   2.857   8.360  0.00  0.00    +0.000 A 
ATOM     17  C   UNL     1      44.555   2.347   9.534  0.00  0.00    +0.000 A 
ATOM     18  C   UNL     1      44.470   3.154  10.676  0.00  0.00    +0.000 A 
ATOM     19  C   UNL     1      44.893   4.488  10.659  0.00  0.00    +0.000 A 
ATOM     20  C   UNL     1      45.461   4.973   9.470  0.00  0.00    +0.000 A 
ATOM     21  C   UNL     1      45.561   4.168   8.328  0.00  0.00    +0.000 A 
ENDBRANCH  14  19
ENDBRANCH  13  14
ENDBRANCH   1  13
TORSDOF 3
ENDMDL
MODEL 8
REMARK VINA RESULT:    -6.003      3.552      6.976
REMARK INTER + INTRA:          -7.688
REMARK INTER:                  -7.214
REMARK INTRA:                  -0.474
REMARK UNBOUND:                -0.632
REMARK  Name = 
REMARK  3 active torsions:
REMARK  status: ('A' for Active; 'I' for Inactive)
REMARK    1  A    between atoms: C_4  and  N_5
REMARK    2  A    between atoms: N_5  and  C_6
REMARK    3  A    between atoms: C_6  and  C_7
REMARK                            x       y       z     vdW  Elec       q    Type
REMARK                         _______ _______ _______ _____ _____    ______ ____
ROOT
ATOM      1  C   UNL     1      47.672   6.626  13.711  0.00  0.00    +0.000 A 
ATOM      2  C   UNL     1      48.222   7.403  12.698  0.00  0.00    +0.000 A 
ATOM      3  C   UNL     1      47.663   7.306  11.435  0.00  0.00    +0.000 A 
ATOM      4  N   UNL     1      46.611   6.511  11.127  0.00  0.00    +0.000 NA
ATOM      5  C   UNL     1      46.041   5.780  12.110  0.00  0.00    +0.000 A 
ATOM      6  N   UNL     1      45.034   4.891  11.792  0.00  0.00    +0.000 N 
ATOM      7  C   UNL     1      43.954   4.562  12.728  0.00  0.00    +0.000 C 
ATOM      8  C   UNL     1      43.595   3.080  12.539  0.00  0.00    +0.000 C 
ATOM      9  O   UNL     1      43.225   2.795  11.179  0.00  0.00    +0.000 OA
ATOM     10  C   UNL     1      44.294   3.147  10.276  0.00  0.00    +0.000 C 
ATOM     11  C   UNL     1      44.678   4.635  10.393  0.00  0.00    +0.000 C 
ATOM     12  C   UNL     1      46.555   5.836  13.402  0.00  0.00    +0.000 A 
ENDROOT
BRANCH   1  13
ATOM     13  C   UNL     1      48.282   6.538  15.088  0.00  0.00    +0.000 C 
BRANCH  13  14
ATOM     14  N   UNL     1      47.653   5.495  15.881  0.00  0.00    +0.000 N 
ATOM     15  H   UNL     1      46.960   5.844  16.537  0.00  0.00    +0.000 HD
BRANCH  14  19
ATOM     16  C   UNL     1      50.008   2.363  17.464  0.00  0.00    +0.000 A 
ATOM     17  C   UNL     1      50.383   3.682  17.701  0.00  0.00    +0.000 A 
ATOM     18  C   UNL     1      49.612   4.733  17.185  0.00  0.00    +0.000 A 
ATOM     19  C   UNL     1      48.442   4.490  16.457  0.00  0.00    +0.000 A 
ATOM     20  C   UNL     1      48.099   3.152  16.210  0.00  0.00    +0.000 A 
ATOM     21  C   UNL     1      48.871   2.095  16.710  0.00  0.00    +0.000 A 
ENDBRANCH  14  19
ENDBRANCH  13  14
ENDBRANCH   1  13
TORSDOF 3
ENDMDL
MODEL 9
REMARK VINA RESULT:    -5.843      4.269      7.370
REMARK INTER + INTRA:          -7.500
REMARK INTER:                  -7.107
REMARK INTRA:                  -0.393
REMARK UNBOUND:                -0.632
REMARK  Name = 
REMARK  3 active torsions:
REMARK  status: ('A' for Active; 'I' for Inactive)
REMARK    1  A    between atoms: C_4  and  N_5
REMARK    2  A    between atoms: N_5  and  C_6
REMARK    3  A    between atoms: C_6  and  C_7
REMARK                            x       y       z     vdW  Elec       q    Type
REMARK                         _______ _______ _______ _____ _____    ______ ____
ROOT
ATOM      1  C   UNL     1      47.278   4.734  15.133  0.00  0.00    +0.000 A 
ATOM      2  C   UNL     1      48.097   5.833  14.900  0.00  0.00    +0.000 A 
ATOM      3  C   UNL     1      47.906   6.540  13.725  0.00  0.00    +0.000 A 
ATOM      4  N   UNL     1      46.969   6.237  12.795  0.00  0.00    +0.000 NA
ATOM      5  C   UNL     1      46.140   5.195  13.029  0.00  0.00    +0.000 A 
ATOM      6  N   UNL     1      45.248   4.811  12.048  0.00  0.00    +0.000 N 
ATOM      7  C   UNL     1      43.948   4.211  12.362  0.00  0.00    +0.000 C 
ATOM      8  C   UNL     1      43.634   3.162  11.285  0.00  0.00    +0.000 C 
ATOM      9  O   UNL     1      43.649   3.737   9.966  0.00  0.00    +0.000 OA
ATOM     10  C   UNL     1      44.931   4.340   9.689  0.00  0.00    +0.000 C 
ATOM     11  C   UNL     1      45.288   5.429  10.718  0.00  0.00    +0.000 C 
ATOM     12  C   UNL     1      46.279   4.446  14.193  0.00  0.00    +0.000 A 
ENDROOT
BRANCH   1  13
ATOM     13  C   UNL     1      47.484   3.804  16.303  0.00  0.00    +0.000 C 
BRANCH  13  14
ATOM     14  N   UNL     1      48.491   4.316  17.217  0.00  0.00    +0.000 N 
ATOM     15  H   UNL     1      48.624   5.322  17.155  0.00  0.00    +0.000 HD
BRANCH  14  19
ATOM     16  C   UNL     1      52.218   2.398  17.758  0.00  0.00    +0.000 A 
ATOM     17  C   UNL     1      51.116   1.644  17.367  0.00  0.00    +0.000 A 
ATOM     18  C   UNL     1      49.873   2.264  17.181  0.00  0.00    +0.000 A 
ATOM     19  C   UNL     1      49.714   3.644  17.347  0.00  0.00    +0.000 A 
ATOM     20  C   UNL     1      50.835   4.380  17.766  0.00  0.00    +0.000 A 
ATOM     21  C   UNL     1      52.078   3.766  17.968  0.00  0.00    +0.000 A 
ENDBRANCH  14  19
ENDBRANCH  13  14
ENDBRANCH   1  13
TORSDOF 3
ENDMDL
