MODEL 1
REMARK VINA RESULT:    -8.354      0.000      0.000
REMARK INTER + INTRA:         -12.397
REMARK INTER:                 -11.284
REMARK INTRA:                  -1.113
REMARK UNBOUND:                -1.113
REMARK  Name = 
REMARK  8 active torsions:
REMARK  status: ('A' for Active; 'I' for Inactive)
REMARK    1  A    between atoms: C_1  and  C_2
REMARK    2  A    between atoms: C_2  and  N_3
REMARK    3  A    between atoms: C_2  and  C_16
REMARK    4  A    between atoms: C_4  and  C_6
REMARK    5  A    between atoms: C_19  and  N_20
REMARK    6  A    between atoms: N_20  and  C_21
REMARK    7  A    between atoms: N_20  and  C_22
REMARK    8  A    between atoms: C_22  and  C_23
REMARK                            x       y       z     vdW  Elec       q    Type
REMARK                         _______ _______ _______ _____ _____    ______ ____
ROOT
ATOM      1  C   UNL     1      48.326   8.488  12.993  0.00  0.00    +0.000 C 
ATOM      2  C   UNL     1      48.332   7.064  13.560  0.00  0.00    +0.000 C 
ENDROOT
BRANCH   2   3
ATOM      3  C   UNL     1      47.197   6.252  12.948  0.00  0.00    +0.000 A 
ATOM      4  C   UNL     1      46.508   6.688  11.815  0.00  0.00    +0.000 A 
ATOM      5  C   UNL     1      45.529   5.871  11.217  0.00  0.00    +0.000 A 
ATOM      6  C   UNL     1      45.224   4.591  11.700  0.00  0.00    +0.000 A 
ATOM      7  C   UNL     1      45.885   4.201  12.875  0.00  0.00    +0.000 A 
ATOM      8  C   UNL     1      46.848   5.008  13.487  0.00  0.00    +0.000 A 
BRANCH   6   9
ATOM      9  N   UNL     1      44.360   3.739  11.017  0.00  0.00    +0.000 N 
ATOM     10  C   UNL     1      43.321   3.002  11.726  0.00  0.00    +0.000 C 
BRANCH   9  11
ATOM     11  C   UNL     1      44.159   3.932   9.567  0.00  0.00    +0.000 C 
BRANCH  11  12
ATOM     12  C   UNL     1      45.222   3.301   8.681  0.00  0.00    +0.000 A 
ATOM     13  C   UNL     1      45.548   1.949   8.768  0.00  0.00    +0.000 A 
ATOM     14  C   UNL     1      46.496   1.419   7.897  0.00  0.00    +0.000 A 
ATOM     15  C   UNL     1      47.091   2.245   6.953  0.00  0.00    +0.000 A 
ATOM     16  C   UNL     1      46.707   3.572   6.916  0.00  0.00    +0.000 A 
ATOM     17  N   UNL     1      45.789   4.113   7.748  0.00  0.00    +0.000 NA
ENDBRANCH  11  12
ENDBRANCH   9  11
ENDBRANCH   6   9
ENDBRANCH   2   3
BRANCH   2  18
ATOM     18  N   UNL     1      48.186   7.033  15.010  0.00  0.00    +0.000 N 
ATOM     19  C   UNL     1      49.221   6.846  15.887  0.00  0.00    +0.000 C 
ATOM     20  O   UNL     1      50.386   6.716  15.526  0.00  0.00    +0.000 OA
ATOM     21  H   UNL     1      47.246   6.832  15.344  0.00  0.00    +0.000 HD
BRANCH  19  22
ATOM     22  C   UNL     1      48.873   6.881  17.315  0.00  0.00    +0.000 A 
ATOM     23  C   UNL     1      48.519   8.087  17.907  0.00  0.00    +0.000 A 
ATOM     24  S   UNL     1      48.140   7.952  19.564  0.00  0.00    +0.000 S 
ATOM     25  C   UNL     1      48.471   6.282  19.558  0.00  0.00    +0.000 A 
ATOM     26  N   UNL     1      48.377   5.548  20.700  0.00  0.00    +0.000 NA
ATOM     27  C   UNL     1      48.682   4.302  20.557  0.00  0.00    +0.000 A 
ATOM     28  N   UNL     1      49.058   3.721  19.373  0.00  0.00    +0.000 N 
ATOM     29  C   UNL     1      49.130   4.415  18.190  0.00  0.00    +0.000 A 
ATOM     30  O   UNL     1      49.411   3.857  17.137  0.00  0.00    +0.000 OA
ATOM     31  C   UNL     1      48.831   5.829  18.303  0.00  0.00    +0.000 A 
ATOM     32  H   UNL     1      49.262   2.734  19.322  0.00  0.00    +0.000 HD
ENDBRANCH  19  22
ENDBRANCH   2  18
TORSDOF 6
ENDMDL
MODEL 2
REMARK VINA RESULT:    -8.134      1.310      2.115
REMARK INTER + INTRA:         -12.100
REMARK INTER:                 -10.830
REMARK INTRA:                  -1.270
REMARK UNBOUND:                -1.113
REMARK  Name = 
REMARK  8 active torsions:
REMARK  status: ('A' for Active; 'I' for Inactive)
REMARK    1  A    between atoms: C_1  and  C_2
REMARK    2  A    between atoms: C_2  and  N_3
REMARK    3  A    between atoms: C_2  and  C_16
REMARK    4  A    between atoms: C_4  and  C_6
REMARK    5  A    between atoms: C_19  and  N_20
REMARK    6  A    between atoms: N_20  and  C_21
REMARK    7  A    between atoms: N_20  and  C_22
REMARK    8  A    between atoms: C_22  and  C_23
REMARK                            x       y       z     vdW  Elec       q    Type
REMARK                         _______ _______ _______ _____ _____    ______ ____
ROOT
ATOM      1  C   UNL     1      47.587   8.750  13.924  0.00  0.00    +0.000 C 
ATOM      2  C   UNL     1      48.072   7.300  14.035  0.00  0.00    +0.000 C 
ENDROOT
BRANCH   2   3
ATOM      3  C   UNL     1      47.193   6.389  13.188  0.00  0.00    +0.000 A 
ATOM      4  C   UNL     1      46.723   5.165  13.667  0.00  0.00    +0.000 A 
ATOM      5  C   UNL     1      45.835   4.390  12.896  0.00  0.00    +0.000 A 
ATOM      6  C   UNL     1      45.362   4.813  11.647  0.00  0.00    +0.000 A 
ATOM      7  C   UNL     1      45.896   6.017  11.160  0.00  0.00    +0.000 A 
ATOM      8  C   UNL     1      46.789   6.788  11.907  0.00  0.00    +0.000 A 
BRANCH   6   9
ATOM      9  N   UNL     1      44.376   4.108  10.962  0.00  0.00    +0.000 N 
ATOM     10  C   UNL     1      43.201   3.597  11.657  0.00  0.00    +0.000 C 
BRANCH   9  11
ATOM     11  C   UNL     1      44.253   4.283   9.500  0.00  0.00    +0.000 C 
BRANCH  11  12
ATOM     12  C   UNL     1      45.255   3.493   8.672  0.00  0.00    +0.000 A 
ATOM     13  C   UNL     1      45.453   2.126   8.859  0.00  0.00    +0.000 A 
ATOM     14  C   UNL     1      46.350   1.447   8.038  0.00  0.00    +0.000 A 
ATOM     15  C   UNL     1      47.023   2.144   7.043  0.00  0.00    +0.000 A 
ATOM     16  C   UNL     1      46.765   3.496   6.907  0.00  0.00    +0.000 A 
ATOM     17  N   UNL     1      45.899   4.179   7.690  0.00  0.00    +0.000 NA
ENDBRANCH  11  12
ENDBRANCH   9  11
ENDBRANCH   6   9
ENDBRANCH   2   3
BRANCH   2  18
ATOM     18  N   UNL     1      48.059   6.804  15.406  0.00  0.00    +0.000 N 
ATOM     19  C   UNL     1      49.178   6.443  16.108  0.00  0.00    +0.000 C 
ATOM     20  O   UNL     1      50.312   6.538  15.649  0.00  0.00    +0.000 OA
ATOM     21  H   UNL     1      47.168   6.425  15.717  0.00  0.00    +0.000 HD
BRANCH  19  22
ATOM     22  C   UNL     1      48.958   5.998  17.491  0.00  0.00    +0.000 A 
ATOM     23  C   UNL     1      49.278   4.695  17.852  0.00  0.00    +0.000 A 
ATOM     24  S   UNL     1      48.969   4.343  19.491  0.00  0.00    +0.000 S 
ATOM     25  C   UNL     1      48.363   5.909  19.769  0.00  0.00    +0.000 A 
ATOM     26  N   UNL     1      47.880   6.264  20.990  0.00  0.00    +0.000 NA
ATOM     27  C   UNL     1      47.426   7.472  21.052  0.00  0.00    +0.000 A 
ATOM     28  N   UNL     1      47.426   8.360  20.007  0.00  0.00    +0.000 N 
ATOM     29  C   UNL     1      47.938   8.057  18.769  0.00  0.00    +0.000 A 
ATOM     30  O   UNL     1      47.979   8.889  17.871  0.00  0.00    +0.000 OA
ATOM     31  C   UNL     1      48.428   6.698  18.636  0.00  0.00    +0.000 A 
ATOM     32  H   UNL     1      47.078   9.299  20.125  0.00  0.00    +0.000 HD
ENDBRANCH  19  22
ENDBRANCH   2  18
TORSDOF 6
ENDMDL
MODEL 3
REMARK VINA RESULT:    -7.243      3.374      8.425
REMARK INTER + INTRA:         -10.897
REMARK INTER:                  -9.665
REMARK INTRA:                  -1.232
REMARK UNBOUND:                -1.113
REMARK  Name = 
REMARK  8 active torsions:
REMARK  status: ('A' for Active; 'I' for Inactive)
REMARK    1  A    between atoms: C_1  and  C_2
REMARK    2  A    between atoms: C_2  and  N_3
REMARK    3  A    between atoms: C_2  and  C_16
REMARK    4  A    between atoms: C_4  and  C_6
REMARK    5  A    between atoms: C_19  and  N_20
REMARK    6  A    between atoms: N_20  and  C_21
REMARK    7  A    between atoms: N_20  and  C_22
REMARK    8  A    between atoms: C_22  and  C_23
REMARK                            x       y       z     vdW  Elec       q    Type
REMARK                         _______ _______ _______ _____ _____    ______ ____
ROOT
ATOM      1  C   UNL     1      49.738   8.178  11.602  0.00  0.00    +0.000 C 
ATOM      2  C   UNL     1      48.522   7.794  12.452  0.00  0.00    +0.000 C 
ENDROOT
BRANCH   2   3
ATOM      3  C   UNL     1      48.976   7.289  13.816  0.00  0.00    +0.000 A 
ATOM      4  C   UNL     1      50.196   7.674  14.375  0.00  0.00    +0.000 A 
ATOM      5  C   UNL     1      50.544   7.267  15.677  0.00  0.00    +0.000 A 
ATOM      6  C   UNL     1      49.689   6.495  16.475  0.00  0.00    +0.000 A 
ATOM      7  C   UNL     1      48.497   6.069  15.869  0.00  0.00    +0.000 A 
ATOM      8  C   UNL     1      48.145   6.453  14.573  0.00  0.00    +0.000 A 
BRANCH   6   9
ATOM      9  N   UNL     1      49.983   6.221  17.808  0.00  0.00    +0.000 N 
ATOM     10  C   UNL     1      50.222   7.300  18.759  0.00  0.00    +0.000 C 
BRANCH   9  11
ATOM     11  C   UNL     1      49.587   4.917  18.377  0.00  0.00    +0.000 C 
BRANCH  11  12
ATOM     12  C   UNL     1      50.507   3.757  18.026  0.00  0.00    +0.000 A 
ATOM     13  C   UNL     1      51.830   3.707  18.458  0.00  0.00    +0.000 A 
ATOM     14  C   UNL     1      52.609   2.597  18.144  0.00  0.00    +0.000 A 
ATOM     15  C   UNL     1      52.049   1.556  17.415  0.00  0.00    +0.000 A 
ATOM     16  C   UNL     1      50.725   1.669  17.033  0.00  0.00    +0.000 A 
ATOM     17  N   UNL     1      49.946   2.735  17.324  0.00  0.00    +0.000 NA
ENDBRANCH  11  12
ENDBRANCH   9  11
ENDBRANCH   6   9
ENDBRANCH   2   3
BRANCH   2  18
ATOM     18  N   UNL     1      47.702   6.760  11.831  0.00  0.00    +0.000 N 
ATOM     19  C   UNL     1      46.367   6.893  11.559  0.00  0.00    +0.000 C 
ATOM     20  O   UNL     1      45.739   7.921  11.789  0.00  0.00    +0.000 OA
ATOM     21  H   UNL     1      48.075   5.817  11.900  0.00  0.00    +0.000 HD
BRANCH  19  22
ATOM     22  C   UNL     1      45.724   5.748  10.898  0.00  0.00    +0.000 A 
ATOM     23  C   UNL     1      45.843   5.593   9.523  0.00  0.00    +0.000 A 
ATOM     24  S   UNL     1      45.046   4.213   8.918  0.00  0.00    +0.000 S 
ATOM     25  C   UNL     1      44.483   3.792  10.468  0.00  0.00    +0.000 A 
ATOM     26  N   UNL     1      43.686   2.704  10.650  0.00  0.00    +0.000 NA
ATOM     27  C   UNL     1      43.311   2.519  11.872  0.00  0.00    +0.000 A 
ATOM     28  N   UNL     1      43.672   3.314  12.928  0.00  0.00    +0.000 N 
ATOM     29  C   UNL     1      44.504   4.399  12.797  0.00  0.00    +0.000 A 
ATOM     30  O   UNL     1      44.858   5.056  13.768  0.00  0.00    +0.000 OA
ATOM     31  C   UNL     1      44.926   4.673  11.437  0.00  0.00    +0.000 A 
ATOM     32  H   UNL     1      43.363   3.103  13.865  0.00  0.00    +0.000 HD
ENDBRANCH  19  22
ENDBRANCH   2  18
TORSDOF 6
ENDMDL
MODEL 4
REMARK VINA RESULT:    -7.210      3.031      8.474
REMARK INTER + INTRA:         -10.852
REMARK INTER:                  -9.295
REMARK INTRA:                  -1.557
REMARK UNBOUND:                -1.113
REMARK  Name = 
REMARK  8 active torsions:
REMARK  status: ('A' for Active; 'I' for Inactive)
REMARK    1  A    between atoms: C_1  and  C_2
REMARK    2  A    between atoms: C_2  and  N_3
REMARK    3  A    between atoms: C_2  and  C_16
REMARK    4  A    between atoms: C_4  and  C_6
REMARK    5  A    between atoms: C_19  and  N_20
REMARK    6  A    between atoms: N_20  and  C_21
REMARK    7  A    between atoms: N_20  and  C_22
REMARK    8  A    between atoms: C_22  and  C_23
REMARK                            x       y       z     vdW  Elec       q    Type
REMARK                         _______ _______ _______ _____ _____    ______ ____
ROOT
ATOM      1  C   UNL     1      49.243   7.838  11.288  0.00  0.00    +0.000 C 
ATOM      2  C   UNL     1      48.038   7.869  12.235  0.00  0.00    +0.000 C 
ENDROOT
BRANCH   2   3
ATOM      3  C   UNL     1      48.511   7.912  13.682  0.00  0.00    +0.000 A 
ATOM      4  C   UNL     1      47.849   8.666  14.652  0.00  0.00    +0.000 A 
ATOM      5  C   UNL     1      48.253   8.610  15.999  0.00  0.00    +0.000 A 
ATOM      6  C   UNL     1      49.300   7.786  16.434  0.00  0.00    +0.000 A 
ATOM      7  C   UNL     1      49.990   7.085  15.432  0.00  0.00    +0.000 A 
ATOM      8  C   UNL     1      49.609   7.143  14.090  0.00  0.00    +0.000 A 
BRANCH   6   9
ATOM      9  N   UNL     1      49.596   7.631  17.785  0.00  0.00    +0.000 N 
ATOM     10  C   UNL     1      50.397   8.622  18.494  0.00  0.00    +0.000 C 
BRANCH   9  11
ATOM     11  C   UNL     1      48.733   6.766  18.614  0.00  0.00    +0.000 C 
BRANCH  11  12
ATOM     12  C   UNL     1      48.564   5.345  18.098  0.00  0.00    +0.000 A 
ATOM     13  C   UNL     1      47.355   4.888  17.576  0.00  0.00    +0.000 A 
ATOM     14  C   UNL     1      47.275   3.591  17.075  0.00  0.00    +0.000 A 
ATOM     15  C   UNL     1      48.404   2.782  17.096  0.00  0.00    +0.000 A 
ATOM     16  C   UNL     1      49.571   3.308  17.616  0.00  0.00    +0.000 A 
ATOM     17  N   UNL     1      49.678   4.563  18.108  0.00  0.00    +0.000 NA
ENDBRANCH  11  12
ENDBRANCH   9  11
ENDBRANCH   6   9
ENDBRANCH   2   3
BRANCH   2  18
ATOM     18  N   UNL     1      47.163   6.713  12.073  0.00  0.00    +0.000 N 
ATOM     19  C   UNL     1      45.795   6.774  12.075  0.00  0.00    +0.000 C 
ATOM     20  O   UNL     1      45.175   7.826  12.184  0.00  0.00    +0.000 OA
ATOM     21  H   UNL     1      47.594   5.816  12.283  0.00  0.00    +0.000 HD
BRANCH  19  22
ATOM     22  C   UNL     1      45.091   5.501  11.865  0.00  0.00    +0.000 A 
ATOM     23  C   UNL     1      44.371   4.933  12.907  0.00  0.00    +0.000 A 
ATOM     24  S   UNL     1      43.610   3.464  12.495  0.00  0.00    +0.000 S 
ATOM     25  C   UNL     1      44.247   3.515  10.918  0.00  0.00    +0.000 A 
ATOM     26  N   UNL     1      44.006   2.509  10.034  0.00  0.00    +0.000 NA
ATOM     27  C   UNL     1      44.572   2.664   8.884  0.00  0.00    +0.000 A 
ATOM     28  N   UNL     1      45.346   3.740   8.534  0.00  0.00    +0.000 N 
ATOM     29  C   UNL     1      45.585   4.795   9.380  0.00  0.00    +0.000 A 
ATOM     30  O   UNL     1      46.231   5.772   9.020  0.00  0.00    +0.000 OA
ATOM     31  C   UNL     1      45.000   4.654  10.699  0.00  0.00    +0.000 A 
ATOM     32  H   UNL     1      45.743   3.814   7.609  0.00  0.00    +0.000 HD
ENDBRANCH  19  22
ENDBRANCH   2  18
TORSDOF 6
ENDMDL
MODEL 5
REMARK VINA RESULT:    -7.202      4.069      6.579
REMARK INTER + INTRA:         -10.842
REMARK INTER:                  -9.628
REMARK INTRA:                  -1.213
REMARK UNBOUND:                -1.113
REMARK  Name = 
REMARK  8 active torsions:
REMARK  status: ('A' for Active; 'I' for Inactive)
REMARK    1  A    between atoms: C_1  and  C_2
REMARK    2  A    between atoms: C_2  and  N_3
REMARK    3  A    between atoms: C_2  and  C_16
REMARK    4  A    between atoms: C_4  and  C_6
REMARK    5  A    between atoms: C_19  and  N_20
REMARK    6  A    between atoms: N_20  and  C_21
REMARK    7  A    between atoms: N_20  and  C_22
REMARK    8  A    between atoms: C_22  and  C_23
REMARK                            x       y       z     vdW  Elec       q    Type
REMARK                         _______ _______ _______ _____ _____    ______ ____
ROOT
ATOM      1  C   UNL     1      48.911   6.973  14.138  0.00  0.00    +0.000 C 
ATOM      2  C   UNL     1      47.702   7.718  13.561  0.00  0.00    +0.000 C 
ENDROOT
BRANCH   2   3
ATOM      3  C   UNL     1      46.707   6.725  12.974  0.00  0.00    +0.000 A 
ATOM      4  C   UNL     1      45.959   7.018  11.832  0.00  0.00    +0.000 A 
ATOM      5  C   UNL     1      45.120   6.044  11.259  0.00  0.00    +0.000 A 
ATOM      6  C   UNL     1      45.018   4.745  11.775  0.00  0.00    +0.000 A 
ATOM      7  C   UNL     1      45.731   4.493  12.957  0.00  0.00    +0.000 A 
ATOM      8  C   UNL     1      46.556   5.455  13.545  0.00  0.00    +0.000 A 
BRANCH   6   9
ATOM      9  N   UNL     1      44.297   3.752  11.117  0.00  0.00    +0.000 N 
ATOM     10  C   UNL     1      43.371   2.893  11.845  0.00  0.00    +0.000 C 
BRANCH   9  11
ATOM     11  C   UNL     1      44.086   3.864   9.660  0.00  0.00    +0.000 C 
BRANCH  11  12
ATOM     12  C   UNL     1      45.207   3.296   8.803  0.00  0.00    +0.000 A 
ATOM     13  C   UNL     1      45.525   1.939   8.807  0.00  0.00    +0.000 A 
ATOM     14  C   UNL     1      46.531   1.471   7.965  0.00  0.00    +0.000 A 
ATOM     15  C   UNL     1      47.190   2.364   7.130  0.00  0.00    +0.000 A 
ATOM     16  C   UNL     1      46.811   3.693   7.170  0.00  0.00    +0.000 A 
ATOM     17  N   UNL     1      45.838   4.174   7.977  0.00  0.00    +0.000 NA
ENDBRANCH  11  12
ENDBRANCH   9  11
ENDBRANCH   6   9
ENDBRANCH   2   3
BRANCH   2  18
ATOM     18  N   UNL     1      48.069   8.669  12.519  0.00  0.00    +0.000 N 
ATOM     19  C   UNL     1      48.636   9.893  12.754  0.00  0.00    +0.000 C 
ATOM     20  O   UNL     1      48.919  10.291  13.880  0.00  0.00    +0.000 OA
ATOM     21  H   UNL     1      47.595   8.535  11.629  0.00  0.00    +0.000 HD
BRANCH  19  22
ATOM     22  C   UNL     1      48.963  10.694  11.566  0.00  0.00    +0.000 A 
ATOM     23  C   UNL     1      50.292  10.890  11.215  0.00  0.00    +0.000 A 
ATOM     24  S   UNL     1      50.498  11.835   9.810  0.00  0.00    +0.000 S 
ATOM     25  C   UNL     1      48.817  12.045   9.642  0.00  0.00    +0.000 A 
ATOM     26  N   UNL     1      48.306  12.806   8.636  0.00  0.00    +0.000 NA
ATOM     27  C   UNL     1      47.018  12.903   8.643  0.00  0.00    +0.000 A 
ATOM     28  N   UNL     1      46.196  12.295   9.557  0.00  0.00    +0.000 N 
ATOM     29  C   UNL     1      46.665  11.489  10.565  0.00  0.00    +0.000 A 
ATOM     30  O   UNL     1      45.903  10.911  11.330  0.00  0.00    +0.000 OA
ATOM     31  C   UNL     1      48.110  11.376  10.622  0.00  0.00    +0.000 A 
ATOM     32  H   UNL     1      45.193  12.391   9.496  0.00  0.00    +0.000 HD
ENDBRANCH  19  22
ENDBRANCH   2  18
TORSDOF 6
ENDMDL
MODEL 6
REMARK VINA RESULT:    -7.109      3.341      8.812
REMARK INTER + INTRA:         -10.716
REMARK INTER:                  -9.524
REMARK INTRA:                  -1.191
REMARK UNBOUND:                -1.113
REMARK  Name = 
REMARK  8 active torsions:
REMARK  status: ('A' for Active; 'I' for Inactive)
REMARK    1  A    between atoms: C_1  and  C_2
REMARK    2  A    between atoms: C_2  and  N_3
REMARK    3  A    between atoms: C_2  and  C_16
REMARK    4  A    between atoms: C_4  and  C_6
REMARK    5  A    between atoms: C_19  and  N_20
REMARK    6  A    between atoms: N_20  and  C_21
REMARK    7  A    between atoms: N_20  and  C_22
REMARK    8  A    between atoms: C_22  and  C_23
REMARK                            x       y       z     vdW  Elec       q    Type
REMARK                         _______ _______ _______ _____ _____    ______ ____
ROOT
ATOM      1  C   UNL     1      48.649   8.157  11.279  0.00  0.00    +0.000 C 
ATOM      2  C   UNL     1      47.763   7.760  12.465  0.00  0.00    +0.000 C 
ENDROOT
BRANCH   2   3
ATOM      3  C   UNL     1      48.624   7.488  13.693  0.00  0.00    +0.000 A 
ATOM      4  C   UNL     1      48.167   6.702  14.752  0.00  0.00    +0.000 A 
ATOM      5  C   UNL     1      49.021   6.390  15.828  0.00  0.00    +0.000 A 
ATOM      6  C   UNL     1      50.355   6.816  15.875  0.00  0.00    +0.000 A 
ATOM      7  C   UNL     1      50.771   7.656  14.830  0.00  0.00    +0.000 A 
ATOM      8  C   UNL     1      49.931   7.986  13.764  0.00  0.00    +0.000 A 
BRANCH   6   9
ATOM      9  N   UNL     1      51.226   6.383  16.870  0.00  0.00    +0.000 N 
ATOM     10  C   UNL     1      52.425   7.145  17.199  0.00  0.00    +0.000 C 
BRANCH   9  11
ATOM     11  C   UNL     1      50.728   5.457  17.908  0.00  0.00    +0.000 C 
BRANCH  11  12
ATOM     12  C   UNL     1      51.140   4.004  17.724  0.00  0.00    +0.000 A 
ATOM     13  C   UNL     1      52.366   3.521  18.178  0.00  0.00    +0.000 A 
ATOM     14  C   UNL     1      52.667   2.170  18.023  0.00  0.00    +0.000 A 
ATOM     15  C   UNL     1      51.736   1.329  17.428  0.00  0.00    +0.000 A 
ATOM     16  C   UNL     1      50.536   1.877  17.014  0.00  0.00    +0.000 A 
ATOM     17  N   UNL     1      50.217   3.184  17.153  0.00  0.00    +0.000 NA
ENDBRANCH  11  12
ENDBRANCH   9  11
ENDBRANCH   6   9
ENDBRANCH   2   3
BRANCH   2  18
ATOM     18  N   UNL     1      46.959   6.574  12.197  0.00  0.00    +0.000 N 
ATOM     19  C   UNL     1      45.593   6.573  12.099  0.00  0.00    +0.000 C 
ATOM     20  O   UNL     1      44.917   7.591  12.197  0.00  0.00    +0.000 OA
ATOM     21  H   UNL     1      47.415   5.690  12.407  0.00  0.00    +0.000 HD
BRANCH  19  22
ATOM     22  C   UNL     1      44.968   5.279  11.790  0.00  0.00    +0.000 A 
ATOM     23  C   UNL     1      44.246   4.613  12.772  0.00  0.00    +0.000 A 
ATOM     24  S   UNL     1      43.583   3.132  12.249  0.00  0.00    +0.000 S 
ATOM     25  C   UNL     1      44.267   3.311  10.702  0.00  0.00    +0.000 A 
ATOM     26  N   UNL     1      44.111   2.347   9.753  0.00  0.00    +0.000 NA
ATOM     27  C   UNL     1      44.706   2.599   8.635  0.00  0.00    +0.000 A 
ATOM     28  N   UNL     1      45.430   3.734   8.376  0.00  0.00    +0.000 N 
ATOM     29  C   UNL     1      45.582   4.749   9.289  0.00  0.00    +0.000 A 
ATOM     30  O   UNL     1      46.184   5.778   9.009  0.00  0.00    +0.000 OA
ATOM     31  C   UNL     1      44.962   4.499  10.576  0.00  0.00    +0.000 A 
ATOM     32  H   UNL     1      45.853   3.883   7.472  0.00  0.00    +0.000 HD
ENDBRANCH  19  22
ENDBRANCH   2  18
TORSDOF 6
ENDMDL
MODEL 7
REMARK VINA RESULT:    -7.042      3.834      5.936
REMARK INTER + INTRA:         -10.625
REMARK INTER:                  -9.338
REMARK INTRA:                  -1.288
REMARK UNBOUND:                -1.113
REMARK  Name = 
REMARK  8 active torsions:
REMARK  status: ('A' for Active; 'I' for Inactive)
REMARK    1  A    between atoms: C_1  and  C_2
REMARK    2  A    between atoms: C_2  and  N_3
REMARK    3  A    between atoms: C_2  and  C_16
REMARK    4  A    between atoms: C_4  and  C_6
REMARK    5  A    between atoms: C_19  and  N_20
REMARK    6  A    between atoms: N_20  and  C_21
REMARK    7  A    between atoms: N_20  and  C_22
REMARK    8  A    between atoms: C_22  and  C_23
REMARK                            x       y       z     vdW  Elec       q    Type
REMARK                         _______ _______ _______ _____ _____    ______ ____
ROOT
ATOM      1  C   UNL     1      48.960   6.840  14.702  0.00  0.00    +0.000 C 
ATOM      2  C   UNL     1      48.038   7.553  13.706  0.00  0.00    +0.000 C 
ENDROOT
BRANCH   2   3
ATOM      3  C   UNL     1      47.163   6.536  12.985  0.00  0.00    +0.000 A 
ATOM      4  C   UNL     1      46.935   5.260  13.504  0.00  0.00    +0.000 A 
ATOM      5  C   UNL     1      46.045   4.377  12.863  0.00  0.00    +0.000 A 
ATOM      6  C   UNL     1      45.332   4.737  11.711  0.00  0.00    +0.000 A 
ATOM      7  C   UNL     1      45.624   6.001  11.174  0.00  0.00    +0.000 A 
ATOM      8  C   UNL     1      46.516   6.881  11.792  0.00  0.00    +0.000 A 
BRANCH   6   9
ATOM      9  N   UNL     1      44.351   3.910  11.171  0.00  0.00    +0.000 N 
ATOM     10  C   UNL     1      43.295   3.355  12.009  0.00  0.00    +0.000 C 
BRANCH   9  11
ATOM     11  C   UNL     1      44.076   3.975   9.721  0.00  0.00    +0.000 C 
BRANCH  11  12
ATOM     12  C   UNL     1      45.149   3.360   8.836  0.00  0.00    +0.000 A 
ATOM     13  C   UNL     1      45.422   1.994   8.847  0.00  0.00    +0.000 A 
ATOM     14  C   UNL     1      46.384   1.483   7.979  0.00  0.00    +0.000 A 
ATOM     15  C   UNL     1      47.045   2.344   7.113  0.00  0.00    +0.000 A 
ATOM     16  C   UNL     1      46.711   3.685   7.148  0.00  0.00    +0.000 A 
ATOM     17  N   UNL     1      45.782   4.207   7.979  0.00  0.00    +0.000 NA
ENDBRANCH  11  12
ENDBRANCH   9  11
ENDBRANCH   6   9
ENDBRANCH   2   3
BRANCH   2  18
ATOM     18  N   UNL     1      48.772   8.317  12.705  0.00  0.00    +0.000 N 
ATOM     19  C   UNL     1      48.972   9.671  12.760  0.00  0.00    +0.000 C 
ATOM     20  O   UNL     1      48.572  10.367  13.688  0.00  0.00    +0.000 OA
ATOM     21  H   UNL     1      48.855   7.868  11.797  0.00  0.00    +0.000 HD
BRANCH  19  22
ATOM     22  C   UNL     1      49.768  10.252  11.670  0.00  0.00    +0.000 A 
ATOM     23  C   UNL     1      49.209  11.231  10.858  0.00  0.00    +0.000 A 
ATOM     24  S   UNL     1      50.266  11.803   9.648  0.00  0.00    +0.000 S 
ATOM     25  C   UNL     1      51.496  10.736  10.143  0.00  0.00    +0.000 A 
ATOM     26  N   UNL     1      52.685  10.686   9.483  0.00  0.00    +0.000 NA
ATOM     27  C   UNL     1      53.515   9.813   9.947  0.00  0.00    +0.000 A 
ATOM     28  N   UNL     1      53.270   8.997  11.022  0.00  0.00    +0.000 N 
ATOM     29  C   UNL     1      52.100   9.040  11.741  0.00  0.00    +0.000 A 
ATOM     30  O   UNL     1      51.932   8.341  12.732  0.00  0.00    +0.000 OA
ATOM     31  C   UNL     1      51.118   9.980  11.237  0.00  0.00    +0.000 A 
ATOM     32  H   UNL     1      53.970   8.350  11.351  0.00  0.00    +0.000 HD
ENDBRANCH  19  22
ENDBRANCH   2  18
TORSDOF 6
ENDMDL
MODEL 8
REMARK VINA RESULT:    -6.871      3.220      4.850
REMARK INTER + INTRA:         -10.394
REMARK INTER:                  -9.145
REMARK INTRA:                  -1.249
REMARK UNBOUND:                -1.113
REMARK  Name = 
REMARK  8 active torsions:
REMARK  status: ('A' for Active; 'I' for Inactive)
REMARK    1  A    between atoms: C_1  and  C_2
REMARK    2  A    between atoms: C_2  and  N_3
REMARK    3  A    between atoms: C_2  and  C_16
REMARK    4  A    between atoms: C_4  and  C_6
REMARK    5  A    between atoms: C_19  and  N_20
REMARK    6  A    between atoms: N_20  and  C_21
REMARK    7  A    between atoms: N_20  and  C_22
REMARK    8  A    between atoms: C_22  and  C_23
REMARK                            x       y       z     vdW  Elec       q    Type
REMARK                         _______ _______ _______ _____ _____    ______ ____
ROOT
ATOM      1  C   UNL     1      48.439   5.697  15.809  0.00  0.00    +0.000 C 
ATOM      2  C   UNL     1      48.093   6.567  14.596  0.00  0.00    +0.000 C 
ENDROOT
BRANCH   2   3
ATOM      3  C   UNL     1      47.219   5.785  13.624  0.00  0.00    +0.000 A 
ATOM      4  C   UNL     1      46.897   4.444  13.838  0.00  0.00    +0.000 A 
ATOM      5  C   UNL     1      46.010   3.776  12.972  0.00  0.00    +0.000 A 
ATOM      6  C   UNL     1      45.391   4.419  11.891  0.00  0.00    +0.000 A 
ATOM      7  C   UNL     1      45.777   5.748  11.661  0.00  0.00    +0.000 A 
ATOM      8  C   UNL     1      46.668   6.419  12.503  0.00  0.00    +0.000 A 
BRANCH   6   9
ATOM      9  N   UNL     1      44.408   3.789  11.132  0.00  0.00    +0.000 N 
ATOM     10  C   UNL     1      43.242   3.188  11.767  0.00  0.00    +0.000 C 
BRANCH   9  11
ATOM     11  C   UNL     1      44.276   4.134   9.702  0.00  0.00    +0.000 C 
BRANCH  11  12
ATOM     12  C   UNL     1      45.262   3.435   8.778  0.00  0.00    +0.000 A 
ATOM     13  C   UNL     1      45.527   2.070   8.878  0.00  0.00    +0.000 A 
ATOM     14  C   UNL     1      46.404   1.478   7.973  0.00  0.00    +0.000 A 
ATOM     15  C   UNL     1      46.989   2.255   6.983  0.00  0.00    +0.000 A 
ATOM     16  C   UNL     1      46.667   3.599   6.937  0.00  0.00    +0.000 A 
ATOM     17  N   UNL     1      45.819   4.200   7.801  0.00  0.00    +0.000 NA
ENDBRANCH  11  12
ENDBRANCH   9  11
ENDBRANCH   6   9
ENDBRANCH   2   3
BRANCH   2  18
ATOM     18  N   UNL     1      49.274   7.031  13.878  0.00  0.00    +0.000 N 
ATOM     19  C   UNL     1      49.491   8.330  13.504  0.00  0.00    +0.000 C 
ATOM     20  O   UNL     1      48.712   9.239  13.770  0.00  0.00    +0.000 OA
ATOM     21  H   UNL     1      49.784   6.307  13.377  0.00  0.00    +0.000 HD
BRANCH  19  22
ATOM     22  C   UNL     1      50.761   8.602  12.816  0.00  0.00    +0.000 A 
ATOM     23  C   UNL     1      50.749   9.026  11.494  0.00  0.00    +0.000 A 
ATOM     24  S   UNL     1      52.303   9.303  10.849  0.00  0.00    +0.000 S 
ATOM     25  C   UNL     1      53.049   8.831  12.304  0.00  0.00    +0.000 A 
ATOM     26  N   UNL     1      54.405   8.799  12.415  0.00  0.00    +0.000 NA
ATOM     27  C   UNL     1      54.835   8.396  13.564  0.00  0.00    +0.000 A 
ATOM     28  N   UNL     1      54.032   8.035  14.615  0.00  0.00    +0.000 N 
ATOM     29  C   UNL     1      52.661   8.087  14.560  0.00  0.00    +0.000 A 
ATOM     30  O   UNL     1      51.969   7.815  15.534  0.00  0.00    +0.000 OA
ATOM     31  C   UNL     1      52.125   8.500  13.277  0.00  0.00    +0.000 A 
ATOM     32  H   UNL     1      54.430   7.749  15.497  0.00  0.00    +0.000 HD
ENDBRANCH  19  22
ENDBRANCH   2  18
TORSDOF 6
ENDMDL
MODEL 9
REMARK VINA RESULT:    -6.827      2.693      4.744
REMARK INTER + INTRA:         -10.335
REMARK INTER:                  -8.913
REMARK INTRA:                  -1.422
REMARK UNBOUND:                -1.113
REMARK  Name = 
REMARK  8 active torsions:
REMARK  status: ('A' for Active; 'I' for Inactive)
REMARK    1  A    between atoms: C_1  and  C_2
REMARK    2  A    between atoms: C_2  and  N_3
REMARK    3  A    between atoms: C_2  and  C_16
REMARK    4  A    between atoms: C_4  and  C_6
REMARK    5  A    between atoms: C_19  and  N_20
REMARK    6  A    between atoms: N_20  and  C_21
REMARK    7  A    between atoms: N_20  and  C_22
REMARK    8  A    between atoms: C_22  and  C_23
REMARK                            x       y       z     vdW  Elec       q    Type
REMARK                         _______ _______ _______ _____ _____    ______ ____
ROOT
ATOM      1  C   UNL     1      48.079   4.561  16.332  0.00  0.00    +0.000 C 
ATOM      2  C   UNL     1      47.728   5.678  15.343  0.00  0.00    +0.000 C 
ENDROOT
BRANCH   2   3
ATOM      3  C   UNL     1      46.970   5.104  14.152  0.00  0.00    +0.000 A 
ATOM      4  C   UNL     1      46.894   3.729  13.922  0.00  0.00    +0.000 A 
ATOM      5  C   UNL     1      46.107   3.225  12.869  0.00  0.00    +0.000 A 
ATOM      6  C   UNL     1      45.349   4.057  12.034  0.00  0.00    +0.000 A 
ATOM      7  C   UNL     1      45.491   5.438  12.247  0.00  0.00    +0.000 A 
ATOM      8  C   UNL     1      46.280   5.952  13.278  0.00  0.00    +0.000 A 
BRANCH   6   9
ATOM      9  N   UNL     1      44.466   3.539  11.091  0.00  0.00    +0.000 N 
ATOM     10  C   UNL     1      43.265   2.823  11.505  0.00  0.00    +0.000 C 
BRANCH   9  11
ATOM     11  C   UNL     1      44.459   4.104   9.727  0.00  0.00    +0.000 C 
BRANCH  11  12
ATOM     12  C   UNL     1      45.414   3.435   8.750  0.00  0.00    +0.000 A 
ATOM     13  C   UNL     1      45.654   2.062   8.774  0.00  0.00    +0.000 A 
ATOM     14  C   UNL     1      46.502   1.501   7.824  0.00  0.00    +0.000 A 
ATOM     15  C   UNL     1      47.084   2.317   6.863  0.00  0.00    +0.000 A 
ATOM     16  C   UNL     1      46.788   3.667   6.892  0.00  0.00    +0.000 A 
ATOM     17  N   UNL     1      45.968   4.239   7.802  0.00  0.00    +0.000 NA
ENDBRANCH  11  12
ENDBRANCH   9  11
ENDBRANCH   6   9
ENDBRANCH   2   3
BRANCH   2  18
ATOM     18  N   UNL     1      48.904   6.379  14.842  0.00  0.00    +0.000 N 
ATOM     19  C   UNL     1      49.165   7.705  15.060  0.00  0.00    +0.000 C 
ATOM     20  O   UNL     1      48.435   8.426  15.734  0.00  0.00    +0.000 OA
ATOM     21  H   UNL     1      49.365   5.934  14.052  0.00  0.00    +0.000 HD
BRANCH  19  22
ATOM     22  C   UNL     1      50.422   8.219  14.498  0.00  0.00    +0.000 A 
ATOM     23  C   UNL     1      51.379   8.765  15.343  0.00  0.00    +0.000 A 
ATOM     24  S   UNL     1      52.779   9.307  14.534  0.00  0.00    +0.000 S 
ATOM     25  C   UNL     1      52.140   8.863  13.021  0.00  0.00    +0.000 A 
ATOM     26  N   UNL     1      52.835   9.096  11.874  0.00  0.00    +0.000 NA
ATOM     27  C   UNL     1      52.221   8.735  10.797  0.00  0.00    +0.000 A 
ATOM     28  N   UNL     1      50.982   8.148  10.765  0.00  0.00    +0.000 N 
ATOM     29  C   UNL     1      50.262   7.859  11.899  0.00  0.00    +0.000 A 
ATOM     30  O   UNL     1      49.184   7.280  11.843  0.00  0.00    +0.000 OA
ATOM     31  C   UNL     1      50.893   8.279  13.135  0.00  0.00    +0.000 A 
ATOM     32  H   UNL     1      50.564   7.867   9.890  0.00  0.00    +0.000 HD
ENDBRANCH  19  22
ENDBRANCH   2  18
TORSDOF 6
ENDMDL
