MODEL 1
REMARK VINA RESULT:    -8.538      0.000      0.000
REMARK INTER + INTRA:         -13.236
REMARK INTER:                 -12.531
REMARK INTRA:                  -0.706
REMARK UNBOUND:                -0.706
REMARK  Name = 
REMARK  9 active torsions:
REMARK  status: ('A' for Active; 'I' for Inactive)
REMARK    1  A    between atoms: C_1  and  C_2
REMARK    2  A    between atoms: C_2  and  O_3
REMARK    3  A    between atoms: O_3  and  C_4
REMARK    4  A    between atoms: C_4  and  C_5
REMARK    5  A    between atoms: C_4  and  C_12
REMARK    6  A    between atoms: C_5  and  C_6
REMARK    7  A    between atoms: C_15  and  C_16
REMARK    8  A    between atoms: C_16  and  N_17
REMARK    9  A    between atoms: C_18  and  C_20
REMARK                            x       y       z     vdW  Elec       q    Type
REMARK                         _______ _______ _______ _____ _____    ______ ____
ROOT
ATOM      1  C   UNL     1      45.321   4.437  11.346  0.00  0.00    +0.000 A 
ATOM      2  C   UNL     1      45.700   5.682  10.815  0.00  0.00    +0.000 A 
ATOM      3  C   UNL     1      46.625   6.504  11.471  0.00  0.00    +0.000 A 
ATOM      4  C   UNL     1      47.195   6.108  12.684  0.00  0.00    +0.000 A 
ATOM      5  C   UNL     1      46.768   4.910  13.261  0.00  0.00    +0.000 A 
ATOM      6  C   UNL     1      45.841   4.091  12.605  0.00  0.00    +0.000 A 
ENDROOT
BRANCH   1   7
ATOM      7  C   UNL     1      44.362   3.523  10.567  0.00  0.00    +0.000 C 
BRANCH   7   8
ATOM      8  O   UNL     1      43.025   3.725  11.070  0.00  0.00    +0.000 OA
BRANCH   8  10
ATOM      9  C   UNL     1      42.199   5.844  11.788  0.00  0.00    +0.000 C 
ATOM     10  C   UNL     1      42.909   4.570  12.209  0.00  0.00    +0.000 C 
ENDBRANCH   8  10
ENDBRANCH   7   8
BRANCH   7  11
ATOM     11  C   UNL     1      44.446   3.669   9.018  0.00  0.00    +0.000 C 
BRANCH  11  12
ATOM     12  C   UNL     1      45.555   2.923   8.297  0.00  0.00    +0.000 A 
ATOM     13  C   UNL     1      46.404   3.635   7.435  0.00  0.00    +0.000 A 
ATOM     14  C   UNL     1      47.399   2.976   6.709  0.00  0.00    +0.000 A 
ATOM     15  C   UNL     1      47.572   1.602   6.848  0.00  0.00    +0.000 A 
ATOM     16  C   UNL     1      46.769   0.891   7.732  0.00  0.00    +0.000 A 
ATOM     17  C   UNL     1      45.778   1.549   8.460  0.00  0.00    +0.000 A 
ENDBRANCH  11  12
ENDBRANCH   7  11
ENDBRANCH   1   7
BRANCH   4  18
ATOM     18  C   UNL     1      48.233   6.959  13.366  0.00  0.00    +0.000 C 
BRANCH  18  19
ATOM     19  N   UNL     1      48.052   6.963  14.795  0.00  0.00    +0.000 N 
ATOM     20  C   UNL     1      49.123   6.853  15.642  0.00  0.00    +0.000 C 
ATOM     21  O   UNL     1      50.278   6.797  15.228  0.00  0.00    +0.000 OA
ATOM     22  H   UNL     1      47.114   6.791  15.141  0.00  0.00    +0.000 HD
BRANCH  20  23
ATOM     23  C   UNL     1      48.828   6.866  17.080  0.00  0.00    +0.000 A 
ATOM     24  C   UNL     1      48.482   8.060  17.699  0.00  0.00    +0.000 A 
ATOM     25  S   UNL     1      48.125   7.893  19.358  0.00  0.00    +0.000 S 
ATOM     26  C   UNL     1      48.473   6.228  19.320  0.00  0.00    +0.000 A 
ATOM     27  N   UNL     1      48.392   5.470  20.448  0.00  0.00    +0.000 NA
ATOM     28  C   UNL     1      48.712   4.230  20.281  0.00  0.00    +0.000 A 
ATOM     29  N   UNL     1      49.102   3.678  19.091  0.00  0.00    +0.000 N 
ATOM     30  C   UNL     1      49.171   4.396  17.921  0.00  0.00    +0.000 A 
ATOM     31  O   UNL     1      49.484   3.859  16.861  0.00  0.00    +0.000 OA
ATOM     32  C   UNL     1      48.836   5.800  18.055  0.00  0.00    +0.000 A 
ATOM     33  H   UNL     1      49.336   2.698  19.026  0.00  0.00    +0.000 HD
ENDBRANCH  20  23
ENDBRANCH  18  19
ENDBRANCH   4  18
TORSDOF 8
ENDMDL
MODEL 2
REMARK VINA RESULT:    -8.402      1.339      2.356
REMARK INTER + INTRA:         -13.038
REMARK INTER:                 -11.974
REMARK INTRA:                  -1.064
REMARK UNBOUND:                -0.706
REMARK  Name = 
REMARK  9 active torsions:
REMARK  status: ('A' for Active; 'I' for Inactive)
REMARK    1  A    between atoms: C_1  and  C_2
REMARK    2  A    between atoms: C_2  and  O_3
REMARK    3  A    between atoms: O_3  and  C_4
REMARK    4  A    between atoms: C_4  and  C_5
REMARK    5  A    between atoms: C_4  and  C_12
REMARK    6  A    between atoms: C_5  and  C_6
REMARK    7  A    between atoms: C_15  and  C_16
REMARK    8  A    between atoms: C_16  and  N_17
REMARK    9  A    between atoms: C_18  and  C_20
REMARK                            x       y       z     vdW  Elec       q    Type
REMARK                         _______ _______ _______ _____ _____    ______ ____
ROOT
ATOM      1  C   UNL     1      45.444   4.486  11.393  0.00  0.00    +0.000 A 
ATOM      2  C   UNL     1      45.972   4.072  12.629  0.00  0.00    +0.000 A 
ATOM      3  C   UNL     1      46.802   4.909  13.385  0.00  0.00    +0.000 A 
ATOM      4  C   UNL     1      47.135   6.186  12.924  0.00  0.00    +0.000 A 
ATOM      5  C   UNL     1      46.682   6.579  11.662  0.00  0.00    +0.000 A 
ATOM      6  C   UNL     1      45.855   5.739  10.907  0.00  0.00    +0.000 A 
ENDROOT
BRANCH   1   7
ATOM      7  C   UNL     1      44.476   3.576  10.622  0.00  0.00    +0.000 C 
BRANCH   7   8
ATOM      8  O   UNL     1      43.159   3.718  11.193  0.00  0.00    +0.000 OA
BRANCH   8  10
ATOM      9  C   UNL     1      42.723   5.265  12.954  0.00  0.00    +0.000 C 
ATOM     10  C   UNL     1      42.733   5.050  11.452  0.00  0.00    +0.000 C 
ENDBRANCH   8  10
ENDBRANCH   7   8
BRANCH   7  11
ATOM     11  C   UNL     1      44.483   3.785   9.077  0.00  0.00    +0.000 C 
BRANCH  11  12
ATOM     12  C   UNL     1      45.525   3.034   8.267  0.00  0.00    +0.000 A 
ATOM     13  C   UNL     1      45.708   1.662   8.502  0.00  0.00    +0.000 A 
ATOM     14  C   UNL     1      46.695   0.947   7.820  0.00  0.00    +0.000 A 
ATOM     15  C   UNL     1      47.500   1.588   6.881  0.00  0.00    +0.000 A 
ATOM     16  C   UNL     1      47.300   2.935   6.605  0.00  0.00    +0.000 A 
ATOM     17  C   UNL     1      46.312   3.648   7.284  0.00  0.00    +0.000 A 
ENDBRANCH  11  12
ENDBRANCH   7  11
ENDBRANCH   1   7
BRANCH   4  18
ATOM     18  C   UNL     1      47.980   7.114  13.757  0.00  0.00    +0.000 C 
BRANCH  18  19
ATOM     19  N   UNL     1      47.873   6.804  15.160  0.00  0.00    +0.000 N 
ATOM     20  C   UNL     1      48.986   6.528  15.908  0.00  0.00    +0.000 C 
ATOM     21  O   UNL     1      50.119   6.579  15.435  0.00  0.00    +0.000 OA
ATOM     22  H   UNL     1      46.954   6.548  15.506  0.00  0.00    +0.000 HD
BRANCH  20  23
ATOM     23  C   UNL     1      48.766   6.224  17.327  0.00  0.00    +0.000 A 
ATOM     24  C   UNL     1      49.023   4.945  17.803  0.00  0.00    +0.000 A 
ATOM     25  S   UNL     1      48.762   4.771  19.478  0.00  0.00    +0.000 S 
ATOM     26  C   UNL     1      48.245   6.386  19.619  0.00  0.00    +0.000 A 
ATOM     27  N   UNL     1      47.837   6.888  20.816  0.00  0.00    +0.000 NA
ATOM     28  C   UNL     1      47.442   8.118  20.772  0.00  0.00    +0.000 A 
ATOM     29  N   UNL     1      47.422   8.890  19.643  0.00  0.00    +0.000 N 
ATOM     30  C   UNL     1      47.851   8.436  18.418  0.00  0.00    +0.000 A 
ATOM     31  O   UNL     1      47.858   9.171  17.433  0.00  0.00    +0.000 OA
ATOM     32  C   UNL     1      48.290   7.055  18.408  0.00  0.00    +0.000 A 
ATOM     33  H   UNL     1      47.105   9.849  19.676  0.00  0.00    +0.000 HD
ENDBRANCH  20  23
ENDBRANCH  18  19
ENDBRANCH   4  18
TORSDOF 8
ENDMDL
MODEL 3
REMARK VINA RESULT:    -7.458      1.771      2.253
REMARK INTER + INTRA:         -11.652
REMARK INTER:                 -10.372
REMARK INTRA:                  -1.280
REMARK UNBOUND:                -0.706
REMARK  Name = 
REMARK  9 active torsions:
REMARK  status: ('A' for Active; 'I' for Inactive)
REMARK    1  A    between atoms: C_1  and  C_2
REMARK    2  A    between atoms: C_2  and  O_3
REMARK    3  A    between atoms: O_3  and  C_4
REMARK    4  A    between atoms: C_4  and  C_5
REMARK    5  A    between atoms: C_4  and  C_12
REMARK    6  A    between atoms: C_5  and  C_6
REMARK    7  A    between atoms: C_15  and  C_16
REMARK    8  A    between atoms: C_16  and  N_17
REMARK    9  A    between atoms: C_18  and  C_20
REMARK                            x       y       z     vdW  Elec       q    Type
REMARK                         _______ _______ _______ _____ _____    ______ ____
ROOT
ATOM      1  C   UNL     1      45.884   5.334  11.342  0.00  0.00    +0.000 A 
ATOM      2  C   UNL     1      46.239   4.816  12.601  0.00  0.00    +0.000 A 
ATOM      3  C   UNL     1      47.095   5.513  13.462  0.00  0.00    +0.000 A 
ATOM      4  C   UNL     1      47.628   6.750  13.089  0.00  0.00    +0.000 A 
ATOM      5  C   UNL     1      47.347   7.239  11.811  0.00  0.00    +0.000 A 
ATOM      6  C   UNL     1      46.493   6.538  10.949  0.00  0.00    +0.000 A 
ENDROOT
BRANCH   1   7
ATOM      7  C   UNL     1      44.884   4.583  10.451  0.00  0.00    +0.000 C 
BRANCH   7   8
ATOM      8  O   UNL     1      43.554   5.049  10.759  0.00  0.00    +0.000 OA
BRANCH   8  10
ATOM      9  C   UNL     1      42.834   5.086  13.032  0.00  0.00    +0.000 C 
ATOM     10  C   UNL     1      42.842   4.298  11.735  0.00  0.00    +0.000 C 
ENDBRANCH   8  10
ENDBRANCH   7   8
BRANCH   7  11
ATOM     11  C   UNL     1      45.202   4.648   8.926  0.00  0.00    +0.000 C 
BRANCH  11  12
ATOM     12  C   UNL     1      45.898   3.454   8.298  0.00  0.00    +0.000 A 
ATOM     13  C   UNL     1      46.836   3.673   7.277  0.00  0.00    +0.000 A 
ATOM     14  C   UNL     1      47.455   2.600   6.634  0.00  0.00    +0.000 A 
ATOM     15  C   UNL     1      47.160   1.293   7.013  0.00  0.00    +0.000 A 
ATOM     16  C   UNL     1      46.268   1.060   8.054  0.00  0.00    +0.000 A 
ATOM     17  C   UNL     1      45.652   2.133   8.698  0.00  0.00    +0.000 A 
ENDBRANCH  11  12
ENDBRANCH   7  11
ENDBRANCH   1   7
BRANCH   4  18
ATOM     18  C   UNL     1      48.503   7.533  14.032  0.00  0.00    +0.000 C 
BRANCH  18  19
ATOM     19  N   UNL     1      48.950   6.718  15.132  0.00  0.00    +0.000 N 
ATOM     20  C   UNL     1      48.900   7.182  16.420  0.00  0.00    +0.000 C 
ATOM     21  O   UNL     1      48.432   8.283  16.698  0.00  0.00    +0.000 OA
ATOM     22  H   UNL     1      49.528   5.915  14.906  0.00  0.00    +0.000 HD
BRANCH  20  23
ATOM     23  C   UNL     1      49.381   6.272  17.466  0.00  0.00    +0.000 A 
ATOM     24  C   UNL     1      48.505   5.832  18.450  0.00  0.00    +0.000 A 
ATOM     25  S   UNL     1      49.209   4.745  19.558  0.00  0.00    +0.000 S 
ATOM     26  C   UNL     1      50.725   4.866  18.795  0.00  0.00    +0.000 A 
ATOM     27  N   UNL     1      51.805   4.190  19.275  0.00  0.00    +0.000 NA
ATOM     28  C   UNL     1      52.898   4.397  18.617  0.00  0.00    +0.000 A 
ATOM     29  N   UNL     1      53.008   5.212  17.525  0.00  0.00    +0.000 N 
ATOM     30  C   UNL     1      51.940   5.891  16.987  0.00  0.00    +0.000 A 
ATOM     31  O   UNL     1      52.067   6.582  15.979  0.00  0.00    +0.000 OA
ATOM     32  C   UNL     1      50.690   5.707  17.697  0.00  0.00    +0.000 A 
ATOM     33  H   UNL     1      53.893   5.328  17.051  0.00  0.00    +0.000 HD
ENDBRANCH  20  23
ENDBRANCH  18  19
ENDBRANCH   4  18
TORSDOF 8
ENDMDL
MODEL 4
REMARK VINA RESULT:    -7.341      1.357      2.036
REMARK INTER + INTRA:         -11.480
REMARK INTER:                 -10.045
REMARK INTRA:                  -1.435
REMARK UNBOUND:                -0.706
REMARK  Name = 
REMARK  9 active torsions:
REMARK  status: ('A' for Active; 'I' for Inactive)
REMARK    1  A    between atoms: C_1  and  C_2
REMARK    2  A    between atoms: C_2  and  O_3
REMARK    3  A    between atoms: O_3  and  C_4
REMARK    4  A    between atoms: C_4  and  C_5
REMARK    5  A    between atoms: C_4  and  C_12
REMARK    6  A    between atoms: C_5  and  C_6
REMARK    7  A    between atoms: C_15  and  C_16
REMARK    8  A    between atoms: C_16  and  N_17
REMARK    9  A    between atoms: C_18  and  C_20
REMARK                            x       y       z     vdW  Elec       q    Type
REMARK                         _______ _______ _______ _____ _____    ______ ____
ROOT
ATOM      1  C   UNL     1      46.188   5.730  11.942  0.00  0.00    +0.000 A 
ATOM      2  C   UNL     1      46.755   5.196  13.113  0.00  0.00    +0.000 A 
ATOM      3  C   UNL     1      47.894   5.764  13.697  0.00  0.00    +0.000 A 
ATOM      4  C   UNL     1      48.505   6.883  13.124  0.00  0.00    +0.000 A 
ATOM      5  C   UNL     1      47.999   7.375  11.918  0.00  0.00    +0.000 A 
ATOM      6  C   UNL     1      46.861   6.803  11.334  0.00  0.00    +0.000 A 
ENDROOT
BRANCH   1   7
ATOM      7  C   UNL     1      44.895   5.131  11.367  0.00  0.00    +0.000 C 
BRANCH   7   8
ATOM      8  O   UNL     1      43.771   5.727  12.048  0.00  0.00    +0.000 OA
BRANCH   8  10
ATOM      9  C   UNL     1      43.492   3.435  12.642  0.00  0.00    +0.000 C 
ATOM     10  C   UNL     1      42.876   4.822  12.683  0.00  0.00    +0.000 C 
ENDBRANCH   8  10
ENDBRANCH   7   8
BRANCH   7  11
ATOM     11  C   UNL     1      44.773   5.226   9.816  0.00  0.00    +0.000 C 
BRANCH  11  12
ATOM     12  C   UNL     1      45.357   4.093   8.991  0.00  0.00    +0.000 A 
ATOM     13  C   UNL     1      45.076   2.769   9.361  0.00  0.00    +0.000 A 
ATOM     14  C   UNL     1      45.641   1.698   8.664  0.00  0.00    +0.000 A 
ATOM     15  C   UNL     1      46.478   1.934   7.577  0.00  0.00    +0.000 A 
ATOM     16  C   UNL     1      46.729   3.240   7.170  0.00  0.00    +0.000 A 
ATOM     17  C   UNL     1      46.162   4.309   7.865  0.00  0.00    +0.000 A 
ENDBRANCH  11  12
ENDBRANCH   7  11
ENDBRANCH   1   7
BRANCH   4  18
ATOM     18  C   UNL     1      49.695   7.535  13.776  0.00  0.00    +0.000 C 
BRANCH  18  19
ATOM     19  N   UNL     1      49.863   7.082  15.134  0.00  0.00    +0.000 N 
ATOM     20  C   UNL     1      49.363   7.804  16.185  0.00  0.00    +0.000 C 
ATOM     21  O   UNL     1      48.714   8.833  16.018  0.00  0.00    +0.000 OA
ATOM     22  H   UNL     1      50.567   6.370  15.298  0.00  0.00    +0.000 HD
BRANCH  20  23
ATOM     23  C   UNL     1      49.591   7.255  17.527  0.00  0.00    +0.000 A 
ATOM     24  C   UNL     1      50.429   7.923  18.409  0.00  0.00    +0.000 A 
ATOM     25  S   UNL     1      50.547   7.180  19.939  0.00  0.00    +0.000 S 
ATOM     26  C   UNL     1      49.524   5.908  19.459  0.00  0.00    +0.000 A 
ATOM     27  N   UNL     1      49.229   4.888  20.311  0.00  0.00    +0.000 NA
ATOM     28  C   UNL     1      48.466   3.976  19.806  0.00  0.00    +0.000 A 
ATOM     29  N   UNL     1      47.969   3.993  18.532  0.00  0.00    +0.000 N 
ATOM     30  C   UNL     1      48.215   5.015  17.646  0.00  0.00    +0.000 A 
ATOM     31  O   UNL     1      47.717   5.018  16.522  0.00  0.00    +0.000 OA
ATOM     32  C   UNL     1      49.081   6.059  18.157  0.00  0.00    +0.000 A 
ATOM     33  H   UNL     1      47.371   3.249  18.198  0.00  0.00    +0.000 HD
ENDBRANCH  20  23
ENDBRANCH  18  19
ENDBRANCH   4  18
TORSDOF 8
ENDMDL
MODEL 5
REMARK VINA RESULT:    -7.308      2.229      2.629
REMARK INTER + INTRA:         -11.431
REMARK INTER:                  -9.850
REMARK INTRA:                  -1.581
REMARK UNBOUND:                -0.706
REMARK  Name = 
REMARK  9 active torsions:
REMARK  status: ('A' for Active; 'I' for Inactive)
REMARK    1  A    between atoms: C_1  and  C_2
REMARK    2  A    between atoms: C_2  and  O_3
REMARK    3  A    between atoms: O_3  and  C_4
REMARK    4  A    between atoms: C_4  and  C_5
REMARK    5  A    between atoms: C_4  and  C_12
REMARK    6  A    between atoms: C_5  and  C_6
REMARK    7  A    between atoms: C_15  and  C_16
REMARK    8  A    between atoms: C_16  and  N_17
REMARK    9  A    between atoms: C_18  and  C_20
REMARK                            x       y       z     vdW  Elec       q    Type
REMARK                         _______ _______ _______ _____ _____    ______ ____
ROOT
ATOM      1  C   UNL     1      46.003   5.770  11.827  0.00  0.00    +0.000 A 
ATOM      2  C   UNL     1      46.702   6.619  10.951  0.00  0.00    +0.000 A 
ATOM      3  C   UNL     1      47.774   7.403  11.396  0.00  0.00    +0.000 A 
ATOM      4  C   UNL     1      48.177   7.365  12.733  0.00  0.00    +0.000 A 
ATOM      5  C   UNL     1      47.442   6.586  13.629  0.00  0.00    +0.000 A 
ATOM      6  C   UNL     1      46.368   5.805  13.183  0.00  0.00    +0.000 A 
ENDROOT
BRANCH   1   7
ATOM      7  C   UNL     1      44.880   4.866  11.295  0.00  0.00    +0.000 C 
BRANCH   7   8
ATOM      8  O   UNL     1      43.663   5.182  12.003  0.00  0.00    +0.000 OA
BRANCH   8  10
ATOM      9  C   UNL     1      43.566   2.837  12.421  0.00  0.00    +0.000 C 
ATOM     10  C   UNL     1      43.226   4.217  12.952  0.00  0.00    +0.000 C 
ENDBRANCH   8  10
ENDBRANCH   7   8
BRANCH   7  11
ATOM     11  C   UNL     1      44.699   4.902   9.747  0.00  0.00    +0.000 C 
BRANCH  11  12
ATOM     12  C   UNL     1      45.431   3.856   8.926  0.00  0.00    +0.000 A 
ATOM     13  C   UNL     1      46.232   4.274   7.852  0.00  0.00    +0.000 A 
ATOM     14  C   UNL     1      46.875   3.341   7.036  0.00  0.00    +0.000 A 
ATOM     15  C   UNL     1      46.742   1.978   7.292  0.00  0.00    +0.000 A 
ATOM     16  C   UNL     1      45.988   1.551   8.379  0.00  0.00    +0.000 A 
ATOM     17  C   UNL     1      45.349   2.483   9.196  0.00  0.00    +0.000 A 
ENDBRANCH  11  12
ENDBRANCH   7  11
ENDBRANCH   1   7
BRANCH   4  18
ATOM     18  C   UNL     1      49.365   8.160  13.206  0.00  0.00    +0.000 C 
BRANCH  18  19
ATOM     19  N   UNL     1      50.232   7.365  14.039  0.00  0.00    +0.000 N 
ATOM     20  C   UNL     1      50.897   7.922  15.099  0.00  0.00    +0.000 C 
ATOM     21  O   UNL     1      50.749   9.099  15.416  0.00  0.00    +0.000 OA
ATOM     22  H   UNL     1      50.529   6.468  13.669  0.00  0.00    +0.000 HD
BRANCH  20  23
ATOM     23  C   UNL     1      51.755   7.024  15.881  0.00  0.00    +0.000 A 
ATOM     24  C   UNL     1      53.136   7.153  15.803  0.00  0.00    +0.000 A 
ATOM     25  S   UNL     1      53.984   6.069  16.807  0.00  0.00    +0.000 S 
ATOM     26  C   UNL     1      52.537   5.350  17.342  0.00  0.00    +0.000 A 
ATOM     27  N   UNL     1      52.556   4.307  18.217  0.00  0.00    +0.000 NA
ATOM     28  C   UNL     1      51.389   3.840  18.515  0.00  0.00    +0.000 A 
ATOM     29  N   UNL     1      50.207   4.321  18.021  0.00  0.00    +0.000 N 
ATOM     30  C   UNL     1      50.136   5.390  17.158  0.00  0.00    +0.000 A 
ATOM     31  O   UNL     1      49.055   5.823  16.768  0.00  0.00    +0.000 OA
ATOM     32  C   UNL     1      51.421   5.943  16.779  0.00  0.00    +0.000 A 
ATOM     33  H   UNL     1      49.325   3.914  18.297  0.00  0.00    +0.000 HD
ENDBRANCH  20  23
ENDBRANCH  18  19
ENDBRANCH   4  18
TORSDOF 8
ENDMDL
MODEL 6
REMARK VINA RESULT:    -7.190      3.579      8.815
REMARK INTER + INTRA:         -11.258
REMARK INTER:                  -9.250
REMARK INTRA:                  -2.008
REMARK UNBOUND:                -0.706
REMARK  Name = 
REMARK  9 active torsions:
REMARK  status: ('A' for Active; 'I' for Inactive)
REMARK    1  A    between atoms: C_1  and  C_2
REMARK    2  A    between atoms: C_2  and  O_3
REMARK    3  A    between atoms: O_3  and  C_4
REMARK    4  A    between atoms: C_4  and  C_5
REMARK    5  A    between atoms: C_4  and  C_12
REMARK    6  A    between atoms: C_5  and  C_6
REMARK    7  A    between atoms: C_15  and  C_16
REMARK    8  A    between atoms: C_16  and  N_17
REMARK    9  A    between atoms: C_18  and  C_20
REMARK                            x       y       z     vdW  Elec       q    Type
REMARK                         _______ _______ _______ _____ _____    ______ ____
ROOT
ATOM      1  C   UNL     1      49.424   7.885  15.902  0.00  0.00    +0.000 A 
ATOM      2  C   UNL     1      48.235   8.581  15.623  0.00  0.00    +0.000 A 
ATOM      3  C   UNL     1      47.679   8.591  14.338  0.00  0.00    +0.000 A 
ATOM      4  C   UNL     1      48.299   7.906  13.289  0.00  0.00    +0.000 A 
ATOM      5  C   UNL     1      49.522   7.277  13.534  0.00  0.00    +0.000 A 
ATOM      6  C   UNL     1      50.078   7.272  14.820  0.00  0.00    +0.000 A 
ENDROOT
BRANCH   1   7
ATOM      7  C   UNL     1      49.970   7.830  17.337  0.00  0.00    +0.000 C 
BRANCH   7   8
ATOM      8  O   UNL     1      49.985   9.169  17.874  0.00  0.00    +0.000 OA
BRANCH   8  10
ATOM      9  C   UNL     1      48.521  10.743  18.907  0.00  0.00    +0.000 C 
ATOM     10  C   UNL     1      49.188   9.385  19.032  0.00  0.00    +0.000 C 
ENDBRANCH   8  10
ENDBRANCH   7   8
BRANCH   7  11
ATOM     11  C   UNL     1      49.236   6.820  18.270  0.00  0.00    +0.000 C 
BRANCH  11  12
ATOM     12  C   UNL     1      49.057   5.398  17.770  0.00  0.00    +0.000 A 
ATOM     13  C   UNL     1      47.817   5.017  17.234  0.00  0.00    +0.000 A 
ATOM     14  C   UNL     1      47.593   3.703  16.816  0.00  0.00    +0.000 A 
ATOM     15  C   UNL     1      48.609   2.757  16.911  0.00  0.00    +0.000 A 
ATOM     16  C   UNL     1      49.857   3.130  17.398  0.00  0.00    +0.000 A 
ATOM     17  C   UNL     1      50.081   4.443  17.811  0.00  0.00    +0.000 A 
ENDBRANCH  11  12
ENDBRANCH   7  11
ENDBRANCH   1   7
BRANCH   4  18
ATOM     18  C   UNL     1      47.678   7.863  11.918  0.00  0.00    +0.000 C 
BRANCH  18  19
ATOM     19  N   UNL     1      46.967   6.629  11.702  0.00  0.00    +0.000 N 
ATOM     20  C   UNL     1      45.607   6.562  11.850  0.00  0.00    +0.000 C 
ATOM     21  O   UNL     1      44.932   7.552  12.121  0.00  0.00    +0.000 OA
ATOM     22  H   UNL     1      47.518   5.776  11.694  0.00  0.00    +0.000 HD
BRANCH  20  23
ATOM     23  C   UNL     1      44.982   5.256  11.608  0.00  0.00    +0.000 A 
ATOM     24  C   UNL     1      44.278   4.633  12.629  0.00  0.00    +0.000 A 
ATOM     25  S   UNL     1      43.575   3.149  12.170  0.00  0.00    +0.000 S 
ATOM     26  C   UNL     1      44.234   3.260  10.605  0.00  0.00    +0.000 A 
ATOM     27  N   UNL     1      44.033   2.273   9.690  0.00  0.00    +0.000 NA
ATOM     28  C   UNL     1      44.614   2.473   8.554  0.00  0.00    +0.000 A 
ATOM     29  N   UNL     1      45.373   3.570   8.249  0.00  0.00    +0.000 N 
ATOM     30  C   UNL     1      45.580   4.605   9.129  0.00  0.00    +0.000 A 
ATOM     31  O   UNL     1      46.232   5.595   8.807  0.00  0.00    +0.000 OA
ATOM     32  C   UNL     1      44.962   4.424  10.428  0.00  0.00    +0.000 A 
ATOM     33  H   UNL     1      45.798   3.670   7.338  0.00  0.00    +0.000 HD
ENDBRANCH  20  23
ENDBRANCH  18  19
ENDBRANCH   4  18
TORSDOF 8
ENDMDL
MODEL 7
REMARK VINA RESULT:    -7.144      3.772      8.776
REMARK INTER + INTRA:         -11.191
REMARK INTER:                  -9.728
REMARK INTRA:                  -1.463
REMARK UNBOUND:                -0.706
REMARK  Name = 
REMARK  9 active torsions:
REMARK  status: ('A' for Active; 'I' for Inactive)
REMARK    1  A    between atoms: C_1  and  C_2
REMARK    2  A    between atoms: C_2  and  O_3
REMARK    3  A    between atoms: O_3  and  C_4
REMARK    4  A    between atoms: C_4  and  C_5
REMARK    5  A    between atoms: C_4  and  C_12
REMARK    6  A    between atoms: C_5  and  C_6
REMARK    7  A    between atoms: C_15  and  C_16
REMARK    8  A    between atoms: C_16  and  N_17
REMARK    9  A    between atoms: C_18  and  C_20
REMARK                            x       y       z     vdW  Elec       q    Type
REMARK                         _______ _______ _______ _____ _____    ______ ____
ROOT
ATOM      1  C   UNL     1      49.808   6.110  16.566  0.00  0.00    +0.000 A 
ATOM      2  C   UNL     1      48.517   5.825  16.085  0.00  0.00    +0.000 A 
ATOM      3  C   UNL     1      48.074   6.317  14.851  0.00  0.00    +0.000 A 
ATOM      4  C   UNL     1      48.906   7.114  14.061  0.00  0.00    +0.000 A 
ATOM      5  C   UNL     1      50.161   7.469  14.563  0.00  0.00    +0.000 A 
ATOM      6  C   UNL     1      50.601   6.979  15.799  0.00  0.00    +0.000 A 
ENDROOT
BRANCH   1   7
ATOM      7  C   UNL     1      50.293   5.495  17.887  0.00  0.00    +0.000 C 
BRANCH   7   8
ATOM      8  O   UNL     1      49.741   6.259  18.979  0.00  0.00    +0.000 OA
BRANCH   8  10
ATOM      9  C   UNL     1      47.578   6.519  19.948  0.00  0.00    +0.000 C 
ATOM     10  C   UNL     1      48.768   5.594  19.776  0.00  0.00    +0.000 C 
ENDBRANCH   8  10
ENDBRANCH   7   8
BRANCH   7  11
ATOM     11  C   UNL     1      50.020   3.967  18.028  0.00  0.00    +0.000 C 
BRANCH  11  12
ATOM     12  C   UNL     1      51.210   3.027  17.956  0.00  0.00    +0.000 A 
ATOM     13  C   UNL     1      52.446   3.455  18.465  0.00  0.00    +0.000 A 
ATOM     14  C   UNL     1      53.578   2.644  18.365  0.00  0.00    +0.000 A 
ATOM     15  C   UNL     1      53.488   1.386  17.773  0.00  0.00    +0.000 A 
ATOM     16  C   UNL     1      52.261   0.930  17.306  0.00  0.00    +0.000 A 
ATOM     17  C   UNL     1      51.129   1.739  17.409  0.00  0.00    +0.000 A 
ENDBRANCH  11  12
ENDBRANCH   7  11
ENDBRANCH   1   7
BRANCH   4  18
ATOM     18  C   UNL     1      48.458   7.598  12.707  0.00  0.00    +0.000 C 
BRANCH  18  19
ATOM     19  N   UNL     1      47.711   6.585  12.008  0.00  0.00    +0.000 N 
ATOM     20  C   UNL     1      46.416   6.804  11.619  0.00  0.00    +0.000 C 
ATOM     21  O   UNL     1      45.855   7.881  11.804  0.00  0.00    +0.000 OA
ATOM     22  H   UNL     1      48.076   5.638  12.042  0.00  0.00    +0.000 HD
BRANCH  20  23
ATOM     23  C   UNL     1      45.745   5.706  10.914  0.00  0.00    +0.000 A 
ATOM     24  C   UNL     1      45.857   5.606   9.534  0.00  0.00    +0.000 A 
ATOM     25  S   UNL     1      45.061   4.249   8.878  0.00  0.00    +0.000 S 
ATOM     26  C   UNL     1      44.492   3.776  10.410  0.00  0.00    +0.000 A 
ATOM     27  N   UNL     1      43.701   2.677  10.554  0.00  0.00    +0.000 NA
ATOM     28  C   UNL     1      43.317   2.452  11.767  0.00  0.00    +0.000 A 
ATOM     29  N   UNL     1      43.655   3.220  12.847  0.00  0.00    +0.000 N 
ATOM     30  C   UNL     1      44.474   4.321  12.756  0.00  0.00    +0.000 A 
ATOM     31  O   UNL     1      44.792   4.963  13.754  0.00  0.00    +0.000 OA
ATOM     32  C   UNL     1      44.921   4.629  11.412  0.00  0.00    +0.000 A 
ATOM     33  H   UNL     1      43.325   2.987  13.773  0.00  0.00    +0.000 HD
ENDBRANCH  20  23
ENDBRANCH  18  19
ENDBRANCH   4  18
TORSDOF 8
ENDMDL
MODEL 8
REMARK VINA RESULT:    -6.990      3.921      8.424
REMARK INTER + INTRA:         -10.965
REMARK INTER:                  -8.907
REMARK INTRA:                  -2.058
REMARK UNBOUND:                -0.706
REMARK  Name = 
REMARK  9 active torsions:
REMARK  status: ('A' for Active; 'I' for Inactive)
REMARK    1  A    between atoms: C_1  and  C_2
REMARK    2  A    between atoms: C_2  and  O_3
REMARK    3  A    between atoms: O_3  and  C_4
REMARK    4  A    between atoms: C_4  and  C_5
REMARK    5  A    between atoms: C_4  and  C_12
REMARK    6  A    between atoms: C_5  and  C_6
REMARK    7  A    between atoms: C_15  and  C_16
REMARK    8  A    between atoms: C_16  and  N_17
REMARK    9  A    between atoms: C_18  and  C_20
REMARK                            x       y       z     vdW  Elec       q    Type
REMARK                         _______ _______ _______ _____ _____    ______ ____
ROOT
ATOM      1  C   UNL     1      49.565   7.263  18.165  0.00  0.00    +0.000 A 
ATOM      2  C   UNL     1      48.561   8.235  18.008  0.00  0.00    +0.000 A 
ATOM      3  C   UNL     1      48.192   8.705  16.741  0.00  0.00    +0.000 A 
ATOM      4  C   UNL     1      48.819   8.220  15.591  0.00  0.00    +0.000 A 
ATOM      5  C   UNL     1      49.871   7.312  15.738  0.00  0.00    +0.000 A 
ATOM      6  C   UNL     1      50.242   6.847  17.006  0.00  0.00    +0.000 A 
ENDROOT
BRANCH   1   7
ATOM      7  C   UNL     1      49.897   6.712  19.560  0.00  0.00    +0.000 C 
BRANCH   7   8
ATOM      8  O   UNL     1      49.606   7.733  20.537  0.00  0.00    +0.000 OA
BRANCH   8  10
ATOM      9  C   UNL     1      47.453   8.009  21.525  0.00  0.00    +0.000 C 
ATOM     10  C   UNL     1      48.804   7.328  21.641  0.00  0.00    +0.000 C 
ENDBRANCH   8  10
ENDBRANCH   7   8
BRANCH   7  11
ATOM     11  C   UNL     1      49.216   5.351  19.896  0.00  0.00    +0.000 C 
BRANCH  11  12
ATOM     12  C   UNL     1      48.736   4.496  18.737  0.00  0.00    +0.000 A 
ATOM     13  C   UNL     1      49.581   3.493  18.236  0.00  0.00    +0.000 A 
ATOM     14  C   UNL     1      49.201   2.724  17.134  0.00  0.00    +0.000 A 
ATOM     15  C   UNL     1      47.965   2.933  16.529  0.00  0.00    +0.000 A 
ATOM     16  C   UNL     1      47.098   3.891  17.041  0.00  0.00    +0.000 A 
ATOM     17  C   UNL     1      47.476   4.657  18.144  0.00  0.00    +0.000 A 
ENDBRANCH  11  12
ENDBRANCH   7  11
ENDBRANCH   1   7
BRANCH   4  18
ATOM     18  C   UNL     1      48.388   8.676  14.222  0.00  0.00    +0.000 C 
BRANCH  18  19
ATOM     19  N   UNL     1      47.197   7.990  13.791  0.00  0.00    +0.000 N 
ATOM     20  C   UNL     1      47.144   7.370  12.571  0.00  0.00    +0.000 C 
ATOM     21  O   UNL     1      48.114   7.328  11.818  0.00  0.00    +0.000 OA
ATOM     22  H   UNL     1      46.339   8.198  14.291  0.00  0.00    +0.000 HD
BRANCH  20  23
ATOM     23  C   UNL     1      45.883   6.701  12.228  0.00  0.00    +0.000 A 
ATOM     24  C   UNL     1      44.845   7.437  11.671  0.00  0.00    +0.000 A 
ATOM     25  S   UNL     1      43.471   6.503  11.289  0.00  0.00    +0.000 S 
ATOM     26  C   UNL     1      44.195   5.090  11.903  0.00  0.00    +0.000 A 
ATOM     27  N   UNL     1      43.524   3.906  11.906  0.00  0.00    +0.000 NA
ATOM     28  C   UNL     1      44.181   2.924  12.428  0.00  0.00    +0.000 A 
ATOM     29  N   UNL     1      45.445   3.016  12.943  0.00  0.00    +0.000 N 
ATOM     30  C   UNL     1      46.171   4.183  12.936  0.00  0.00    +0.000 A 
ATOM     31  O   UNL     1      47.321   4.221  13.369  0.00  0.00    +0.000 OA
ATOM     32  C   UNL     1      45.475   5.323  12.374  0.00  0.00    +0.000 A 
ATOM     33  H   UNL     1      45.906   2.207  13.335  0.00  0.00    +0.000 HD
ENDBRANCH  20  23
ENDBRANCH  18  19
ENDBRANCH   4  18
TORSDOF 8
ENDMDL
MODEL 9
REMARK VINA RESULT:    -6.886      4.862      8.384
REMARK INTER + INTRA:         -10.812
REMARK INTER:                  -9.253
REMARK INTRA:                  -1.559
REMARK UNBOUND:                -0.706
REMARK  Name = 
REMARK  9 active torsions:
REMARK  status: ('A' for Active; 'I' for Inactive)
REMARK    1  A    between atoms: C_1  and  C_2
REMARK    2  A    between atoms: C_2  and  O_3
REMARK    3  A    between atoms: O_3  and  C_4
REMARK    4  A    between atoms: C_4  and  C_5
REMARK    5  A    between atoms: C_4  and  C_12
REMARK    6  A    between atoms: C_5  and  C_6
REMARK    7  A    between atoms: C_15  and  C_16
REMARK    8  A    between atoms: C_16  and  N_17
REMARK    9  A    between atoms: C_18  and  C_20
REMARK                            x       y       z     vdW  Elec       q    Type
REMARK                         _______ _______ _______ _____ _____    ______ ____
ROOT
ATOM      1  C   UNL     1      50.777   8.799  11.338  0.00  0.00    +0.000 A 
ATOM      2  C   UNL     1      49.888   9.886  11.385  0.00  0.00    +0.000 A 
ATOM      3  C   UNL     1      48.573   9.735  11.842  0.00  0.00    +0.000 A 
ATOM      4  C   UNL     1      48.105   8.488  12.264  0.00  0.00    +0.000 A 
ATOM      5  C   UNL     1      48.953   7.384  12.149  0.00  0.00    +0.000 A 
ATOM      6  C   UNL     1      50.267   7.537  11.688  0.00  0.00    +0.000 A 
ENDROOT
BRANCH   1   7
ATOM      7  C   UNL     1      52.235   9.010  10.903  0.00  0.00    +0.000 C 
BRANCH   7   8
ATOM      8  O   UNL     1      52.817  10.039  11.730  0.00  0.00    +0.000 OA
BRANCH   8  10
ATOM      9  C   UNL     1      52.610  10.536  14.053  0.00  0.00    +0.000 C 
ATOM     10  C   UNL     1      53.253   9.628  13.021  0.00  0.00    +0.000 C 
ENDBRANCH   8  10
ENDBRANCH   7   8
BRANCH   7  11
ATOM     11  C   UNL     1      53.096   7.710  10.872  0.00  0.00    +0.000 C 
BRANCH  11  12
ATOM     12  C   UNL     1      53.139   6.922   9.575  0.00  0.00    +0.000 A 
ATOM     13  C   UNL     1      53.949   5.779   9.501  0.00  0.00    +0.000 A 
ATOM     14  C   UNL     1      54.062   5.060   8.309  0.00  0.00    +0.000 A 
ATOM     15  C   UNL     1      53.353   5.462   7.180  0.00  0.00    +0.000 A 
ATOM     16  C   UNL     1      52.511   6.565   7.251  0.00  0.00    +0.000 A 
ATOM     17  C   UNL     1      52.396   7.281   8.442  0.00  0.00    +0.000 A 
ENDBRANCH  11  12
ENDBRANCH   7  11
ENDBRANCH   1   7
BRANCH   4  18
ATOM     18  C   UNL     1      46.711   8.328  12.811  0.00  0.00    +0.000 C 
BRANCH  18  19
ATOM     19  N   UNL     1      46.206   6.998  12.583  0.00  0.00    +0.000 N 
ATOM     20  C   UNL     1      45.155   6.779  11.733  0.00  0.00    +0.000 C 
ATOM     21  O   UNL     1      44.633   7.689  11.094  0.00  0.00    +0.000 OA
ATOM     22  H   UNL     1      46.474   6.283  13.252  0.00  0.00    +0.000 HD
BRANCH  20  23
ATOM     23  C   UNL     1      44.718   5.387  11.573  0.00  0.00    +0.000 A 
ATOM     24  C   UNL     1      44.033   4.759  12.605  0.00  0.00    +0.000 A 
ATOM     25  S   UNL     1      43.556   3.164  12.241  0.00  0.00    +0.000 S 
ATOM     26  C   UNL     1      44.296   3.236  10.710  0.00  0.00    +0.000 A 
ATOM     27  N   UNL     1      44.282   2.160   9.876  0.00  0.00    +0.000 NA
ATOM     28  C   UNL     1      44.905   2.344   8.760  0.00  0.00    +0.000 A 
ATOM     29  N   UNL     1      45.538   3.503   8.401  0.00  0.00    +0.000 N 
ATOM     30  C   UNL     1      45.554   4.624   9.197  0.00  0.00    +0.000 A 
ATOM     31  O   UNL     1      46.095   5.662   8.825  0.00  0.00    +0.000 OA
ATOM     32  C   UNL     1      44.880   4.467  10.471  0.00  0.00    +0.000 A 
ATOM     33  H   UNL     1      46.005   3.585   7.509  0.00  0.00    +0.000 HD
ENDBRANCH  20  23
ENDBRANCH  18  19
ENDBRANCH   4  18
TORSDOF 8
ENDMDL
