MODEL 1
REMARK VINA RESULT:    -8.157      0.000      0.000
REMARK INTER + INTRA:         -12.074
REMARK INTER:                 -11.018
REMARK INTRA:                  -1.056
REMARK UNBOUND:                -1.056
REMARK  Name = 
REMARK  7 active torsions:
REMARK  status: ('A' for Active; 'I' for Inactive)
REMARK    1  A    between atoms: C_1  and  N_2
REMARK    2  A    between atoms: N_2  and  C_3
REMARK    3  A    between atoms: C_3  and  C_4
REMARK    4  A    between atoms: C_7  and  C_8
REMARK    5  A    between atoms: C_8  and  N_9
REMARK    6  A    between atoms: C_10  and  C_12
REMARK    7  A    between atoms: C_24  and  C_26
REMARK                            x       y       z     vdW  Elec       q    Type
REMARK                         _______ _______ _______ _____ _____    ______ ____
ROOT
ATOM      1  C   UNL     1      46.391   4.424  13.476  0.00  0.00    +0.000 A 
ATOM      2  C   UNL     1      46.682   3.944  14.764  0.00  0.00    +0.000 A 
ATOM      3  C   UNL     1      47.539   4.651  15.609  0.00  0.00    +0.000 A 
ATOM      4  C   UNL     1      48.110   5.857  15.184  0.00  0.00    +0.000 A 
ATOM      5  C   UNL     1      47.848   6.315  13.885  0.00  0.00    +0.000 A 
ATOM      6  C   UNL     1      46.988   5.611  13.041  0.00  0.00    +0.000 A 
ENDROOT
BRANCH   1   7
ATOM      7  C   UNL     1      45.456   3.655  12.580  0.00  0.00    +0.000 C 
BRANCH   7   9
ATOM      8  C   UNL     1      43.332   4.999  12.975  0.00  0.00    +0.000 C 
ATOM      9  N   UNL     1      44.259   4.331  12.065  0.00  0.00    +0.000 N 
ATOM     10  C   UNL     1      43.939   4.442  10.700  0.00  0.00    +0.000 C 
ATOM     11  O   UNL     1      42.969   5.098  10.316  0.00  0.00    +0.000 OA
BRANCH  10  12
ATOM     12  C   UNL     1      44.775   3.820   9.640  0.00  0.00    +0.000 A 
ATOM     13  C   UNL     1      44.888   2.449   9.405  0.00  0.00    +0.000 A 
ATOM     14  C   UNL     1      45.745   1.980   8.410  0.00  0.00    +0.000 A 
ATOM     15  C   UNL     1      46.416   2.904   7.629  0.00  0.00    +0.000 A 
ATOM     16  N   UNL     1      46.278   4.238   7.774  0.00  0.00    +0.000 NA
ATOM     17  C   UNL     1      45.456   4.665   8.769  0.00  0.00    +0.000 A 
ENDBRANCH  10  12
ENDBRANCH   7   9
ENDBRANCH   1   7
BRANCH   4  18
ATOM     18  C   UNL     1      49.023   6.633  16.092  0.00  0.00    +0.000 C 
BRANCH  18  19
ATOM     19  N   UNL     1      50.091   5.805  16.582  0.00  0.00    +0.000 N 
ATOM     20  C   UNL     1      50.153   5.442  17.900  0.00  0.00    +0.000 C 
ATOM     21  O   UNL     1      49.276   5.752  18.703  0.00  0.00    +0.000 OA
ATOM     22  H   UNL     1      50.920   5.729  16.000  0.00  0.00    +0.000 HD
BRANCH  20  23
ATOM     23  C   UNL     1      51.294   4.608  18.296  0.00  0.00    +0.000 A 
ATOM     24  C   UNL     1      52.317   5.164  19.052  0.00  0.00    +0.000 A 
ATOM     25  S   UNL     1      53.541   4.054  19.466  0.00  0.00    +0.000 S 
ATOM     26  C   UNL     1      52.772   2.802  18.609  0.00  0.00    +0.000 A 
ATOM     27  N   UNL     1      53.324   1.561  18.541  0.00  0.00    +0.000 NA
ATOM     28  C   UNL     1      52.653   0.715  17.836  0.00  0.00    +0.000 A 
ATOM     29  N   UNL     1      51.474   0.996  17.194  0.00  0.00    +0.000 N 
ATOM     30  C   UNL     1      50.864   2.226  17.256  0.00  0.00    +0.000 A 
ATOM     31  O   UNL     1      49.786   2.432  16.705  0.00  0.00    +0.000 OA
ATOM     32  C   UNL     1      51.587   3.219  18.029  0.00  0.00    +0.000 A 
ATOM     33  H   UNL     1      50.994   0.286  16.661  0.00  0.00    +0.000 HD
ENDBRANCH  20  23
ENDBRANCH  18  19
ENDBRANCH   4  18
TORSDOF 6
ENDMDL
MODEL 2
REMARK VINA RESULT:    -7.597      2.618      3.154
REMARK INTER + INTRA:         -11.318
REMARK INTER:                 -10.614
REMARK INTRA:                  -0.704
REMARK UNBOUND:                -1.056
REMARK  Name = 
REMARK  7 active torsions:
REMARK  status: ('A' for Active; 'I' for Inactive)
REMARK    1  A    between atoms: C_1  and  N_2
REMARK    2  A    between atoms: N_2  and  C_3
REMARK    3  A    between atoms: C_3  and  C_4
REMARK    4  A    between atoms: C_7  and  C_8
REMARK    5  A    between atoms: C_8  and  N_9
REMARK    6  A    between atoms: C_10  and  C_12
REMARK    7  A    between atoms: C_24  and  C_26
REMARK                            x       y       z     vdW  Elec       q    Type
REMARK                         _______ _______ _______ _____ _____    ______ ____
ROOT
ATOM      1  C   UNL     1      45.448   6.801  11.572  0.00  0.00    +0.000 A 
ATOM      2  C   UNL     1      46.668   6.198  11.916  0.00  0.00    +0.000 A 
ATOM      3  C   UNL     1      47.559   6.838  12.779  0.00  0.00    +0.000 A 
ATOM      4  C   UNL     1      47.239   8.088  13.321  0.00  0.00    +0.000 A 
ATOM      5  C   UNL     1      46.038   8.707  12.945  0.00  0.00    +0.000 A 
ATOM      6  C   UNL     1      45.144   8.066  12.087  0.00  0.00    +0.000 A 
ENDROOT
BRANCH   1   7
ATOM      7  C   UNL     1      44.492   6.093  10.647  0.00  0.00    +0.000 C 
BRANCH   7   9
ATOM      8  C   UNL     1      42.827   5.015  12.242  0.00  0.00    +0.000 C 
ATOM      9  N   UNL     1      43.783   4.907  11.142  0.00  0.00    +0.000 N 
ATOM     10  C   UNL     1      43.910   3.620  10.588  0.00  0.00    +0.000 C 
ATOM     11  O   UNL     1      43.225   2.676  10.984  0.00  0.00    +0.000 OA
BRANCH  10  12
ATOM     12  C   UNL     1      44.840   3.335   9.464  0.00  0.00    +0.000 A 
ATOM     13  C   UNL     1      45.415   4.295   8.630  0.00  0.00    +0.000 A 
ATOM     14  C   UNL     1      46.236   3.900   7.575  0.00  0.00    +0.000 A 
ATOM     15  C   UNL     1      46.516   2.554   7.425  0.00  0.00    +0.000 A 
ATOM     16  N   UNL     1      46.042   1.601   8.253  0.00  0.00    +0.000 NA
ATOM     17  C   UNL     1      45.223   2.012   9.257  0.00  0.00    +0.000 A 
ENDBRANCH  10  12
ENDBRANCH   7   9
ENDBRANCH   1   7
BRANCH   4  18
ATOM     18  C   UNL     1      48.187   8.780  14.262  0.00  0.00    +0.000 C 
BRANCH  18  19
ATOM     19  N   UNL     1      48.383   8.007  15.457  0.00  0.00    +0.000 N 
ATOM     20  C   UNL     1      49.576   7.382  15.705  0.00  0.00    +0.000 C 
ATOM     21  O   UNL     1      50.542   7.503  14.955  0.00  0.00    +0.000 OA
ATOM     22  H   UNL     1      47.550   7.718  15.962  0.00  0.00    +0.000 HD
BRANCH  20  23
ATOM     23  C   UNL     1      49.662   6.606  16.947  0.00  0.00    +0.000 A 
ATOM     24  C   UNL     1      50.473   7.056  17.980  0.00  0.00    +0.000 A 
ATOM     25  S   UNL     1      50.426   6.067  19.366  0.00  0.00    +0.000 S 
ATOM     26  C   UNL     1      49.358   4.975  18.617  0.00  0.00    +0.000 A 
ATOM     27  N   UNL     1      48.928   3.861  19.270  0.00  0.00    +0.000 NA
ATOM     28  C   UNL     1      48.145   3.104  18.577  0.00  0.00    +0.000 A 
ATOM     29  N   UNL     1      47.747   3.363  17.291  0.00  0.00    +0.000 N 
ATOM     30  C   UNL     1      48.132   4.488  16.602  0.00  0.00    +0.000 A 
ATOM     31  O   UNL     1      47.723   4.712  15.466  0.00  0.00    +0.000 OA
ATOM     32  C   UNL     1      49.025   5.368  17.334  0.00  0.00    +0.000 A 
ATOM     33  H   UNL     1      47.127   2.732  16.805  0.00  0.00    +0.000 HD
ENDBRANCH  20  23
ENDBRANCH  18  19
ENDBRANCH   4  18
TORSDOF 6
ENDMDL
MODEL 3
REMARK VINA RESULT:    -7.481      3.517      8.872
REMARK INTER + INTRA:         -11.162
REMARK INTER:                  -9.709
REMARK INTRA:                  -1.452
REMARK UNBOUND:                -1.056
REMARK  Name = 
REMARK  7 active torsions:
REMARK  status: ('A' for Active; 'I' for Inactive)
REMARK    1  A    between atoms: C_1  and  N_2
REMARK    2  A    between atoms: N_2  and  C_3
REMARK    3  A    between atoms: C_3  and  C_4
REMARK    4  A    between atoms: C_7  and  C_8
REMARK    5  A    between atoms: C_8  and  N_9
REMARK    6  A    between atoms: C_10  and  C_12
REMARK    7  A    between atoms: C_24  and  C_26
REMARK                            x       y       z     vdW  Elec       q    Type
REMARK                         _______ _______ _______ _____ _____    ______ ____
ROOT
ATOM      1  C   UNL     1      48.890   7.692  16.252  0.00  0.00    +0.000 A 
ATOM      2  C   UNL     1      49.000   6.554  15.437  0.00  0.00    +0.000 A 
ATOM      3  C   UNL     1      48.540   6.576  14.120  0.00  0.00    +0.000 A 
ATOM      4  C   UNL     1      47.972   7.741  13.592  0.00  0.00    +0.000 A 
ATOM      5  C   UNL     1      47.828   8.865  14.419  0.00  0.00    +0.000 A 
ATOM      6  C   UNL     1      48.292   8.845  15.735  0.00  0.00    +0.000 A 
ENDROOT
BRANCH   1   7
ATOM      7  C   UNL     1      49.401   7.655  17.669  0.00  0.00    +0.000 C 
BRANCH   7   9
ATOM      8  C   UNL     1      48.003   8.602  19.573  0.00  0.00    +0.000 C 
ATOM      9  N   UNL     1      48.437   7.469  18.760  0.00  0.00    +0.000 N 
ATOM     10  C   UNL     1      47.823   6.242  19.072  0.00  0.00    +0.000 C 
ATOM     11  O   UNL     1      46.953   6.159  19.941  0.00  0.00    +0.000 OA
BRANCH  10  12
ATOM     12  C   UNL     1      48.151   4.988  18.345  0.00  0.00    +0.000 A 
ATOM     13  C   UNL     1      49.367   4.310  18.417  0.00  0.00    +0.000 A 
ATOM     14  C   UNL     1      49.576   3.166  17.647  0.00  0.00    +0.000 A 
ATOM     15  C   UNL     1      48.530   2.692  16.875  0.00  0.00    +0.000 A 
ATOM     16  N   UNL     1      47.314   3.275  16.834  0.00  0.00    +0.000 NA
ATOM     17  C   UNL     1      47.149   4.403  17.575  0.00  0.00    +0.000 A 
ENDBRANCH  10  12
ENDBRANCH   7   9
ENDBRANCH   1   7
BRANCH   4  18
ATOM     18  C   UNL     1      47.485   7.780  12.169  0.00  0.00    +0.000 C 
BRANCH  18  19
ATOM     19  N   UNL     1      46.820   6.555  11.818  0.00  0.00    +0.000 N 
ATOM     20  C   UNL     1      45.466   6.421  11.967  0.00  0.00    +0.000 C 
ATOM     21  O   UNL     1      44.757   7.351  12.345  0.00  0.00    +0.000 OA
ATOM     22  H   UNL     1      47.399   5.727  11.721  0.00  0.00    +0.000 HD
BRANCH  20  23
ATOM     23  C   UNL     1      44.892   5.123  11.594  0.00  0.00    +0.000 A 
ATOM     24  C   UNL     1      44.159   4.405  12.528  0.00  0.00    +0.000 A 
ATOM     25  S   UNL     1      43.524   2.944  11.924  0.00  0.00    +0.000 S 
ATOM     26  C   UNL     1      44.249   3.195  10.405  0.00  0.00    +0.000 A 
ATOM     27  N   UNL     1      44.113   2.280   9.407  0.00  0.00    +0.000 NA
ATOM     28  C   UNL     1      44.737   2.579   8.318  0.00  0.00    +0.000 A 
ATOM     29  N   UNL     1      45.481   3.716   8.133  0.00  0.00    +0.000 N 
ATOM     30  C   UNL     1      45.623   4.682   9.100  0.00  0.00    +0.000 A 
ATOM     31  O   UNL     1      46.261   5.709   8.887  0.00  0.00    +0.000 OA
ATOM     32  C   UNL     1      44.950   4.386  10.352  0.00  0.00    +0.000 A 
ATOM     33  H   UNL     1      45.940   3.895   7.253  0.00  0.00    +0.000 HD
ENDBRANCH  20  23
ENDBRANCH  18  19
ENDBRANCH   4  18
TORSDOF 6
ENDMDL
MODEL 4
REMARK VINA RESULT:    -7.462      1.878      3.109
REMARK INTER + INTRA:         -11.136
REMARK INTER:                 -10.000
REMARK INTRA:                  -1.136
REMARK UNBOUND:                -1.056
REMARK  Name = 
REMARK  7 active torsions:
REMARK  status: ('A' for Active; 'I' for Inactive)
REMARK    1  A    between atoms: C_1  and  N_2
REMARK    2  A    between atoms: N_2  and  C_3
REMARK    3  A    between atoms: C_3  and  C_4
REMARK    4  A    between atoms: C_7  and  C_8
REMARK    5  A    between atoms: C_8  and  N_9
REMARK    6  A    between atoms: C_10  and  C_12
REMARK    7  A    between atoms: C_24  and  C_26
REMARK                            x       y       z     vdW  Elec       q    Type
REMARK                         _______ _______ _______ _____ _____    ______ ____
ROOT
ATOM      1  C   UNL     1      47.359   5.762  13.545  0.00  0.00    +0.000 A 
ATOM      2  C   UNL     1      46.829   4.462  13.592  0.00  0.00    +0.000 A 
ATOM      3  C   UNL     1      46.936   3.692  14.751  0.00  0.00    +0.000 A 
ATOM      4  C   UNL     1      47.565   4.213  15.887  0.00  0.00    +0.000 A 
ATOM      5  C   UNL     1      48.127   5.497  15.827  0.00  0.00    +0.000 A 
ATOM      6  C   UNL     1      48.017   6.269  14.670  0.00  0.00    +0.000 A 
ENDROOT
BRANCH   1   7
ATOM      7  C   UNL     1      47.227   6.584  12.290  0.00  0.00    +0.000 C 
BRANCH   7   9
ATOM      8  C   UNL     1      46.045   8.803  12.683  0.00  0.00    +0.000 C 
ATOM      9  N   UNL     1      46.050   7.449  12.136  0.00  0.00    +0.000 N 
ATOM     10  C   UNL     1      44.890   7.087  11.427  0.00  0.00    +0.000 C 
ATOM     11  O   UNL     1      43.967   7.884  11.252  0.00  0.00    +0.000 OA
BRANCH  10  12
ATOM     12  C   UNL     1      44.730   5.745  10.809  0.00  0.00    +0.000 A 
ATOM     13  C   UNL     1      45.503   5.244   9.761  0.00  0.00    +0.000 A 
ATOM     14  C   UNL     1      45.226   3.985   9.230  0.00  0.00    +0.000 A 
ATOM     15  C   UNL     1      44.222   3.231   9.811  0.00  0.00    +0.000 A 
ATOM     16  N   UNL     1      43.501   3.647  10.872  0.00  0.00    +0.000 NA
ATOM     17  C   UNL     1      43.776   4.889  11.352  0.00  0.00    +0.000 A 
ENDBRANCH  10  12
ENDBRANCH   7   9
ENDBRANCH   1   7
BRANCH   4  18
ATOM     18  C   UNL     1      47.673   3.397  17.146  0.00  0.00    +0.000 C 
BRANCH  18  19
ATOM     19  N   UNL     1      49.046   3.230  17.537  0.00  0.00    +0.000 N 
ATOM     20  C   UNL     1      49.851   2.317  16.910  0.00  0.00    +0.000 C 
ATOM     21  O   UNL     1      49.458   1.649  15.956  0.00  0.00    +0.000 OA
ATOM     22  H   UNL     1      49.316   3.599  18.443  0.00  0.00    +0.000 HD
BRANCH  20  23
ATOM     23  C   UNL     1      51.231   2.217  17.399  0.00  0.00    +0.000 A 
ATOM     24  C   UNL     1      51.795   0.965  17.605  0.00  0.00    +0.000 A 
ATOM     25  S   UNL     1      53.415   1.023  18.129  0.00  0.00    +0.000 S 
ATOM     26  C   UNL     1      53.405   2.725  18.147  0.00  0.00    +0.000 A 
ATOM     27  N   UNL     1      54.505   3.424  18.535  0.00  0.00    +0.000 NA
ATOM     28  C   UNL     1      54.353   4.705  18.531  0.00  0.00    +0.000 A 
ATOM     29  N   UNL     1      53.199   5.353  18.168  0.00  0.00    +0.000 N 
ATOM     30  C   UNL     1      52.073   4.690  17.743  0.00  0.00    +0.000 A 
ATOM     31  O   UNL     1      51.071   5.302  17.384  0.00  0.00    +0.000 OA
ATOM     32  C   UNL     1      52.189   3.244  17.741  0.00  0.00    +0.000 A 
ATOM     33  H   UNL     1      53.147   6.360  18.181  0.00  0.00    +0.000 HD
ENDBRANCH  20  23
ENDBRANCH  18  19
ENDBRANCH   4  18
TORSDOF 6
ENDMDL
MODEL 5
REMARK VINA RESULT:    -7.428      3.430     10.323
REMARK INTER + INTRA:         -11.090
REMARK INTER:                  -9.712
REMARK INTRA:                  -1.377
REMARK UNBOUND:                -1.056
REMARK  Name = 
REMARK  7 active torsions:
REMARK  status: ('A' for Active; 'I' for Inactive)
REMARK    1  A    between atoms: C_1  and  N_2
REMARK    2  A    between atoms: N_2  and  C_3
REMARK    3  A    between atoms: C_3  and  C_4
REMARK    4  A    between atoms: C_7  and  C_8
REMARK    5  A    between atoms: C_8  and  N_9
REMARK    6  A    between atoms: C_10  and  C_12
REMARK    7  A    between atoms: C_24  and  C_26
REMARK                            x       y       z     vdW  Elec       q    Type
REMARK                         _______ _______ _______ _____ _____    ______ ____
ROOT
ATOM      1  C   UNL     1      51.517   3.791  17.716  0.00  0.00    +0.000 A 
ATOM      2  C   UNL     1      50.959   2.531  17.444  0.00  0.00    +0.000 A 
ATOM      3  C   UNL     1      49.595   2.401  17.179  0.00  0.00    +0.000 A 
ATOM      4  C   UNL     1      48.767   3.530  17.172  0.00  0.00    +0.000 A 
ATOM      5  C   UNL     1      49.319   4.782  17.481  0.00  0.00    +0.000 A 
ATOM      6  C   UNL     1      50.684   4.914  17.741  0.00  0.00    +0.000 A 
ENDROOT
BRANCH   1   7
ATOM      7  C   UNL     1      52.993   3.918  17.990  0.00  0.00    +0.000 C 
BRANCH   7   9
ATOM      8  C   UNL     1      54.319   1.899  18.790  0.00  0.00    +0.000 C 
ATOM      9  N   UNL     1      53.577   3.124  19.078  0.00  0.00    +0.000 N 
ATOM     10  C   UNL     1      53.528   3.486  20.436  0.00  0.00    +0.000 C 
ATOM     11  O   UNL     1      54.112   2.829  21.301  0.00  0.00    +0.000 OA
BRANCH  10  12
ATOM     12  C   UNL     1      52.812   4.702  20.903  0.00  0.00    +0.000 A 
ATOM     13  C   UNL     1      51.479   4.743  21.315  0.00  0.00    +0.000 A 
ATOM     14  C   UNL     1      50.901   5.956  21.686  0.00  0.00    +0.000 A 
ATOM     15  C   UNL     1      51.697   7.088  21.700  0.00  0.00    +0.000 A 
ATOM     16  N   UNL     1      53.007   7.078  21.381  0.00  0.00    +0.000 NA
ATOM     17  C   UNL     1      53.537   5.886  20.999  0.00  0.00    +0.000 A 
ENDBRANCH  10  12
ENDBRANCH   7   9
ENDBRANCH   1   7
BRANCH   4  18
ATOM     18  C   UNL     1      47.299   3.401  16.874  0.00  0.00    +0.000 C 
BRANCH  18  19
ATOM     19  N   UNL     1      46.876   4.394  15.925  0.00  0.00    +0.000 N 
ATOM     20  C   UNL     1      46.921   4.145  14.579  0.00  0.00    +0.000 C 
ATOM     21  O   UNL     1      47.263   3.054  14.129  0.00  0.00    +0.000 OA
ATOM     22  H   UNL     1      46.807   5.351  16.256  0.00  0.00    +0.000 HD
BRANCH  20  23
ATOM     23  C   UNL     1      46.482   5.234  13.698  0.00  0.00    +0.000 A 
ATOM     24  C   UNL     1      47.317   6.322  13.487  0.00  0.00    +0.000 A 
ATOM     25  S   UNL     1      46.680   7.473  12.404  0.00  0.00    +0.000 S 
ATOM     26  C   UNL     1      45.243   6.581  12.217  0.00  0.00    +0.000 A 
ATOM     27  N   UNL     1      44.239   7.035  11.419  0.00  0.00    +0.000 NA
ATOM     28  C   UNL     1      43.195   6.278  11.389  0.00  0.00    +0.000 A 
ATOM     29  N   UNL     1      43.065   5.101  12.082  0.00  0.00    +0.000 N 
ATOM     30  C   UNL     1      44.062   4.589  12.877  0.00  0.00    +0.000 A 
ATOM     31  O   UNL     1      43.930   3.510  13.451  0.00  0.00    +0.000 OA
ATOM     32  C   UNL     1      45.255   5.411  12.954  0.00  0.00    +0.000 A 
ATOM     33  H   UNL     1      42.223   4.551  12.012  0.00  0.00    +0.000 HD
ENDBRANCH  20  23
ENDBRANCH  18  19
ENDBRANCH   4  18
TORSDOF 6
ENDMDL
MODEL 6
REMARK VINA RESULT:    -7.339      3.155      4.225
REMARK INTER + INTRA:         -10.969
REMARK INTER:                 -10.382
REMARK INTRA:                  -0.587
REMARK UNBOUND:                -1.056
REMARK  Name = 
REMARK  7 active torsions:
REMARK  status: ('A' for Active; 'I' for Inactive)
REMARK    1  A    between atoms: C_1  and  N_2
REMARK    2  A    between atoms: N_2  and  C_3
REMARK    3  A    between atoms: C_3  and  C_4
REMARK    4  A    between atoms: C_7  and  C_8
REMARK    5  A    between atoms: C_8  and  N_9
REMARK    6  A    between atoms: C_10  and  C_12
REMARK    7  A    between atoms: C_24  and  C_26
REMARK                            x       y       z     vdW  Elec       q    Type
REMARK                         _______ _______ _______ _____ _____    ______ ____
ROOT
ATOM      1  C   UNL     1      45.624   6.621  11.890  0.00  0.00    +0.000 A 
ATOM      2  C   UNL     1      46.709   5.820  12.281  0.00  0.00    +0.000 A 
ATOM      3  C   UNL     1      47.675   6.312  13.158  0.00  0.00    +0.000 A 
ATOM      4  C   UNL     1      47.568   7.611  13.668  0.00  0.00    +0.000 A 
ATOM      5  C   UNL     1      46.505   8.424  13.247  0.00  0.00    +0.000 A 
ATOM      6  C   UNL     1      45.535   7.931  12.373  0.00  0.00    +0.000 A 
ENDROOT
BRANCH   1   7
ATOM      7  C   UNL     1      44.582   6.072  10.950  0.00  0.00    +0.000 C 
BRANCH   7   9
ATOM      8  C   UNL     1      42.812   5.099  12.497  0.00  0.00    +0.000 C 
ATOM      9  N   UNL     1      43.758   4.942  11.395  0.00  0.00    +0.000 N 
ATOM     10  C   UNL     1      43.761   3.673  10.789  0.00  0.00    +0.000 C 
ATOM     11  O   UNL     1      42.984   2.785  11.146  0.00  0.00    +0.000 OA
BRANCH  10  12
ATOM     12  C   UNL     1      44.665   3.343   9.655  0.00  0.00    +0.000 A 
ATOM     13  C   UNL     1      45.167   4.260   8.733  0.00  0.00    +0.000 A 
ATOM     14  C   UNL     1      45.969   3.823   7.679  0.00  0.00    +0.000 A 
ATOM     15  C   UNL     1      46.303   2.482   7.619  0.00  0.00    +0.000 A 
ATOM     16  N   UNL     1      45.900   1.574   8.532  0.00  0.00    +0.000 NA
ATOM     17  C   UNL     1      45.098   2.026   9.533  0.00  0.00    +0.000 A 
ENDBRANCH  10  12
ENDBRANCH   7   9
ENDBRANCH   1   7
BRANCH   4  18
ATOM     18  C   UNL     1      48.598   8.146  14.625  0.00  0.00    +0.000 C 
BRANCH  18  19
ATOM     19  N   UNL     1      48.385   7.635  15.951  0.00  0.00    +0.000 N 
ATOM     20  C   UNL     1      49.259   6.741  16.510  0.00  0.00    +0.000 C 
ATOM     21  O   UNL     1      50.285   6.387  15.934  0.00  0.00    +0.000 OA
ATOM     22  H   UNL     1      47.453   7.738  16.342  0.00  0.00    +0.000 HD
BRANCH  20  23
ATOM     23  C   UNL     1      48.937   6.271  17.863  0.00  0.00    +0.000 A 
ATOM     24  C   UNL     1      49.166   4.943  18.197  0.00  0.00    +0.000 A 
ATOM     25  S   UNL     1      48.784   4.570  19.815  0.00  0.00    +0.000 S 
ATOM     26  C   UNL     1      48.253   6.159  20.113  0.00  0.00    +0.000 A 
ATOM     27  N   UNL     1      47.764   6.515  21.331  0.00  0.00    +0.000 NA
ATOM     28  C   UNL     1      47.369   7.740  21.413  0.00  0.00    +0.000 A 
ATOM     29  N   UNL     1      47.424   8.647  20.385  0.00  0.00    +0.000 N 
ATOM     30  C   UNL     1      47.935   8.342  19.146  0.00  0.00    +0.000 A 
ATOM     31  O   UNL     1      48.010   9.190  18.261  0.00  0.00    +0.000 OA
ATOM     32  C   UNL     1      48.382   6.970  18.999  0.00  0.00    +0.000 A 
ATOM     33  H   UNL     1      47.104   9.595  20.516  0.00  0.00    +0.000 HD
ENDBRANCH  20  23
ENDBRANCH  18  19
ENDBRANCH   4  18
TORSDOF 6
ENDMDL
MODEL 7
REMARK VINA RESULT:    -7.275      3.713      8.663
REMARK INTER + INTRA:         -10.883
REMARK INTER:                  -9.552
REMARK INTRA:                  -1.332
REMARK UNBOUND:                -1.056
REMARK  Name = 
REMARK  7 active torsions:
REMARK  status: ('A' for Active; 'I' for Inactive)
REMARK    1  A    between atoms: C_1  and  N_2
REMARK    2  A    between atoms: N_2  and  C_3
REMARK    3  A    between atoms: C_3  and  C_4
REMARK    4  A    between atoms: C_7  and  C_8
REMARK    5  A    between atoms: C_8  and  N_9
REMARK    6  A    between atoms: C_10  and  C_12
REMARK    7  A    between atoms: C_24  and  C_26
REMARK                            x       y       z     vdW  Elec       q    Type
REMARK                         _______ _______ _______ _____ _____    ______ ____
ROOT
ATOM      1  C   UNL     1      49.159   7.600  16.308  0.00  0.00    +0.000 A 
ATOM      2  C   UNL     1      48.908   6.534  15.428  0.00  0.00    +0.000 A 
ATOM      3  C   UNL     1      48.478   6.776  14.123  0.00  0.00    +0.000 A 
ATOM      4  C   UNL     1      48.301   8.089  13.672  0.00  0.00    +0.000 A 
ATOM      5  C   UNL     1      48.514   9.151  14.563  0.00  0.00    +0.000 A 
ATOM      6  C   UNL     1      48.949   8.911  15.867  0.00  0.00    +0.000 A 
ENDROOT
BRANCH   1   7
ATOM      7  C   UNL     1      49.633   7.323  17.711  0.00  0.00    +0.000 C 
BRANCH   7   9
ATOM      8  C   UNL     1      48.264   8.274  19.633  0.00  0.00    +0.000 C 
ATOM      9  N   UNL     1      48.632   7.154  18.771  0.00  0.00    +0.000 N 
ATOM     10  C   UNL     1      47.923   5.962  19.007  0.00  0.00    +0.000 C 
ATOM     11  O   UNL     1      47.029   5.899  19.853  0.00  0.00    +0.000 OA
BRANCH  10  12
ATOM     12  C   UNL     1      48.176   4.725  18.221  0.00  0.00    +0.000 A 
ATOM     13  C   UNL     1      49.326   3.940  18.303  0.00  0.00    +0.000 A 
ATOM     14  C   UNL     1      49.471   2.826  17.477  0.00  0.00    +0.000 A 
ATOM     15  C   UNL     1      48.424   2.488  16.637  0.00  0.00    +0.000 A 
ATOM     16  N   UNL     1      47.266   3.177  16.581  0.00  0.00    +0.000 NA
ATOM     17  C   UNL     1      47.164   4.273  17.379  0.00  0.00    +0.000 A 
ENDBRANCH  10  12
ENDBRANCH   7   9
ENDBRANCH   1   7
BRANCH   4  18
ATOM     18  C   UNL     1      47.850   8.361  12.263  0.00  0.00    +0.000 C 
BRANCH  18  19
ATOM     19  N   UNL     1      47.296   7.179  11.661  0.00  0.00    +0.000 N 
ATOM     20  C   UNL     1      45.960   7.095  11.375  0.00  0.00    +0.000 C 
ATOM     21  O   UNL     1      45.193   8.037  11.561  0.00  0.00    +0.000 OA
ATOM     22  H   UNL     1      47.855   6.332  11.707  0.00  0.00    +0.000 HD
BRANCH  20  23
ATOM     23  C   UNL     1      45.497   5.837  10.777  0.00  0.00    +0.000 A 
ATOM     24  C   UNL     1      45.781   5.568   9.445  0.00  0.00    +0.000 A 
ATOM     25  S   UNL     1      45.215   4.049   8.919  0.00  0.00    +0.000 S 
ATOM     26  C   UNL     1      44.528   3.718  10.440  0.00  0.00    +0.000 A 
ATOM     27  N   UNL     1      43.854   2.557  10.663  0.00  0.00    +0.000 NA
ATOM     28  C   UNL     1      43.358   2.446  11.849  0.00  0.00    +0.000 A 
ATOM     29  N   UNL     1      43.480   3.389  12.837  0.00  0.00    +0.000 N 
ATOM     30  C   UNL     1      44.175   4.563  12.668  0.00  0.00    +0.000 A 
ATOM     31  O   UNL     1      44.302   5.368  13.587  0.00  0.00    +0.000 OA
ATOM     32  C   UNL     1      44.743   4.742  11.344  0.00  0.00    +0.000 A 
ATOM     33  H   UNL     1      43.073   3.239  13.748  0.00  0.00    +0.000 HD
ENDBRANCH  20  23
ENDBRANCH  18  19
ENDBRANCH   4  18
TORSDOF 6
ENDMDL
MODEL 8
REMARK VINA RESULT:    -7.045      3.742      8.590
REMARK INTER + INTRA:         -10.572
REMARK INTER:                  -8.851
REMARK INTRA:                  -1.721
REMARK UNBOUND:                -1.056
REMARK  Name = 
REMARK  7 active torsions:
REMARK  status: ('A' for Active; 'I' for Inactive)
REMARK    1  A    between atoms: C_1  and  N_2
REMARK    2  A    between atoms: N_2  and  C_3
REMARK    3  A    between atoms: C_3  and  C_4
REMARK    4  A    between atoms: C_7  and  C_8
REMARK    5  A    between atoms: C_8  and  N_9
REMARK    6  A    between atoms: C_10  and  C_12
REMARK    7  A    between atoms: C_24  and  C_26
REMARK                            x       y       z     vdW  Elec       q    Type
REMARK                         _______ _______ _______ _____ _____    ______ ____
ROOT
ATOM      1  C   UNL     1      50.223   6.740  17.875  0.00  0.00    +0.000 A 
ATOM      2  C   UNL     1      50.425   6.368  16.536  0.00  0.00    +0.000 A 
ATOM      3  C   UNL     1      49.736   7.012  15.507  0.00  0.00    +0.000 A 
ATOM      4  C   UNL     1      48.841   8.047  15.800  0.00  0.00    +0.000 A 
ATOM      5  C   UNL     1      48.611   8.392  17.140  0.00  0.00    +0.000 A 
ATOM      6  C   UNL     1      49.303   7.751  18.169  0.00  0.00    +0.000 A 
ENDROOT
BRANCH   1   7
ATOM      7  C   UNL     1      50.981   6.042  18.973  0.00  0.00    +0.000 C 
BRANCH   7   9
ATOM      8  C   UNL     1      50.554   5.957  21.480  0.00  0.00    +0.000 C 
ATOM      9  N   UNL     1      50.233   5.521  20.124  0.00  0.00    +0.000 N 
ATOM     10  C   UNL     1      49.146   4.634  20.024  0.00  0.00    +0.000 C 
ATOM     11  O   UNL     1      48.495   4.297  21.015  0.00  0.00    +0.000 OA
BRANCH  10  12
ATOM     12  C   UNL     1      48.688   4.090  18.719  0.00  0.00    +0.000 A 
ATOM     13  C   UNL     1      47.523   4.471  18.052  0.00  0.00    +0.000 A 
ATOM     14  C   UNL     1      47.172   3.853  16.852  0.00  0.00    +0.000 A 
ATOM     15  C   UNL     1      48.037   2.915  16.317  0.00  0.00    +0.000 A 
ATOM     16  N   UNL     1      49.208   2.572  16.891  0.00  0.00    +0.000 NA
ATOM     17  C   UNL     1      49.511   3.172  18.073  0.00  0.00    +0.000 A 
ENDBRANCH  10  12
ENDBRANCH   7   9
ENDBRANCH   1   7
BRANCH   4  18
ATOM     18  C   UNL     1      48.104   8.757  14.698  0.00  0.00    +0.000 C 
BRANCH  18  19
ATOM     19  N   UNL     1      47.086   7.915  14.133  0.00  0.00    +0.000 N 
ATOM     20  C   UNL     1      46.712   8.045  12.822  0.00  0.00    +0.000 C 
ATOM     21  O   UNL     1      47.266   8.835  12.062  0.00  0.00    +0.000 OA
ATOM     22  H   UNL     1      46.477   7.426  14.782  0.00  0.00    +0.000 HD
BRANCH  20  23
ATOM     23  C   UNL     1      45.651   7.146  12.352  0.00  0.00    +0.000 A 
ATOM     24  C   UNL     1      44.547   7.675  11.696  0.00  0.00    +0.000 A 
ATOM     25  S   UNL     1      43.432   6.496  11.176  0.00  0.00    +0.000 S 
ATOM     26  C   UNL     1      44.361   5.241  11.852  0.00  0.00    +0.000 A 
ATOM     27  N   UNL     1      43.945   3.948  11.777  0.00  0.00    +0.000 NA
ATOM     28  C   UNL     1      44.727   3.100  12.355  0.00  0.00    +0.000 A 
ATOM     29  N   UNL     1      45.893   3.428  12.999  0.00  0.00    +0.000 N 
ATOM     30  C   UNL     1      46.367   4.716  13.076  0.00  0.00    +0.000 A 
ATOM     31  O   UNL     1      47.437   4.970  13.623  0.00  0.00    +0.000 OA
ATOM     32  C   UNL     1      45.516   5.711  12.451  0.00  0.00    +0.000 A 
ATOM     33  H   UNL     1      46.464   2.715  13.428  0.00  0.00    +0.000 HD
ENDBRANCH  20  23
ENDBRANCH  18  19
ENDBRANCH   4  18
TORSDOF 6
ENDMDL
MODEL 9
REMARK VINA RESULT:    -6.819      3.980      9.667
REMARK INTER + INTRA:         -10.267
REMARK INTER:                  -8.964
REMARK INTRA:                  -1.304
REMARK UNBOUND:                -1.056
REMARK  Name = 
REMARK  7 active torsions:
REMARK  status: ('A' for Active; 'I' for Inactive)
REMARK    1  A    between atoms: C_1  and  N_2
REMARK    2  A    between atoms: N_2  and  C_3
REMARK    3  A    between atoms: C_3  and  C_4
REMARK    4  A    between atoms: C_7  and  C_8
REMARK    5  A    between atoms: C_8  and  N_9
REMARK    6  A    between atoms: C_10  and  C_12
REMARK    7  A    between atoms: C_24  and  C_26
REMARK                            x       y       z     vdW  Elec       q    Type
REMARK                         _______ _______ _______ _____ _____    ______ ____
ROOT
ATOM      1  C   UNL     1      48.961   5.667  20.085  0.00  0.00    +0.000 A 
ATOM      2  C   UNL     1      49.715   4.672  19.442  0.00  0.00    +0.000 A 
ATOM      3  C   UNL     1      49.202   3.997  18.333  0.00  0.00    +0.000 A 
ATOM      4  C   UNL     1      47.930   4.314  17.843  0.00  0.00    +0.000 A 
ATOM      5  C   UNL     1      47.162   5.280  18.509  0.00  0.00    +0.000 A 
ATOM      6  C   UNL     1      47.676   5.959  19.615  0.00  0.00    +0.000 A 
ENDROOT
BRANCH   1   7
ATOM      7  C   UNL     1      49.532   6.394  21.275  0.00  0.00    +0.000 C 
BRANCH   7   9
ATOM      8  C   UNL     1      51.994   6.677  21.851  0.00  0.00    +0.000 C 
ATOM      9  N   UNL     1      50.806   7.106  21.118  0.00  0.00    +0.000 N 
ATOM     10  C   UNL     1      51.006   8.187  20.241  0.00  0.00    +0.000 C 
ATOM     11  O   UNL     1      52.118   8.693  20.081  0.00  0.00    +0.000 OA
BRANCH  10  12
ATOM     12  C   UNL     1      49.901   8.751  19.421  0.00  0.00    +0.000 A 
ATOM     13  C   UNL     1      48.872   9.559  19.903  0.00  0.00    +0.000 A 
ATOM     14  C   UNL     1      47.861   9.989  19.044  0.00  0.00    +0.000 A 
ATOM     15  C   UNL     1      47.948   9.654  17.705  0.00  0.00    +0.000 A 
ATOM     16  N   UNL     1      48.965   8.938  17.184  0.00  0.00    +0.000 NA
ATOM     17  C   UNL     1      49.922   8.511  18.050  0.00  0.00    +0.000 A 
ENDBRANCH  10  12
ENDBRANCH   7   9
ENDBRANCH   1   7
BRANCH   4  18
ATOM     18  C   UNL     1      47.373   3.602  16.640  0.00  0.00    +0.000 C 
BRANCH  18  19
ATOM     19  N   UNL     1      46.794   4.533  15.712  0.00  0.00    +0.000 N 
ATOM     20  C   UNL     1      46.784   4.273  14.367  0.00  0.00    +0.000 C 
ATOM     21  O   UNL     1      47.209   3.217  13.905  0.00  0.00    +0.000 OA
ATOM     22  H   UNL     1      46.646   5.482  16.041  0.00  0.00    +0.000 HD
BRANCH  20  23
ATOM     23  C   UNL     1      46.182   5.299  13.507  0.00  0.00    +0.000 A 
ATOM     24  C   UNL     1      46.898   6.451  13.213  0.00  0.00    +0.000 A 
ATOM     25  S   UNL     1      46.079   7.517  12.167  0.00  0.00    +0.000 S 
ATOM     26  C   UNL     1      44.716   6.499  12.110  0.00  0.00    +0.000 A 
ATOM     27  N   UNL     1      43.617   6.846  11.388  0.00  0.00    +0.000 NA
ATOM     28  C   UNL     1      42.645   6.000  11.453  0.00  0.00    +0.000 A 
ATOM     29  N   UNL     1      42.675   4.832  12.173  0.00  0.00    +0.000 N 
ATOM     30  C   UNL     1      43.772   4.427  12.893  0.00  0.00    +0.000 A 
ATOM     31  O   UNL     1      43.781   3.354  13.492  0.00  0.00    +0.000 OA
ATOM     32  C   UNL     1      44.890   5.352  12.862  0.00  0.00    +0.000 A 
ATOM     33  H   UNL     1      41.881   4.209  12.178  0.00  0.00    +0.000 HD
ENDBRANCH  20  23
ENDBRANCH  18  19
ENDBRANCH   4  18
TORSDOF 6
ENDMDL
