MODEL 1
REMARK VINA RESULT:    -7.547      0.000      0.000
REMARK INTER + INTRA:         -11.919
REMARK INTER:                 -11.077
REMARK INTRA:                  -0.842
REMARK UNBOUND:                -0.842
REMARK  Name = 
REMARK  11 active torsions:
REMARK  status: ('A' for Active; 'I' for Inactive)
REMARK    1  A    between atoms: C_1  and  O_2
REMARK    2  A    between atoms: O_2  and  C_3
REMARK    3  A    between atoms: C_6  and  O_7
REMARK    4  A    between atoms: O_7  and  C_8
REMARK    5  A    between atoms: C_8  and  C_9
REMARK    6  A    between atoms: C_9  and  C_10
REMARK    7  A    between atoms: C_9  and  C_11
REMARK    8  A    between atoms: C_9  and  C_12
REMARK    9  A    between atoms: C_15  and  C_16
REMARK   10  A    between atoms: C_22  and  N_23
REMARK   11  A    between atoms: N_23  and  C_24
REMARK                            x       y       z     vdW  Elec       q    Type
REMARK                         _______ _______ _______ _____ _____    ______ ____
ROOT
ATOM      1  O   UNL     1      45.866   5.802  11.575  0.00  0.00    +0.000 OA
ENDROOT
BRANCH   1   5
ATOM      2  C   UNL     1      48.968   7.005  14.080  0.00  0.00    +0.000 A 
ATOM      3  C   UNL     1      48.838   7.585  12.811  0.00  0.00    +0.000 A 
ATOM      4  C   UNL     1      47.798   7.226  11.963  0.00  0.00    +0.000 A 
ATOM      5  C   UNL     1      46.873   6.275  12.366  0.00  0.00    +0.000 A 
ATOM      6  C   UNL     1      46.965   5.717  13.650  0.00  0.00    +0.000 A 
ATOM      7  C   UNL     1      48.015   6.049  14.524  0.00  0.00    +0.000 A 
BRANCH   2   9
ATOM      8  C   UNL     1      50.096   8.684  15.329  0.00  0.00    +0.000 C 
ATOM      9  O   UNL     1      50.012   7.314  14.925  0.00  0.00    +0.000 OA
ENDBRANCH   2   9
BRANCH   7  10
ATOM     10  N   UNL     1      48.051   5.530  15.848  0.00  0.00    +0.000 N 
ATOM     11  H   UNL     1      48.868   5.845  16.369  0.00  0.00    +0.000 HD
BRANCH  10  12
ATOM     12  C   UNL     1      47.263   4.471  16.419  0.00  0.00    +0.000 C 
ATOM     13  C   UNL     1      47.170   4.531  17.961  0.00  0.00    +0.000 C 
ATOM     14  N   UNL     1      47.592   3.125  18.054  0.00  0.00    +0.000 NA
ATOM     15  C   UNL     1      47.974   3.121  16.630  0.00  0.00    +0.000 C 
ATOM     16  H   UNL     1      46.830   2.482  18.282  0.00  0.00    +0.000 HD
ENDBRANCH  10  12
ENDBRANCH   7  10
ENDBRANCH   1   5
BRANCH   1  17
ATOM     17  C   UNL     1      45.278   4.546  11.947  0.00  0.00    +0.000 C 
BRANCH  17  18
ATOM     18  C   UNL     1      44.301   4.035  10.858  0.00  0.00    +0.000 C 
ATOM     19  C   UNL     1      43.533   2.829  11.456  0.00  0.00    +0.000 C 
ATOM     20  C   UNL     1      43.282   5.143  10.527  0.00  0.00    +0.000 C 
BRANCH  18  21
ATOM     21  C   UNL     1      45.056   3.607   9.591  0.00  0.00    +0.000 A 
ATOM     22  C   UNL     1      45.287   2.264   9.297  0.00  0.00    +0.000 A 
ATOM     23  C   UNL     1      45.995   1.915   8.153  0.00  0.00    +0.000 A 
ATOM     24  C   UNL     1      46.491   2.902   7.312  0.00  0.00    +0.000 A 
ATOM     25  C   UNL     1      46.219   4.218   7.661  0.00  0.00    +0.000 A 
ATOM     26  N   UNL     1      45.521   4.584   8.768  0.00  0.00    +0.000 NA
BRANCH  24  27
ATOM     27  C   UNL     1      47.271   2.505   6.125  0.00  0.00    +0.000 C 
ATOM     28  N   UNL     1      48.628   2.394   6.208  0.00  0.00    +0.000 N 
ATOM     29  O   UNL     1      46.712   2.273   5.049  0.00  0.00    +0.000 OA
ATOM     30  H   UNL     1      49.185   2.527   7.036  0.00  0.00    +0.000 HD
ATOM     31  H   UNL     1      49.101   2.092   5.364  0.00  0.00    +0.000 HD
ENDBRANCH  24  27
ENDBRANCH  18  21
ENDBRANCH  17  18
ENDBRANCH   1  17
TORSDOF 8
ENDMDL
MODEL 2
REMARK VINA RESULT:    -7.301      3.091      8.093
REMARK INTER + INTRA:         -11.559
REMARK INTER:                 -10.525
REMARK INTRA:                  -1.033
REMARK UNBOUND:                -0.842
REMARK  Name = 
REMARK  11 active torsions:
REMARK  status: ('A' for Active; 'I' for Inactive)
REMARK    1  A    between atoms: C_1  and  O_2
REMARK    2  A    between atoms: O_2  and  C_3
REMARK    3  A    between atoms: C_6  and  O_7
REMARK    4  A    between atoms: O_7  and  C_8
REMARK    5  A    between atoms: C_8  and  C_9
REMARK    6  A    between atoms: C_9  and  C_10
REMARK    7  A    between atoms: C_9  and  C_11
REMARK    8  A    between atoms: C_9  and  C_12
REMARK    9  A    between atoms: C_15  and  C_16
REMARK   10  A    between atoms: C_22  and  N_23
REMARK   11  A    between atoms: N_23  and  C_24
REMARK                            x       y       z     vdW  Elec       q    Type
REMARK                         _______ _______ _______ _____ _____    ______ ____
ROOT
ATOM      1  O   UNL     1      47.844   4.922  14.470  0.00  0.00    +0.000 OA
ENDROOT
BRANCH   1   5
ATOM      2  C   UNL     1      45.110   6.975  12.093  0.00  0.00    +0.000 A 
ATOM      3  C   UNL     1      46.402   7.488  12.262  0.00  0.00    +0.000 A 
ATOM      4  C   UNL     1      47.345   6.814  13.025  0.00  0.00    +0.000 A 
ATOM      5  C   UNL     1      47.011   5.616  13.639  0.00  0.00    +0.000 A 
ATOM      6  C   UNL     1      45.735   5.067  13.444  0.00  0.00    +0.000 A 
ATOM      7  C   UNL     1      44.754   5.736  12.689  0.00  0.00    +0.000 A 
BRANCH   2   9
ATOM      8  C   UNL     1      44.373   9.041  11.175  0.00  0.00    +0.000 C 
ATOM      9  O   UNL     1      44.143   7.643  11.373  0.00  0.00    +0.000 OA
ENDBRANCH   2   9
BRANCH   7  10
ATOM     10  N   UNL     1      43.491   5.131  12.440  0.00  0.00    +0.000 N 
ATOM     11  H   UNL     1      42.844   5.241  13.218  0.00  0.00    +0.000 HD
BRANCH  10  12
ATOM     12  C   UNL     1      43.126   4.211  11.395  0.00  0.00    +0.000 C 
ATOM     13  C   UNL     1      43.343   2.728  11.772  0.00  0.00    +0.000 C 
ATOM     14  N   UNL     1      44.110   2.513  10.535  0.00  0.00    +0.000 NA
ATOM     15  C   UNL     1      44.177   3.966  10.296  0.00  0.00    +0.000 C 
ATOM     16  H   UNL     1      43.596   1.997   9.817  0.00  0.00    +0.000 HD
ENDBRANCH  10  12
ENDBRANCH   7  10
ENDBRANCH   1   5
BRANCH   1  17
ATOM     17  C   UNL     1      47.303   4.495  15.729  0.00  0.00    +0.000 C 
BRANCH  17  18
ATOM     18  C   UNL     1      48.206   4.931  16.910  0.00  0.00    +0.000 C 
ATOM     19  C   UNL     1      48.795   6.319  16.553  0.00  0.00    +0.000 C 
ATOM     20  C   UNL     1      47.347   5.081  18.181  0.00  0.00    +0.000 C 
BRANCH  18  21
ATOM     21  C   UNL     1      49.338   3.920  17.146  0.00  0.00    +0.000 A 
ATOM     22  C   UNL     1      50.530   4.291  17.768  0.00  0.00    +0.000 A 
ATOM     23  C   UNL     1      51.542   3.355  17.943  0.00  0.00    +0.000 A 
ATOM     24  C   UNL     1      51.378   2.055  17.482  0.00  0.00    +0.000 A 
ATOM     25  C   UNL     1      50.164   1.754  16.878  0.00  0.00    +0.000 A 
ATOM     26  N   UNL     1      49.156   2.647  16.705  0.00  0.00    +0.000 NA
BRANCH  24  27
ATOM     27  C   UNL     1      52.482   1.093  17.648  0.00  0.00    +0.000 C 
ATOM     28  N   UNL     1      52.271  -0.077  18.317  0.00  0.00    +0.000 N 
ATOM     29  O   UNL     1      53.604   1.331  17.191  0.00  0.00    +0.000 OA
ATOM     30  H   UNL     1      51.395  -0.391  18.702  0.00  0.00    +0.000 HD
ATOM     31  H   UNL     1      53.063  -0.706  18.373  0.00  0.00    +0.000 HD
ENDBRANCH  24  27
ENDBRANCH  18  21
ENDBRANCH  17  18
ENDBRANCH   1  17
TORSDOF 8
ENDMDL
MODEL 3
REMARK VINA RESULT:    -6.852      3.057      8.585
REMARK INTER + INTRA:         -10.898
REMARK INTER:                 -10.340
REMARK INTRA:                  -0.559
REMARK UNBOUND:                -0.842
REMARK  Name = 
REMARK  11 active torsions:
REMARK  status: ('A' for Active; 'I' for Inactive)
REMARK    1  A    between atoms: C_1  and  O_2
REMARK    2  A    between atoms: O_2  and  C_3
REMARK    3  A    between atoms: C_6  and  O_7
REMARK    4  A    between atoms: O_7  and  C_8
REMARK    5  A    between atoms: C_8  and  C_9
REMARK    6  A    between atoms: C_9  and  C_10
REMARK    7  A    between atoms: C_9  and  C_11
REMARK    8  A    between atoms: C_9  and  C_12
REMARK    9  A    between atoms: C_15  and  C_16
REMARK   10  A    between atoms: C_22  and  N_23
REMARK   11  A    between atoms: N_23  and  C_24
REMARK                            x       y       z     vdW  Elec       q    Type
REMARK                         _______ _______ _______ _____ _____    ______ ____
ROOT
ATOM      1  O   UNL     1      47.635   4.111  14.461  0.00  0.00    +0.000 OA
ENDROOT
BRANCH   1   5
ATOM      2  C   UNL     1      44.548   5.226  11.897  0.00  0.00    +0.000 A 
ATOM      3  C   UNL     1      45.172   6.196  12.692  0.00  0.00    +0.000 A 
ATOM      4  C   UNL     1      46.222   5.862  13.536  0.00  0.00    +0.000 A 
ATOM      5  C   UNL     1      46.664   4.549  13.605  0.00  0.00    +0.000 A 
ATOM      6  C   UNL     1      46.079   3.574  12.784  0.00  0.00    +0.000 A 
ATOM      7  C   UNL     1      45.003   3.881  11.931  0.00  0.00    +0.000 A 
BRANCH   2   9
ATOM      8  C   UNL     1      42.204   5.586  11.726  0.00  0.00    +0.000 C 
ATOM      9  O   UNL     1      43.479   5.523  11.079  0.00  0.00    +0.000 OA
ENDBRANCH   2   9
BRANCH   7  10
ATOM     10  N   UNL     1      44.470   2.898  11.051  0.00  0.00    +0.000 N 
ATOM     11  H   UNL     1      44.294   2.010  11.517  0.00  0.00    +0.000 HD
BRANCH  10  12
ATOM     12  C   UNL     1      44.402   2.922   9.614  0.00  0.00    +0.000 C 
ATOM     13  C   UNL     1      45.149   1.749   8.939  0.00  0.00    +0.000 C 
ATOM     14  N   UNL     1      45.877   2.692   8.078  0.00  0.00    +0.000 NA
ATOM     15  C   UNL     1      45.414   3.831   8.892  0.00  0.00    +0.000 C 
ATOM     16  H   UNL     1      45.543   2.709   7.111  0.00  0.00    +0.000 HD
ENDBRANCH  10  12
ENDBRANCH   7  10
ENDBRANCH   1   5
BRANCH   1  17
ATOM     17  C   UNL     1      47.256   3.911  15.831  0.00  0.00    +0.000 C 
BRANCH  17  18
ATOM     18  C   UNL     1      48.224   4.640  16.797  0.00  0.00    +0.000 C 
ATOM     19  C   UNL     1      48.660   5.957  16.107  0.00  0.00    +0.000 C 
ATOM     20  C   UNL     1      47.474   4.998  18.095  0.00  0.00    +0.000 C 
BRANCH  18  21
ATOM     21  C   UNL     1      49.453   3.773  17.111  0.00  0.00    +0.000 A 
ATOM     22  C   UNL     1      50.606   4.320  17.673  0.00  0.00    +0.000 A 
ATOM     23  C   UNL     1      51.708   3.510  17.921  0.00  0.00    +0.000 A 
ATOM     24  C   UNL     1      51.671   2.161  17.591  0.00  0.00    +0.000 A 
ATOM     25  C   UNL     1      50.489   1.683  17.041  0.00  0.00    +0.000 A 
ATOM     26  N   UNL     1      49.395   2.452  16.799  0.00  0.00    +0.000 NA
BRANCH  24  27
ATOM     27  C   UNL     1      52.867   1.333  17.831  0.00  0.00    +0.000 C 
ATOM     28  N   UNL     1      54.104   1.818  17.523  0.00  0.00    +0.000 N 
ATOM     29  O   UNL     1      52.766   0.197  18.305  0.00  0.00    +0.000 OA
ATOM     30  H   UNL     1      54.309   2.737  17.164  0.00  0.00    +0.000 HD
ATOM     31  H   UNL     1      54.886   1.210  17.737  0.00  0.00    +0.000 HD
ENDBRANCH  24  27
ENDBRANCH  18  21
ENDBRANCH  17  18
ENDBRANCH   1  17
TORSDOF 8
ENDMDL
MODEL 4
REMARK VINA RESULT:    -6.780      2.874      4.592
REMARK INTER + INTRA:         -10.793
REMARK INTER:                  -9.690
REMARK INTRA:                  -1.103
REMARK UNBOUND:                -0.842
REMARK  Name = 
REMARK  11 active torsions:
REMARK  status: ('A' for Active; 'I' for Inactive)
REMARK    1  A    between atoms: C_1  and  O_2
REMARK    2  A    between atoms: O_2  and  C_3
REMARK    3  A    between atoms: C_6  and  O_7
REMARK    4  A    between atoms: O_7  and  C_8
REMARK    5  A    between atoms: C_8  and  C_9
REMARK    6  A    between atoms: C_9  and  C_10
REMARK    7  A    between atoms: C_9  and  C_11
REMARK    8  A    between atoms: C_9  and  C_12
REMARK    9  A    between atoms: C_15  and  C_16
REMARK   10  A    between atoms: C_22  and  N_23
REMARK   11  A    between atoms: N_23  and  C_24
REMARK                            x       y       z     vdW  Elec       q    Type
REMARK                         _______ _______ _______ _____ _____    ______ ____
ROOT
ATOM      1  O   UNL     1      49.124   7.571  14.361  0.00  0.00    +0.000 OA
ENDROOT
BRANCH   1   5
ATOM      2  C   UNL     1      51.441   5.779  17.321  0.00  0.00    +0.000 A 
ATOM      3  C   UNL     1      52.004   6.770  16.507  0.00  0.00    +0.000 A 
ATOM      4  C   UNL     1      51.250   7.407  15.530  0.00  0.00    +0.000 A 
ATOM      5  C   UNL     1      49.921   7.059  15.344  0.00  0.00    +0.000 A 
ATOM      6  C   UNL     1      49.331   6.098  16.179  0.00  0.00    +0.000 A 
ATOM      7  C   UNL     1      50.073   5.426  17.166  0.00  0.00    +0.000 A 
BRANCH   2   9
ATOM      8  C   UNL     1      53.299   4.367  17.778  0.00  0.00    +0.000 C 
ATOM      9  O   UNL     1      52.176   5.104  18.271  0.00  0.00    +0.000 OA
ENDBRANCH   2   9
BRANCH   7  10
ATOM     10  N   UNL     1      49.442   4.509  18.053  0.00  0.00    +0.000 N 
ATOM     11  H   UNL     1      49.360   4.875  19.000  0.00  0.00    +0.000 HD
BRANCH  10  12
ATOM     12  C   UNL     1      49.160   3.113  17.850  0.00  0.00    +0.000 C 
ATOM     13  C   UNL     1      50.305   2.346  17.148  0.00  0.00    +0.000 C 
ATOM     14  N   UNL     1      49.358   1.814  16.157  0.00  0.00    +0.000 NA
ATOM     15  C   UNL     1      48.316   2.753  16.613  0.00  0.00    +0.000 C 
ATOM     16  H   UNL     1      49.122   0.830  16.301  0.00  0.00    +0.000 HD
ENDBRANCH  10  12
ENDBRANCH   7  10
ENDBRANCH   1   5
BRANCH   1  17
ATOM     17  C   UNL     1      47.853   6.938  14.153  0.00  0.00    +0.000 C 
BRANCH  17  18
ATOM     18  C   UNL     1      47.283   7.262  12.750  0.00  0.00    +0.000 C 
ATOM     19  C   UNL     1      46.390   8.521  12.893  0.00  0.00    +0.000 C 
ATOM     20  C   UNL     1      48.443   7.598  11.792  0.00  0.00    +0.000 C 
BRANCH  18  21
ATOM     21  C   UNL     1      46.460   6.088  12.199  0.00  0.00    +0.000 A 
ATOM     22  C   UNL     1      45.926   6.111  10.911  0.00  0.00    +0.000 A 
ATOM     23  C   UNL     1      45.166   5.041  10.455  0.00  0.00    +0.000 A 
ATOM     24  C   UNL     1      44.918   3.957  11.287  0.00  0.00    +0.000 A 
ATOM     25  C   UNL     1      45.485   3.997  12.554  0.00  0.00    +0.000 A 
ATOM     26  N   UNL     1      46.240   5.027  13.019  0.00  0.00    +0.000 NA
BRANCH  24  27
ATOM     27  C   UNL     1      44.077   2.852  10.791  0.00  0.00    +0.000 C 
ATOM     28  N   UNL     1      44.489   2.110   9.723  0.00  0.00    +0.000 N 
ATOM     29  O   UNL     1      42.997   2.588  11.327  0.00  0.00    +0.000 OA
ATOM     30  H   UNL     1      45.361   2.212   9.230  0.00  0.00    +0.000 HD
ATOM     31  H   UNL     1      43.878   1.349   9.449  0.00  0.00    +0.000 HD
ENDBRANCH  24  27
ENDBRANCH  18  21
ENDBRANCH  17  18
ENDBRANCH   1  17
TORSDOF 8
ENDMDL
MODEL 5
REMARK VINA RESULT:    -6.712      1.766      2.176
REMARK INTER + INTRA:         -10.694
REMARK INTER:                  -9.535
REMARK INTRA:                  -1.159
REMARK UNBOUND:                -0.842
REMARK  Name = 
REMARK  11 active torsions:
REMARK  status: ('A' for Active; 'I' for Inactive)
REMARK    1  A    between atoms: C_1  and  O_2
REMARK    2  A    between atoms: O_2  and  C_3
REMARK    3  A    between atoms: C_6  and  O_7
REMARK    4  A    between atoms: O_7  and  C_8
REMARK    5  A    between atoms: C_8  and  C_9
REMARK    6  A    between atoms: C_9  and  C_10
REMARK    7  A    between atoms: C_9  and  C_11
REMARK    8  A    between atoms: C_9  and  C_12
REMARK    9  A    between atoms: C_15  and  C_16
REMARK   10  A    between atoms: C_22  and  N_23
REMARK   11  A    between atoms: N_23  and  C_24
REMARK                            x       y       z     vdW  Elec       q    Type
REMARK                         _______ _______ _______ _____ _____    ______ ____
ROOT
ATOM      1  O   UNL     1      45.277   5.763  12.558  0.00  0.00    +0.000 OA
ENDROOT
BRANCH   1   5
ATOM      2  C   UNL     1      49.113   7.367  12.794  0.00  0.00    +0.000 A 
ATOM      3  C   UNL     1      48.380   7.496  11.607  0.00  0.00    +0.000 A 
ATOM      4  C   UNL     1      47.089   6.998  11.505  0.00  0.00    +0.000 A 
ATOM      5  C   UNL     1      46.508   6.354  12.588  0.00  0.00    +0.000 A 
ATOM      6  C   UNL     1      47.212   6.254  13.798  0.00  0.00    +0.000 A 
ATOM      7  C   UNL     1      48.527   6.736  13.925  0.00  0.00    +0.000 A 
BRANCH   2   9
ATOM      8  C   UNL     1      50.661   9.123  12.378  0.00  0.00    +0.000 C 
ATOM      9  O   UNL     1      50.410   7.819  12.910  0.00  0.00    +0.000 OA
ENDBRANCH   2   9
BRANCH   7  10
ATOM     10  N   UNL     1      49.199   6.694  15.178  0.00  0.00    +0.000 N 
ATOM     11  H   UNL     1      49.986   6.048  15.178  0.00  0.00    +0.000 HD
BRANCH  10  12
ATOM     12  C   UNL     1      48.769   7.222  16.446  0.00  0.00    +0.000 C 
ATOM     13  C   UNL     1      49.428   8.572  16.809  0.00  0.00    +0.000 C 
ATOM     14  N   UNL     1      49.825   8.040  18.121  0.00  0.00    +0.000 NA
ATOM     15  C   UNL     1      49.477   6.671  17.697  0.00  0.00    +0.000 C 
ATOM     16  H   UNL     1      49.259   8.392  18.896  0.00  0.00    +0.000 HD
ENDBRANCH  10  12
ENDBRANCH   7  10
ENDBRANCH   1   5
BRANCH   1  17
ATOM     17  C   UNL     1      45.235   4.353  12.293  0.00  0.00    +0.000 C 
BRANCH  17  18
ATOM     18  C   UNL     1      44.263   4.024  11.133  0.00  0.00    +0.000 C 
ATOM     19  C   UNL     1      43.350   2.866  11.610  0.00  0.00    +0.000 C 
ATOM     20  C   UNL     1      43.376   5.253  10.847  0.00  0.00    +0.000 C 
BRANCH  18  21
ATOM     21  C   UNL     1      45.027   3.610   9.867  0.00  0.00    +0.000 A 
ATOM     22  C   UNL     1      45.513   4.557   8.966  0.00  0.00    +0.000 A 
ATOM     23  C   UNL     1      46.179   4.144   7.818  0.00  0.00    +0.000 A 
ATOM     24  C   UNL     1      46.343   2.790   7.555  0.00  0.00    +0.000 A 
ATOM     25  C   UNL     1      45.839   1.904   8.498  0.00  0.00    +0.000 A 
ATOM     26  N   UNL     1      45.195   2.282   9.632  0.00  0.00    +0.000 NA
BRANCH  24  27
ATOM     27  C   UNL     1      47.021   2.380   6.311  0.00  0.00    +0.000 C 
ATOM     28  N   UNL     1      47.824   1.278   6.305  0.00  0.00    +0.000 N 
ATOM     29  O   UNL     1      46.874   3.025   5.269  0.00  0.00    +0.000 OA
ATOM     30  H   UNL     1      47.991   0.660   7.083  0.00  0.00    +0.000 HD
ATOM     31  H   UNL     1      48.238   1.035   5.413  0.00  0.00    +0.000 HD
ENDBRANCH  24  27
ENDBRANCH  18  21
ENDBRANCH  17  18
ENDBRANCH   1  17
TORSDOF 8
ENDMDL
MODEL 6
REMARK VINA RESULT:    -6.709      3.362      8.485
REMARK INTER + INTRA:         -10.688
REMARK INTER:                  -9.762
REMARK INTRA:                  -0.926
REMARK UNBOUND:                -0.842
REMARK  Name = 
REMARK  11 active torsions:
REMARK  status: ('A' for Active; 'I' for Inactive)
REMARK    1  A    between atoms: C_1  and  O_2
REMARK    2  A    between atoms: O_2  and  C_3
REMARK    3  A    between atoms: C_6  and  O_7
REMARK    4  A    between atoms: O_7  and  C_8
REMARK    5  A    between atoms: C_8  and  C_9
REMARK    6  A    between atoms: C_9  and  C_10
REMARK    7  A    between atoms: C_9  and  C_11
REMARK    8  A    between atoms: C_9  and  C_12
REMARK    9  A    between atoms: C_15  and  C_16
REMARK   10  A    between atoms: C_22  and  N_23
REMARK   11  A    between atoms: N_23  and  C_24
REMARK                            x       y       z     vdW  Elec       q    Type
REMARK                         _______ _______ _______ _____ _____    ______ ____
ROOT
ATOM      1  O   UNL     1      47.770   4.507  14.693  0.00  0.00    +0.000 OA
ENDROOT
BRANCH   1   5
ATOM      2  C   UNL     1      44.960   5.041  11.666  0.00  0.00    +0.000 A 
ATOM      3  C   UNL     1      45.283   3.745  12.091  0.00  0.00    +0.000 A 
ATOM      4  C   UNL     1      46.194   3.535  13.116  0.00  0.00    +0.000 A 
ATOM      5  C   UNL     1      46.805   4.616  13.732  0.00  0.00    +0.000 A 
ATOM      6  C   UNL     1      46.461   5.921  13.348  0.00  0.00    +0.000 A 
ATOM      7  C   UNL     1      45.553   6.164  12.302  0.00  0.00    +0.000 A 
BRANCH   2   9
ATOM      8  C   UNL     1      44.059   4.276   9.603  0.00  0.00    +0.000 C 
ATOM      9  O   UNL     1      44.088   5.277  10.625  0.00  0.00    +0.000 OA
ENDBRANCH   2   9
BRANCH   7  10
ATOM     10  N   UNL     1      45.159   7.492  11.975  0.00  0.00    +0.000 N 
ATOM     11  H   UNL     1      44.826   7.576  11.016  0.00  0.00    +0.000 HD
BRANCH  10  12
ATOM     12  C   UNL     1      45.407   8.707  12.704  0.00  0.00    +0.000 C 
ATOM     13  C   UNL     1      44.714   9.947  12.093  0.00  0.00    +0.000 C 
ATOM     14  N   UNL     1      45.990  10.679  12.101  0.00  0.00    +0.000 NA
ATOM     15  C   UNL     1      46.728   9.437  12.397  0.00  0.00    +0.000 C 
ATOM     16  H   UNL     1      46.054  11.387  12.836  0.00  0.00    +0.000 HD
ENDBRANCH  10  12
ENDBRANCH   7  10
ENDBRANCH   1   5
BRANCH   1  17
ATOM     17  C   UNL     1      47.329   4.270  16.038  0.00  0.00    +0.000 C 
BRANCH  17  18
ATOM     18  C   UNL     1      48.325   4.853  17.071  0.00  0.00    +0.000 C 
ATOM     19  C   UNL     1      48.811   6.219  16.525  0.00  0.00    +0.000 C 
ATOM     20  C   UNL     1      47.592   5.097  18.405  0.00  0.00    +0.000 C 
BRANCH  18  21
ATOM     21  C   UNL     1      49.520   3.912  17.283  0.00  0.00    +0.000 A 
ATOM     22  C   UNL     1      50.716   4.364  17.842  0.00  0.00    +0.000 A 
ATOM     23  C   UNL     1      51.784   3.489  17.996  0.00  0.00    +0.000 A 
ATOM     24  C   UNL     1      51.673   2.170  17.576  0.00  0.00    +0.000 A 
ATOM     25  C   UNL     1      50.453   1.786  17.035  0.00  0.00    +0.000 A 
ATOM     26  N   UNL     1      49.390   2.619  16.883  0.00  0.00    +0.000 NA
BRANCH  24  27
ATOM     27  C   UNL     1      52.835   1.273  17.718  0.00  0.00    +0.000 C 
ATOM     28  N   UNL     1      52.660  -0.001  18.170  0.00  0.00    +0.000 N 
ATOM     29  O   UNL     1      53.972   1.662  17.436  0.00  0.00    +0.000 OA
ATOM     30  H   UNL     1      51.780  -0.435  18.398  0.00  0.00    +0.000 HD
ATOM     31  H   UNL     1      53.494  -0.574  18.219  0.00  0.00    +0.000 HD
ENDBRANCH  24  27
ENDBRANCH  18  21
ENDBRANCH  17  18
ENDBRANCH   1  17
TORSDOF 8
ENDMDL
MODEL 7
REMARK VINA RESULT:    -6.691      2.436      4.045
REMARK INTER + INTRA:         -10.663
REMARK INTER:                  -9.730
REMARK INTRA:                  -0.933
REMARK UNBOUND:                -0.842
REMARK  Name = 
REMARK  11 active torsions:
REMARK  status: ('A' for Active; 'I' for Inactive)
REMARK    1  A    between atoms: C_1  and  O_2
REMARK    2  A    between atoms: O_2  and  C_3
REMARK    3  A    between atoms: C_6  and  O_7
REMARK    4  A    between atoms: O_7  and  C_8
REMARK    5  A    between atoms: C_8  and  C_9
REMARK    6  A    between atoms: C_9  and  C_10
REMARK    7  A    between atoms: C_9  and  C_11
REMARK    8  A    between atoms: C_9  and  C_12
REMARK    9  A    between atoms: C_15  and  C_16
REMARK   10  A    between atoms: C_22  and  N_23
REMARK   11  A    between atoms: N_23  and  C_24
REMARK                            x       y       z     vdW  Elec       q    Type
REMARK                         _______ _______ _______ _____ _____    ______ ____
ROOT
ATOM      1  O   UNL     1      45.207   5.935  12.183  0.00  0.00    +0.000 OA
ENDROOT
BRANCH   1   5
ATOM      2  C   UNL     1      48.296   7.846  14.219  0.00  0.00    +0.000 A 
ATOM      3  C   UNL     1      48.185   6.450  14.280  0.00  0.00    +0.000 A 
ATOM      4  C   UNL     1      47.184   5.781  13.590  0.00  0.00    +0.000 A 
ATOM      5  C   UNL     1      46.270   6.496  12.830  0.00  0.00    +0.000 A 
ATOM      6  C   UNL     1      46.393   7.889  12.724  0.00  0.00    +0.000 A 
ATOM      7  C   UNL     1      47.388   8.595  13.424  0.00  0.00    +0.000 A 
BRANCH   2   9
ATOM      8  C   UNL     1      50.572   7.976  14.894  0.00  0.00    +0.000 C 
ATOM      9  O   UNL     1      49.257   8.538  14.924  0.00  0.00    +0.000 OA
ENDBRANCH   2   9
BRANCH   7  10
ATOM     10  N   UNL     1      47.545   9.998  13.246  0.00  0.00    +0.000 N 
ATOM     11  H   UNL     1      47.618  10.498  14.130  0.00  0.00    +0.000 HD
BRANCH  10  12
ATOM     12  C   UNL     1      47.361  10.778  12.052  0.00  0.00    +0.000 C 
ATOM     13  C   UNL     1      48.652  10.949  11.219  0.00  0.00    +0.000 C 
ATOM     14  N   UNL     1      48.454  12.405  11.187  0.00  0.00    +0.000 NA
ATOM     15  C   UNL     1      47.402  12.309  12.216  0.00  0.00    +0.000 C 
ATOM     16  H   UNL     1      48.123  12.757  10.285  0.00  0.00    +0.000 HD
ENDBRANCH  10  12
ENDBRANCH   7  10
ENDBRANCH   1   5
BRANCH   1  17
ATOM     17  C   UNL     1      45.195   4.504  12.063  0.00  0.00    +0.000 C 
BRANCH  17  18
ATOM     18  C   UNL     1      44.236   4.039  10.939  0.00  0.00    +0.000 C 
ATOM     19  C   UNL     1      43.449   2.818  11.480  0.00  0.00    +0.000 C 
ATOM     20  C   UNL     1      43.229   5.165  10.629  0.00  0.00    +0.000 C 
BRANCH  18  21
ATOM     21  C   UNL     1      45.010   3.651   9.671  0.00  0.00    +0.000 A 
ATOM     22  C   UNL     1      45.243   2.317   9.337  0.00  0.00    +0.000 A 
ATOM     23  C   UNL     1      45.969   2.004   8.194  0.00  0.00    +0.000 A 
ATOM     24  C   UNL     1      46.482   3.017   7.394  0.00  0.00    +0.000 A 
ATOM     25  C   UNL     1      46.207   4.322   7.783  0.00  0.00    +0.000 A 
ATOM     26  N   UNL     1      45.491   4.653   8.889  0.00  0.00    +0.000 NA
BRANCH  24  27
ATOM     27  C   UNL     1      47.280   2.657   6.208  0.00  0.00    +0.000 C 
ATOM     28  N   UNL     1      48.637   2.558   6.305  0.00  0.00    +0.000 N 
ATOM     29  O   UNL     1      46.737   2.447   5.119  0.00  0.00    +0.000 OA
ATOM     30  H   UNL     1      49.182   2.674   7.144  0.00  0.00    +0.000 HD
ATOM     31  H   UNL     1      49.124   2.281   5.461  0.00  0.00    +0.000 HD
ENDBRANCH  24  27
ENDBRANCH  18  21
ENDBRANCH  17  18
ENDBRANCH   1  17
TORSDOF 8
ENDMDL
MODEL 8
REMARK VINA RESULT:    -6.635      3.594      7.888
REMARK INTER + INTRA:         -10.580
REMARK INTER:                  -9.527
REMARK INTRA:                  -1.054
REMARK UNBOUND:                -0.842
REMARK  Name = 
REMARK  11 active torsions:
REMARK  status: ('A' for Active; 'I' for Inactive)
REMARK    1  A    between atoms: C_1  and  O_2
REMARK    2  A    between atoms: O_2  and  C_3
REMARK    3  A    between atoms: C_6  and  O_7
REMARK    4  A    between atoms: O_7  and  C_8
REMARK    5  A    between atoms: C_8  and  C_9
REMARK    6  A    between atoms: C_9  and  C_10
REMARK    7  A    between atoms: C_9  and  C_11
REMARK    8  A    between atoms: C_9  and  C_12
REMARK    9  A    between atoms: C_15  and  C_16
REMARK   10  A    between atoms: C_22  and  N_23
REMARK   11  A    between atoms: N_23  and  C_24
REMARK                            x       y       z     vdW  Elec       q    Type
REMARK                         _______ _______ _______ _____ _____    ______ ____
ROOT
ATOM      1  O   UNL     1      47.680   9.169  12.691  0.00  0.00    +0.000 OA
ENDROOT
BRANCH   1   5
ATOM      2  C   UNL     1      43.850   9.543  11.099  0.00  0.00    +0.000 A 
ATOM      3  C   UNL     1      44.647  10.684  11.262  0.00  0.00    +0.000 A 
ATOM      4  C   UNL     1      45.937  10.590  11.763  0.00  0.00    +0.000 A 
ATOM      5  C   UNL     1      46.454   9.352  12.118  0.00  0.00    +0.000 A 
ATOM      6  C   UNL     1      45.684   8.195  11.921  0.00  0.00    +0.000 A 
ATOM      7  C   UNL     1      44.369   8.262  11.429  0.00  0.00    +0.000 A 
BRANCH   2   9
ATOM      8  C   UNL     1      41.902  10.876  10.810  0.00  0.00    +0.000 C 
ATOM      9  O   UNL     1      42.552   9.613  10.640  0.00  0.00    +0.000 OA
ENDBRANCH   2   9
BRANCH   7  10
ATOM     10  N   UNL     1      43.630   7.075  11.166  0.00  0.00    +0.000 N 
ATOM     11  H   UNL     1      42.699   7.267  10.800  0.00  0.00    +0.000 HD
BRANCH  10  12
ATOM     12  C   UNL     1      43.921   5.727  11.574  0.00  0.00    +0.000 C 
ATOM     13  C   UNL     1      43.603   4.670  10.492  0.00  0.00    +0.000 C 
ATOM     14  N   UNL     1      42.814   3.896  11.461  0.00  0.00    +0.000 NA
ATOM     15  C   UNL     1      42.847   5.016  12.419  0.00  0.00    +0.000 C 
ATOM     16  H   UNL     1      43.285   3.051  11.794  0.00  0.00    +0.000 HD
ENDBRANCH  10  12
ENDBRANCH   7  10
ENDBRANCH   1   5
BRANCH   1  17
ATOM     17  C   UNL     1      47.707   8.582  14.001  0.00  0.00    +0.000 C 
BRANCH  17  18
ATOM     18  C   UNL     1      48.861   7.557  14.137  0.00  0.00    +0.000 C 
ATOM     19  C   UNL     1      49.095   6.936  12.736  0.00  0.00    +0.000 C 
ATOM     20  C   UNL     1      50.148   8.291  14.562  0.00  0.00    +0.000 C 
BRANCH  18  21
ATOM     21  C   UNL     1      48.512   6.458  15.152  0.00  0.00    +0.000 A 
ATOM     22  C   UNL     1      49.036   6.466  16.444  0.00  0.00    +0.000 A 
ATOM     23  C   UNL     1      48.718   5.442  17.328  0.00  0.00    +0.000 A 
ATOM     24  C   UNL     1      47.895   4.399  16.922  0.00  0.00    +0.000 A 
ATOM     25  C   UNL     1      47.404   4.459  15.624  0.00  0.00    +0.000 A 
ATOM     26  N   UNL     1      47.692   5.454  14.745  0.00  0.00    +0.000 NA
BRANCH  24  27
ATOM     27  C   UNL     1      47.604   3.307  17.868  0.00  0.00    +0.000 C 
ATOM     28  N   UNL     1      48.356   3.166  18.997  0.00  0.00    +0.000 N 
ATOM     29  O   UNL     1      46.686   2.510  17.652  0.00  0.00    +0.000 OA
ATOM     30  H   UNL     1      49.105   3.772  19.292  0.00  0.00    +0.000 HD
ATOM     31  H   UNL     1      48.088   2.412  19.618  0.00  0.00    +0.000 HD
ENDBRANCH  24  27
ENDBRANCH  18  21
ENDBRANCH  17  18
ENDBRANCH   1  17
TORSDOF 8
ENDMDL
MODEL 9
REMARK VINA RESULT:    -6.576      3.246      5.167
REMARK INTER + INTRA:         -10.494
REMARK INTER:                  -9.254
REMARK INTRA:                  -1.240
REMARK UNBOUND:                -0.842
REMARK  Name = 
REMARK  11 active torsions:
REMARK  status: ('A' for Active; 'I' for Inactive)
REMARK    1  A    between atoms: C_1  and  O_2
REMARK    2  A    between atoms: O_2  and  C_3
REMARK    3  A    between atoms: C_6  and  O_7
REMARK    4  A    between atoms: O_7  and  C_8
REMARK    5  A    between atoms: C_8  and  C_9
REMARK    6  A    between atoms: C_9  and  C_10
REMARK    7  A    between atoms: C_9  and  C_11
REMARK    8  A    between atoms: C_9  and  C_12
REMARK    9  A    between atoms: C_15  and  C_16
REMARK   10  A    between atoms: C_22  and  N_23
REMARK   11  A    between atoms: N_23  and  C_24
REMARK                            x       y       z     vdW  Elec       q    Type
REMARK                         _______ _______ _______ _____ _____    ______ ____
ROOT
ATOM      1  O   UNL     1      48.904   8.057  14.972  0.00  0.00    +0.000 OA
ENDROOT
BRANCH   1   5
ATOM      2  C   UNL     1      49.143   6.380  18.776  0.00  0.00    +0.000 A 
ATOM      3  C   UNL     1      48.472   7.597  18.596  0.00  0.00    +0.000 A 
ATOM      4  C   UNL     1      48.351   8.168  17.337  0.00  0.00    +0.000 A 
ATOM      5  C   UNL     1      48.904   7.536  16.234  0.00  0.00    +0.000 A 
ATOM      6  C   UNL     1      49.541   6.296  16.390  0.00  0.00    +0.000 A 
ATOM      7  C   UNL     1      49.693   5.701  17.655  0.00  0.00    +0.000 A 
BRANCH   2   9
ATOM      8  C   UNL     1      48.112   5.585  20.765  0.00  0.00    +0.000 C 
ATOM      9  O   UNL     1      49.312   5.810  20.020  0.00  0.00    +0.000 OA
ENDBRANCH   2   9
BRANCH   7  10
ATOM     10  N   UNL     1      50.275   4.410  17.787  0.00  0.00    +0.000 N 
ATOM     11  H   UNL     1      51.291   4.430  17.716  0.00  0.00    +0.000 HD
BRANCH  10  12
ATOM     12  C   UNL     1      49.629   3.125  17.746  0.00  0.00    +0.000 C 
ATOM     13  C   UNL     1      50.457   2.039  17.022  0.00  0.00    +0.000 C 
ATOM     14  N   UNL     1      49.302   1.704  16.175  0.00  0.00    +0.000 NA
ATOM     15  C   UNL     1      48.589   2.913  16.630  0.00  0.00    +0.000 C 
ATOM     16  H   UNL     1      48.842   0.828  16.434  0.00  0.00    +0.000 HD
ENDBRANCH  10  12
ENDBRANCH   7  10
ENDBRANCH   1   5
BRANCH   1  17
ATOM     17  C   UNL     1      49.009   7.130  13.881  0.00  0.00    +0.000 C 
BRANCH  17  18
ATOM     18  C   UNL     1      48.076   7.525  12.710  0.00  0.00    +0.000 C 
ATOM     19  C   UNL     1      47.467   8.909  13.052  0.00  0.00    +0.000 C 
ATOM     20  C   UNL     1      48.908   7.668  11.420  0.00  0.00    +0.000 C 
BRANCH  18  21
ATOM     21  C   UNL     1      46.960   6.489  12.514  0.00  0.00    +0.000 A 
ATOM     22  C   UNL     1      46.695   5.511  13.472  0.00  0.00    +0.000 A 
ATOM     23  C   UNL     1      45.694   4.573  13.249  0.00  0.00    +0.000 A 
ATOM     24  C   UNL     1      44.968   4.596  12.065  0.00  0.00    +0.000 A 
ATOM     25  C   UNL     1      45.280   5.600  11.158  0.00  0.00    +0.000 A 
ATOM     26  N   UNL     1      46.247   6.534  11.357  0.00  0.00    +0.000 NA
BRANCH  24  27
ATOM     27  C   UNL     1      43.936   3.567  11.839  0.00  0.00    +0.000 C 
ATOM     28  N   UNL     1      43.982   2.393  12.532  0.00  0.00    +0.000 N 
ATOM     29  O   UNL     1      43.028   3.750  11.023  0.00  0.00    +0.000 OA
ATOM     30  H   UNL     1      44.653   2.148  13.242  0.00  0.00    +0.000 HD
ATOM     31  H   UNL     1      43.229   1.740  12.350  0.00  0.00    +0.000 HD
ENDBRANCH  24  27
ENDBRANCH  18  21
ENDBRANCH  17  18
ENDBRANCH   1  17
TORSDOF 8
ENDMDL
