MODEL 1
REMARK VINA RESULT:    -8.481      0.000      0.000
REMARK INTER + INTRA:         -13.055
REMARK INTER:                 -11.951
REMARK INTRA:                  -1.104
REMARK UNBOUND:                -1.104
REMARK  Name = 
REMARK  8 active torsions:
REMARK  status: ('A' for Active; 'I' for Inactive)
REMARK    1  A    between atoms: C_1  and  C_2
REMARK    2  A    between atoms: C_5  and  C_6
REMARK    3  A    between atoms: C_10  and  C_11
REMARK    4  A    between atoms: C_11  and  C_12
REMARK    5  A    between atoms: C_12  and  N_13
REMARK    6  A    between atoms: N_13  and  C_14
REMARK    7  A    between atoms: C_17  and  C_18
REMARK    8  A    between atoms: C_25  and  C_26
REMARK                            x       y       z     vdW  Elec       q    Type
REMARK                         _______ _______ _______ _____ _____    ______ ____
ROOT
ATOM      1  C   UNL     1      45.950   7.005  12.626  0.00  0.00    +0.000 A 
ATOM      2  C   UNL     1      47.141   6.447  13.126  0.00  0.00    +0.000 A 
ATOM      3  C   UNL     1      47.216   5.106  13.490  0.00  0.00    +0.000 A 
ATOM      4  C   UNL     1      46.094   4.291  13.376  0.00  0.00    +0.000 A 
ATOM      5  C   UNL     1      44.878   4.801  12.903  0.00  0.00    +0.000 A 
ATOM      6  C   UNL     1      44.829   6.155  12.523  0.00  0.00    +0.000 A 
ENDROOT
BRANCH   1  11
ATOM      7  C   UNL     1      45.721  12.516  11.193  0.00  0.00    +0.000 C 
ATOM      8  C   UNL     1      45.746  11.065  11.539  0.00  0.00    +0.000 A 
ATOM      9  C   UNL     1      46.909  10.458  11.961  0.00  0.00    +0.000 A 
ATOM     10  N   UNL     1      47.007   9.160  12.308  0.00  0.00    +0.000 NA
ATOM     11  C   UNL     1      45.886   8.425  12.229  0.00  0.00    +0.000 A 
ATOM     12  N   UNL     1      44.699   8.902  11.823  0.00  0.00    +0.000 NA
ATOM     13  C   UNL     1      44.654  10.217  11.487  0.00  0.00    +0.000 A 
BRANCH  13  14
ATOM     14  C   UNL     1      43.285  10.688  11.060  0.00  0.00    +0.000 C 
ATOM     15  N   UNL     1      42.457  11.067  12.085  0.00  0.00    +0.000 N 
ATOM     16  O   UNL     1      42.913  10.743   9.900  0.00  0.00    +0.000 OA
ATOM     17  H   UNL     1      42.787  11.028  13.041  0.00  0.00    +0.000 HD
ATOM     18  H   UNL     1      41.533  11.413  11.872  0.00  0.00    +0.000 HD
ENDBRANCH  13  14
ENDBRANCH   1  11
BRANCH   5  19
ATOM     19  C   UNL     1      43.610   3.970  12.801  0.00  0.00    +0.000 C 
BRANCH  19  20
ATOM     20  C   UNL     1      43.547   3.064  11.567  0.00  0.00    +0.000 C 
BRANCH  20  21
ATOM     21  N   UNL     1      43.657   3.799  10.312  0.00  0.00    +0.000 N 
ATOM     22  H   UNL     1      43.508   4.802  10.354  0.00  0.00    +0.000 HD
BRANCH  21  23
ATOM     23  C   UNL     1      44.565   3.358   9.347  0.00  0.00    +0.000 A 
ATOM     24  C   UNL     1      45.309   4.231   8.541  0.00  0.00    +0.000 A 
ATOM     25  C   UNL     1      46.278   3.760   7.650  0.00  0.00    +0.000 A 
ATOM     26  C   UNL     1      46.549   2.394   7.567  0.00  0.00    +0.000 A 
ATOM     27  C   UNL     1      45.828   1.506   8.369  0.00  0.00    +0.000 A 
ATOM     28  C   UNL     1      44.853   1.990   9.255  0.00  0.00    +0.000 A 
BRANCH  26  29
ATOM     29  C   UNL     1      47.589   1.946   6.604  0.00  0.00    +0.000 C 
ATOM     30  N   UNL     1      48.672   2.757   6.421  0.00  0.00    +0.000 N 
ATOM     31  O   UNL     1      47.466   0.908   5.962  0.00  0.00    +0.000 OA
ATOM     32  H   UNL     1      48.697   3.714   6.739  0.00  0.00    +0.000 HD
ATOM     33  H   UNL     1      49.307   2.487   5.681  0.00  0.00    +0.000 HD
ENDBRANCH  26  29
ENDBRANCH  21  23
ENDBRANCH  20  21
ENDBRANCH  19  20
ENDBRANCH   5  19
TORSDOF 7
ENDMDL
MODEL 2
REMARK VINA RESULT:    -8.430      3.608      5.591
REMARK INTER + INTRA:         -12.984
REMARK INTER:                 -11.941
REMARK INTRA:                  -1.043
REMARK UNBOUND:                -1.104
REMARK  Name = 
REMARK  8 active torsions:
REMARK  status: ('A' for Active; 'I' for Inactive)
REMARK    1  A    between atoms: C_1  and  C_2
REMARK    2  A    between atoms: C_5  and  C_6
REMARK    3  A    between atoms: C_10  and  C_11
REMARK    4  A    between atoms: C_11  and  C_12
REMARK    5  A    between atoms: C_12  and  N_13
REMARK    6  A    between atoms: N_13  and  C_14
REMARK    7  A    between atoms: C_17  and  C_18
REMARK    8  A    between atoms: C_25  and  C_26
REMARK                            x       y       z     vdW  Elec       q    Type
REMARK                         _______ _______ _______ _____ _____    ______ ____
ROOT
ATOM      1  C   UNL     1      46.847   5.520  13.791  0.00  0.00    +0.000 A 
ATOM      2  C   UNL     1      47.594   6.278  12.870  0.00  0.00    +0.000 A 
ATOM      3  C   UNL     1      47.019   6.774  11.705  0.00  0.00    +0.000 A 
ATOM      4  C   UNL     1      45.681   6.512  11.423  0.00  0.00    +0.000 A 
ATOM      5  C   UNL     1      44.898   5.745  12.295  0.00  0.00    +0.000 A 
ATOM      6  C   UNL     1      45.495   5.268  13.477  0.00  0.00    +0.000 A 
ENDROOT
BRANCH   1  11
ATOM      7  C   UNL     1      49.135   3.569  18.631  0.00  0.00    +0.000 C 
ATOM      8  C   UNL     1      48.576   4.101  17.355  0.00  0.00    +0.000 A 
ATOM      9  C   UNL     1      47.573   3.431  16.688  0.00  0.00    +0.000 A 
ATOM     10  N   UNL     1      47.006   3.856  15.542  0.00  0.00    +0.000 NA
ATOM     11  C   UNL     1      47.463   5.011  15.031  0.00  0.00    +0.000 A 
ATOM     12  N   UNL     1      48.440   5.745  15.585  0.00  0.00    +0.000 NA
ATOM     13  C   UNL     1      48.977   5.274  16.740  0.00  0.00    +0.000 A 
BRANCH  13  14
ATOM     14  C   UNL     1      50.054   6.160  17.315  0.00  0.00    +0.000 C 
ATOM     15  N   UNL     1      51.192   6.256  16.558  0.00  0.00    +0.000 N 
ATOM     16  O   UNL     1      49.951   6.763  18.371  0.00  0.00    +0.000 OA
ATOM     17  H   UNL     1      51.256   5.761  15.677  0.00  0.00    +0.000 HD
ATOM     18  H   UNL     1      51.947   6.849  16.872  0.00  0.00    +0.000 HD
ENDBRANCH  13  14
ENDBRANCH   1  11
BRANCH   5  19
ATOM     19  C   UNL     1      43.448   5.388  12.016  0.00  0.00    +0.000 C 
BRANCH  19  20
ATOM     20  C   UNL     1      43.222   4.651  10.693  0.00  0.00    +0.000 C 
BRANCH  20  21
ATOM     21  N   UNL     1      43.999   3.422  10.584  0.00  0.00    +0.000 N 
ATOM     22  H   UNL     1      43.601   2.590  11.007  0.00  0.00    +0.000 HD
BRANCH  21  23
ATOM     23  C   UNL     1      44.780   3.214   9.445  0.00  0.00    +0.000 A 
ATOM     24  C   UNL     1      45.257   4.261   8.643  0.00  0.00    +0.000 A 
ATOM     25  C   UNL     1      46.115   4.025   7.564  0.00  0.00    +0.000 A 
ATOM     26  C   UNL     1      46.542   2.729   7.278  0.00  0.00    +0.000 A 
ATOM     27  C   UNL     1      46.089   1.670   8.071  0.00  0.00    +0.000 A 
ATOM     28  C   UNL     1      45.223   1.919   9.148  0.00  0.00    +0.000 A 
BRANCH  26  29
ATOM     29  C   UNL     1      47.453   2.533   6.120  0.00  0.00    +0.000 C 
ATOM     30  N   UNL     1      48.793   2.482   6.373  0.00  0.00    +0.000 N 
ATOM     31  O   UNL     1      47.027   2.460   4.972  0.00  0.00    +0.000 OA
ATOM     32  H   UNL     1      49.195   2.773   7.252  0.00  0.00    +0.000 HD
ATOM     33  H   UNL     1      49.397   2.462   5.561  0.00  0.00    +0.000 HD
ENDBRANCH  26  29
ENDBRANCH  21  23
ENDBRANCH  20  21
ENDBRANCH  19  20
ENDBRANCH   5  19
TORSDOF 7
ENDMDL
MODEL 3
REMARK VINA RESULT:    -8.306      3.861      5.731
REMARK INTER + INTRA:         -12.809
REMARK INTER:                 -11.776
REMARK INTRA:                  -1.033
REMARK UNBOUND:                -1.104
REMARK  Name = 
REMARK  8 active torsions:
REMARK  status: ('A' for Active; 'I' for Inactive)
REMARK    1  A    between atoms: C_1  and  C_2
REMARK    2  A    between atoms: C_5  and  C_6
REMARK    3  A    between atoms: C_10  and  C_11
REMARK    4  A    between atoms: C_11  and  C_12
REMARK    5  A    between atoms: C_12  and  N_13
REMARK    6  A    between atoms: N_13  and  C_14
REMARK    7  A    between atoms: C_17  and  C_18
REMARK    8  A    between atoms: C_25  and  C_26
REMARK                            x       y       z     vdW  Elec       q    Type
REMARK                         _______ _______ _______ _____ _____    ______ ____
ROOT
ATOM      1  C   UNL     1      47.772   6.189  13.959  0.00  0.00    +0.000 A 
ATOM      2  C   UNL     1      48.259   7.149  13.053  0.00  0.00    +0.000 A 
ATOM      3  C   UNL     1      47.693   7.309  11.792  0.00  0.00    +0.000 A 
ATOM      4  C   UNL     1      46.630   6.500  11.399  0.00  0.00    +0.000 A 
ATOM      5  C   UNL     1      46.120   5.515  12.255  0.00  0.00    +0.000 A 
ATOM      6  C   UNL     1      46.696   5.382  13.532  0.00  0.00    +0.000 A 
ENDROOT
BRANCH   1  11
ATOM      7  C   UNL     1      50.179   5.621  19.092  0.00  0.00    +0.000 C 
ATOM      8  C   UNL     1      49.519   5.737  17.760  0.00  0.00    +0.000 A 
ATOM      9  C   UNL     1      49.531   6.926  17.064  0.00  0.00    +0.000 A 
ATOM     10  N   UNL     1      48.975   7.103  15.850  0.00  0.00    +0.000 NA
ATOM     11  C   UNL     1      48.370   6.038  15.299  0.00  0.00    +0.000 A 
ATOM     12  N   UNL     1      48.286   4.834  15.883  0.00  0.00    +0.000 NA
ATOM     13  C   UNL     1      48.865   4.707  17.106  0.00  0.00    +0.000 A 
BRANCH  13  14
ATOM     14  C   UNL     1      48.749   3.322  17.692  0.00  0.00    +0.000 C 
ATOM     15  N   UNL     1      47.616   3.098  18.431  0.00  0.00    +0.000 N 
ATOM     16  O   UNL     1      49.581   2.443  17.538  0.00  0.00    +0.000 OA
ATOM     17  H   UNL     1      46.929   3.834  18.538  0.00  0.00    +0.000 HD
ATOM     18  H   UNL     1      47.463   2.186  18.837  0.00  0.00    +0.000 HD
ENDBRANCH  13  14
ENDBRANCH   1  11
BRANCH   5  19
ATOM     19  C   UNL     1      44.994   4.574  11.863  0.00  0.00    +0.000 C 
BRANCH  19  20
ATOM     20  C   UNL     1      43.883   5.228  11.036  0.00  0.00    +0.000 C 
BRANCH  20  21
ATOM     21  N   UNL     1      43.571   4.492   9.816  0.00  0.00    +0.000 N 
ATOM     22  H   UNL     1      42.842   4.876   9.223  0.00  0.00    +0.000 HD
BRANCH  21  23
ATOM     23  C   UNL     1      44.594   3.806   9.159  0.00  0.00    +0.000 A 
ATOM     24  C   UNL     1      44.743   2.413   9.220  0.00  0.00    +0.000 A 
ATOM     25  C   UNL     1      45.720   1.746   8.474  0.00  0.00    +0.000 A 
ATOM     26  C   UNL     1      46.559   2.462   7.620  0.00  0.00    +0.000 A 
ATOM     27  C   UNL     1      46.422   3.850   7.534  0.00  0.00    +0.000 A 
ATOM     28  C   UNL     1      45.441   4.508   8.292  0.00  0.00    +0.000 A 
BRANCH  26  29
ATOM     29  C   UNL     1      47.581   1.706   6.851  0.00  0.00    +0.000 C 
ATOM     30  N   UNL     1      48.690   2.386   6.436  0.00  0.00    +0.000 N 
ATOM     31  O   UNL     1      47.424   0.524   6.559  0.00  0.00    +0.000 OA
ATOM     32  H   UNL     1      48.747   3.393   6.443  0.00  0.00    +0.000 HD
ATOM     33  H   UNL     1      49.315   1.881   5.820  0.00  0.00    +0.000 HD
ENDBRANCH  26  29
ENDBRANCH  21  23
ENDBRANCH  20  21
ENDBRANCH  19  20
ENDBRANCH   5  19
TORSDOF 7
ENDMDL
MODEL 4
REMARK VINA RESULT:    -7.994      1.563      2.079
REMARK INTER + INTRA:         -12.370
REMARK INTER:                 -11.211
REMARK INTRA:                  -1.158
REMARK UNBOUND:                -1.104
REMARK  Name = 
REMARK  8 active torsions:
REMARK  status: ('A' for Active; 'I' for Inactive)
REMARK    1  A    between atoms: C_1  and  C_2
REMARK    2  A    between atoms: C_5  and  C_6
REMARK    3  A    between atoms: C_10  and  C_11
REMARK    4  A    between atoms: C_11  and  C_12
REMARK    5  A    between atoms: C_12  and  N_13
REMARK    6  A    between atoms: N_13  and  C_14
REMARK    7  A    between atoms: C_17  and  C_18
REMARK    8  A    between atoms: C_25  and  C_26
REMARK                            x       y       z     vdW  Elec       q    Type
REMARK                         _______ _______ _______ _____ _____    ______ ____
ROOT
ATOM      1  C   UNL     1      46.737   6.905  12.630  0.00  0.00    +0.000 A 
ATOM      2  C   UNL     1      47.488   5.911  13.284  0.00  0.00    +0.000 A 
ATOM      3  C   UNL     1      46.910   4.710  13.681  0.00  0.00    +0.000 A 
ATOM      4  C   UNL     1      45.558   4.477  13.445  0.00  0.00    +0.000 A 
ATOM      5  C   UNL     1      44.760   5.441  12.816  0.00  0.00    +0.000 A 
ATOM      6  C   UNL     1      45.368   6.641  12.406  0.00  0.00    +0.000 A 
ENDROOT
BRANCH   1  11
ATOM      7  C   UNL     1      49.202  11.798  11.064  0.00  0.00    +0.000 C 
ATOM      8  C   UNL     1      48.519  10.530  11.451  0.00  0.00    +0.000 A 
ATOM      9  C   UNL     1      49.244   9.389  11.722  0.00  0.00    +0.000 A 
ATOM     10  N   UNL     1      48.701   8.214  12.094  0.00  0.00    +0.000 NA
ATOM     11  C   UNL     1      47.363   8.169  12.200  0.00  0.00    +0.000 A 
ATOM     12  N   UNL     1      46.553   9.210  11.952  0.00  0.00    +0.000 NA
ATOM     13  C   UNL     1      47.150  10.373  11.582  0.00  0.00    +0.000 A 
BRANCH  13  14
ATOM     14  C   UNL     1      46.180  11.503  11.341  0.00  0.00    +0.000 C 
ATOM     15  N   UNL     1      45.846  12.228  12.455  0.00  0.00    +0.000 N 
ATOM     16  O   UNL     1      45.712  11.780  10.249  0.00  0.00    +0.000 OA
ATOM     17  H   UNL     1      46.254  11.994  13.351  0.00  0.00    +0.000 HD
ATOM     18  H   UNL     1      45.217  13.013  12.364  0.00  0.00    +0.000 HD
ENDBRANCH  13  14
ENDBRANCH   1  11
BRANCH   5  19
ATOM     19  C   UNL     1      43.271   5.260  12.575  0.00  0.00    +0.000 C 
BRANCH  19  20
ATOM     20  C   UNL     1      42.928   4.464  11.312  0.00  0.00    +0.000 C 
BRANCH  20  21
ATOM     21  N   UNL     1      43.649   4.926  10.132  0.00  0.00    +0.000 N 
ATOM     22  H   UNL     1      43.887   5.912  10.097  0.00  0.00    +0.000 HD
BRANCH  21  23
ATOM     23  C   UNL     1      44.548   4.059   9.507  0.00  0.00    +0.000 A 
ATOM     24  C   UNL     1      44.505   2.666   9.666  0.00  0.00    +0.000 A 
ATOM     25  C   UNL     1      45.359   1.820   8.952  0.00  0.00    +0.000 A 
ATOM     26  C   UNL     1      46.263   2.350   8.032  0.00  0.00    +0.000 A 
ATOM     27  C   UNL     1      46.317   3.735   7.848  0.00  0.00    +0.000 A 
ATOM     28  C   UNL     1      45.458   4.574   8.575  0.00  0.00    +0.000 A 
BRANCH  26  29
ATOM     29  C   UNL     1      47.148   1.407   7.300  0.00  0.00    +0.000 C 
ATOM     30  N   UNL     1      46.862   0.075   7.389  0.00  0.00    +0.000 N 
ATOM     31  O   UNL     1      48.126   1.799   6.671  0.00  0.00    +0.000 OA
ATOM     32  H   UNL     1      46.227  -0.302   8.076  0.00  0.00    +0.000 HD
ATOM     33  H   UNL     1      47.541  -0.552   6.977  0.00  0.00    +0.000 HD
ENDBRANCH  26  29
ENDBRANCH  21  23
ENDBRANCH  20  21
ENDBRANCH  19  20
ENDBRANCH   5  19
TORSDOF 7
ENDMDL
MODEL 5
REMARK VINA RESULT:    -7.878      1.465      2.144
REMARK INTER + INTRA:         -12.206
REMARK INTER:                 -11.387
REMARK INTRA:                  -0.819
REMARK UNBOUND:                -1.104
REMARK  Name = 
REMARK  8 active torsions:
REMARK  status: ('A' for Active; 'I' for Inactive)
REMARK    1  A    between atoms: C_1  and  C_2
REMARK    2  A    between atoms: C_5  and  C_6
REMARK    3  A    between atoms: C_10  and  C_11
REMARK    4  A    between atoms: C_11  and  C_12
REMARK    5  A    between atoms: C_12  and  N_13
REMARK    6  A    between atoms: N_13  and  C_14
REMARK    7  A    between atoms: C_17  and  C_18
REMARK    8  A    between atoms: C_25  and  C_26
REMARK                            x       y       z     vdW  Elec       q    Type
REMARK                         _______ _______ _______ _____ _____    ______ ____
ROOT
ATOM      1  C   UNL     1      45.939   7.019  12.693  0.00  0.00    +0.000 A 
ATOM      2  C   UNL     1      47.124   6.431  13.171  0.00  0.00    +0.000 A 
ATOM      3  C   UNL     1      47.193   5.073  13.466  0.00  0.00    +0.000 A 
ATOM      4  C   UNL     1      46.069   4.269  13.302  0.00  0.00    +0.000 A 
ATOM      5  C   UNL     1      44.858   4.807  12.848  0.00  0.00    +0.000 A 
ATOM      6  C   UNL     1      44.815   6.179  12.540  0.00  0.00    +0.000 A 
ENDROOT
BRANCH   1  11
ATOM      7  C   UNL     1      45.711  12.550  11.343  0.00  0.00    +0.000 C 
ATOM      8  C   UNL     1      45.801  11.112  11.729  0.00  0.00    +0.000 A 
ATOM      9  C   UNL     1      44.739  10.257  11.528  0.00  0.00    +0.000 A 
ATOM     10  N   UNL     1      44.751   8.945  11.833  0.00  0.00    +0.000 NA
ATOM     11  C   UNL     1      45.881   8.457  12.370  0.00  0.00    +0.000 A 
ATOM     12  N   UNL     1      46.975   9.193  12.622  0.00  0.00    +0.000 NA
ATOM     13  C   UNL     1      46.912  10.510  12.294  0.00  0.00    +0.000 A 
BRANCH  13  14
ATOM     14  C   UNL     1      48.183  11.270  12.585  0.00  0.00    +0.000 C 
ATOM     15  N   UNL     1      48.072  12.237  13.550  0.00  0.00    +0.000 N 
ATOM     16  O   UNL     1      49.246  11.062  12.024  0.00  0.00    +0.000 OA
ATOM     17  H   UNL     1      47.185  12.387  14.015  0.00  0.00    +0.000 HD
ATOM     18  H   UNL     1      48.888  12.771  13.811  0.00  0.00    +0.000 HD
ENDBRANCH  13  14
ENDBRANCH   1  11
BRANCH   5  19
ATOM     19  C   UNL     1      43.588   3.987  12.695  0.00  0.00    +0.000 C 
BRANCH  19  20
ATOM     20  C   UNL     1      43.561   3.091  11.453  0.00  0.00    +0.000 C 
BRANCH  20  21
ATOM     21  N   UNL     1      43.734   3.834  10.210  0.00  0.00    +0.000 N 
ATOM     22  H   UNL     1      43.631   4.842  10.260  0.00  0.00    +0.000 HD
BRANCH  21  23
ATOM     23  C   UNL     1      44.642   3.360   9.260  0.00  0.00    +0.000 A 
ATOM     24  C   UNL     1      45.398   4.207   8.436  0.00  0.00    +0.000 A 
ATOM     25  C   UNL     1      46.367   3.706   7.562  0.00  0.00    +0.000 A 
ATOM     26  C   UNL     1      46.624   2.335   7.512  0.00  0.00    +0.000 A 
ATOM     27  C   UNL     1      45.891   1.473   8.332  0.00  0.00    +0.000 A 
ATOM     28  C   UNL     1      44.917   1.989   9.201  0.00  0.00    +0.000 A 
BRANCH  26  29
ATOM     29  C   UNL     1      47.663   1.854   6.565  0.00  0.00    +0.000 C 
ATOM     30  N   UNL     1      48.737   2.667   6.339  0.00  0.00    +0.000 N 
ATOM     31  O   UNL     1      47.549   0.786   5.972  0.00  0.00    +0.000 OA
ATOM     32  H   UNL     1      48.753   3.638   6.612  0.00  0.00    +0.000 HD
ATOM     33  H   UNL     1      49.372   2.370   5.609  0.00  0.00    +0.000 HD
ENDBRANCH  26  29
ENDBRANCH  21  23
ENDBRANCH  20  21
ENDBRANCH  19  20
ENDBRANCH   5  19
TORSDOF 7
ENDMDL
MODEL 6
REMARK VINA RESULT:    -7.824      2.811      3.905
REMARK INTER + INTRA:         -12.129
REMARK INTER:                 -10.964
REMARK INTRA:                  -1.165
REMARK UNBOUND:                -1.104
REMARK  Name = 
REMARK  8 active torsions:
REMARK  status: ('A' for Active; 'I' for Inactive)
REMARK    1  A    between atoms: C_1  and  C_2
REMARK    2  A    between atoms: C_5  and  C_6
REMARK    3  A    between atoms: C_10  and  C_11
REMARK    4  A    between atoms: C_11  and  C_12
REMARK    5  A    between atoms: C_12  and  N_13
REMARK    6  A    between atoms: N_13  and  C_14
REMARK    7  A    between atoms: C_17  and  C_18
REMARK    8  A    between atoms: C_25  and  C_26
REMARK                            x       y       z     vdW  Elec       q    Type
REMARK                         _______ _______ _______ _____ _____    ______ ____
ROOT
ATOM      1  C   UNL     1      47.139   6.701  12.764  0.00  0.00    +0.000 A 
ATOM      2  C   UNL     1      47.623   5.705  13.632  0.00  0.00    +0.000 A 
ATOM      3  C   UNL     1      46.813   4.656  14.055  0.00  0.00    +0.000 A 
ATOM      4  C   UNL     1      45.490   4.585  13.631  0.00  0.00    +0.000 A 
ATOM      5  C   UNL     1      44.951   5.561  12.783  0.00  0.00    +0.000 A 
ATOM      6  C   UNL     1      45.792   6.603  12.353  0.00  0.00    +0.000 A 
ENDROOT
BRANCH   1  11
ATOM      7  C   UNL     1      50.456  10.949  10.914  0.00  0.00    +0.000 C 
ATOM      8  C   UNL     1      49.624   9.818  11.419  0.00  0.00    +0.000 A 
ATOM      9  C   UNL     1      48.271   9.975  11.631  0.00  0.00    +0.000 A 
ATOM     10  N   UNL     1      47.452   8.998  12.067  0.00  0.00    +0.000 NA
ATOM     11  C   UNL     1      48.011   7.801  12.309  0.00  0.00    +0.000 A 
ATOM     12  N   UNL     1      49.315   7.532  12.150  0.00  0.00    +0.000 NA
ATOM     13  C   UNL     1      50.098   8.550  11.706  0.00  0.00    +0.000 A 
BRANCH  13  14
ATOM     14  C   UNL     1      51.548   8.170  11.530  0.00  0.00    +0.000 C 
ATOM     15  N   UNL     1      51.788   7.234  10.558  0.00  0.00    +0.000 N 
ATOM     16  O   UNL     1      52.461   8.643  12.186  0.00  0.00    +0.000 OA
ATOM     17  H   UNL     1      51.020   6.862  10.014  0.00  0.00    +0.000 HD
ATOM     18  H   UNL     1      52.739   6.948  10.372  0.00  0.00    +0.000 HD
ENDBRANCH  13  14
ENDBRANCH   1  11
BRANCH   5  19
ATOM     19  C   UNL     1      43.502   5.559  12.326  0.00  0.00    +0.000 C 
BRANCH  19  20
ATOM     20  C   UNL     1      43.303   5.156  10.862  0.00  0.00    +0.000 C 
BRANCH  20  21
ATOM     21  N   UNL     1      43.612   3.753  10.609  0.00  0.00    +0.000 N 
ATOM     22  H   UNL     1      42.841   3.096  10.672  0.00  0.00    +0.000 HD
BRANCH  21  23
ATOM     23  C   UNL     1      44.610   3.436   9.686  0.00  0.00    +0.000 A 
ATOM     24  C   UNL     1      44.963   2.118   9.363  0.00  0.00    +0.000 A 
ATOM     25  C   UNL     1      45.900   1.832   8.365  0.00  0.00    +0.000 A 
ATOM     26  C   UNL     1      46.489   2.869   7.640  0.00  0.00    +0.000 A 
ATOM     27  C   UNL     1      46.145   4.190   7.937  0.00  0.00    +0.000 A 
ATOM     28  C   UNL     1      45.207   4.464   8.944  0.00  0.00    +0.000 A 
BRANCH  26  29
ATOM     29  C   UNL     1      47.479   2.511   6.591  0.00  0.00    +0.000 C 
ATOM     30  N   UNL     1      47.342   3.099   5.367  0.00  0.00    +0.000 N 
ATOM     31  O   UNL     1      48.366   1.688   6.797  0.00  0.00    +0.000 OA
ATOM     32  H   UNL     1      46.504   3.586   5.086  0.00  0.00    +0.000 HD
ATOM     33  H   UNL     1      47.956   2.757   4.639  0.00  0.00    +0.000 HD
ENDBRANCH  26  29
ENDBRANCH  21  23
ENDBRANCH  20  21
ENDBRANCH  19  20
ENDBRANCH   5  19
TORSDOF 7
ENDMDL
MODEL 7
REMARK VINA RESULT:    -7.709      2.925      3.388
REMARK INTER + INTRA:         -11.967
REMARK INTER:                 -10.766
REMARK INTRA:                  -1.201
REMARK UNBOUND:                -1.104
REMARK  Name = 
REMARK  8 active torsions:
REMARK  status: ('A' for Active; 'I' for Inactive)
REMARK    1  A    between atoms: C_1  and  C_2
REMARK    2  A    between atoms: C_5  and  C_6
REMARK    3  A    between atoms: C_10  and  C_11
REMARK    4  A    between atoms: C_11  and  C_12
REMARK    5  A    between atoms: C_12  and  N_13
REMARK    6  A    between atoms: N_13  and  C_14
REMARK    7  A    between atoms: C_17  and  C_18
REMARK    8  A    between atoms: C_25  and  C_26
REMARK                            x       y       z     vdW  Elec       q    Type
REMARK                         _______ _______ _______ _____ _____    ______ ____
ROOT
ATOM      1  C   UNL     1      46.800   6.614  13.195  0.00  0.00    +0.000 A 
ATOM      2  C   UNL     1      47.389   5.388  13.558  0.00  0.00    +0.000 A 
ATOM      3  C   UNL     1      46.674   4.196  13.501  0.00  0.00    +0.000 A 
ATOM      4  C   UNL     1      45.343   4.202  13.093  0.00  0.00    +0.000 A 
ATOM      5  C   UNL     1      44.703   5.397  12.741  0.00  0.00    +0.000 A 
ATOM      6  C   UNL     1      45.449   6.589  12.788  0.00  0.00    +0.000 A 
ENDROOT
BRANCH   1  11
ATOM      7  C   UNL     1      49.862  11.417  13.337  0.00  0.00    +0.000 C 
ATOM      8  C   UNL     1      49.045  10.170  13.343  0.00  0.00    +0.000 A 
ATOM      9  C   UNL     1      48.592   9.616  12.165  0.00  0.00    +0.000 A 
ATOM     10  N   UNL     1      47.866   8.483  12.087  0.00  0.00    +0.000 NA
ATOM     11  C   UNL     1      47.572   7.870  13.245  0.00  0.00    +0.000 A 
ATOM     12  N   UNL     1      47.949   8.319  14.452  0.00  0.00    +0.000 NA
ATOM     13  C   UNL     1      48.681   9.463  14.475  0.00  0.00    +0.000 A 
BRANCH  13  14
ATOM     14  C   UNL     1      49.086   9.897  15.863  0.00  0.00    +0.000 C 
ATOM     15  N   UNL     1      48.173  10.686  16.513  0.00  0.00    +0.000 N 
ATOM     16  O   UNL     1      50.138   9.584  16.396  0.00  0.00    +0.000 OA
ATOM     17  H   UNL     1      47.298  10.924  16.062  0.00  0.00    +0.000 HD
ATOM     18  H   UNL     1      48.368  10.996  17.454  0.00  0.00    +0.000 HD
ENDBRANCH  13  14
ENDBRANCH   1  11
BRANCH   5  19
ATOM     19  C   UNL     1      43.242   5.470  12.333  0.00  0.00    +0.000 C 
BRANCH  19  20
ATOM     20  C   UNL     1      42.896   4.663  11.077  0.00  0.00    +0.000 C 
BRANCH  20  21
ATOM     21  N   UNL     1      43.699   5.037   9.919  0.00  0.00    +0.000 N 
ATOM     22  H   UNL     1      44.093   5.973   9.917  0.00  0.00    +0.000 HD
BRANCH  21  23
ATOM     23  C   UNL     1      44.455   4.056   9.274  0.00  0.00    +0.000 A 
ATOM     24  C   UNL     1      45.424   4.352   8.304  0.00  0.00    +0.000 A 
ATOM     25  C   UNL     1      46.230   3.355   7.746  0.00  0.00    +0.000 A 
ATOM     26  C   UNL     1      46.105   2.033   8.171  0.00  0.00    +0.000 A 
ATOM     27  C   UNL     1      45.154   1.716   9.145  0.00  0.00    +0.000 A 
ATOM     28  C   UNL     1      44.347   2.724   9.694  0.00  0.00    +0.000 A 
BRANCH  26  29
ATOM     29  C   UNL     1      46.986   1.012   7.545  0.00  0.00    +0.000 C 
ATOM     30  N   UNL     1      47.993   1.457   6.739  0.00  0.00    +0.000 N 
ATOM     31  O   UNL     1      46.797  -0.189   7.710  0.00  0.00    +0.000 OA
ATOM     32  H   UNL     1      48.036   2.402   6.389  0.00  0.00    +0.000 HD
ATOM     33  H   UNL     1      48.507   0.743   6.236  0.00  0.00    +0.000 HD
ENDBRANCH  26  29
ENDBRANCH  21  23
ENDBRANCH  20  21
ENDBRANCH  19  20
ENDBRANCH   5  19
TORSDOF 7
ENDMDL
MODEL 8
REMARK VINA RESULT:    -7.065      3.962      6.463
REMARK INTER + INTRA:         -11.060
REMARK INTER:                  -9.823
REMARK INTRA:                  -1.237
REMARK UNBOUND:                -1.104
REMARK  Name = 
REMARK  8 active torsions:
REMARK  status: ('A' for Active; 'I' for Inactive)
REMARK    1  A    between atoms: C_1  and  C_2
REMARK    2  A    between atoms: C_5  and  C_6
REMARK    3  A    between atoms: C_10  and  C_11
REMARK    4  A    between atoms: C_11  and  C_12
REMARK    5  A    between atoms: C_12  and  N_13
REMARK    6  A    between atoms: N_13  and  C_14
REMARK    7  A    between atoms: C_17  and  C_18
REMARK    8  A    between atoms: C_25  and  C_26
REMARK                            x       y       z     vdW  Elec       q    Type
REMARK                         _______ _______ _______ _____ _____    ______ ____
ROOT
ATOM      1  C   UNL     1      48.675   7.438  14.198  0.00  0.00    +0.000 A 
ATOM      2  C   UNL     1      49.633   7.245  13.186  0.00  0.00    +0.000 A 
ATOM      3  C   UNL     1      49.554   7.925  11.975  0.00  0.00    +0.000 A 
ATOM      4  C   UNL     1      48.505   8.808  11.739  0.00  0.00    +0.000 A 
ATOM      5  C   UNL     1      47.513   9.022  12.705  0.00  0.00    +0.000 A 
ATOM      6  C   UNL     1      47.621   8.338  13.930  0.00  0.00    +0.000 A 
ENDROOT
BRANCH   1  11
ATOM      7  C   UNL     1      49.169   4.669  19.154  0.00  0.00    +0.000 C 
ATOM      8  C   UNL     1      49.000   5.371  17.848  0.00  0.00    +0.000 A 
ATOM      9  C   UNL     1      49.516   6.634  17.652  0.00  0.00    +0.000 A 
ATOM     10  N   UNL     1      49.421   7.322  16.498  0.00  0.00    +0.000 NA
ATOM     11  C   UNL     1      48.775   6.723  15.484  0.00  0.00    +0.000 A 
ATOM     12  N   UNL     1      48.224   5.503  15.560  0.00  0.00    +0.000 NA
ATOM     13  C   UNL     1      48.349   4.849  16.744  0.00  0.00    +0.000 A 
BRANCH  13  14
ATOM     14  C   UNL     1      47.723   3.476  16.750  0.00  0.00    +0.000 C 
ATOM     15  N   UNL     1      48.551   2.460  16.347  0.00  0.00    +0.000 N 
ATOM     16  O   UNL     1      46.572   3.252  17.084  0.00  0.00    +0.000 OA
ATOM     17  H   UNL     1      49.508   2.662  16.086  0.00  0.00    +0.000 HD
ATOM     18  H   UNL     1      48.205   1.511  16.346  0.00  0.00    +0.000 HD
ENDBRANCH  13  14
ENDBRANCH   1  11
BRANCH   5  19
ATOM     19  C   UNL     1      46.321   9.937  12.485  0.00  0.00    +0.000 C 
BRANCH  19  20
ATOM     20  C   UNL     1      45.117   9.259  11.824  0.00  0.00    +0.000 C 
BRANCH  20  21
ATOM     21  N   UNL     1      44.697   8.044  12.512  0.00  0.00    +0.000 N 
ATOM     22  H   UNL     1      44.021   8.152  13.262  0.00  0.00    +0.000 HD
BRANCH  21  23
ATOM     23  C   UNL     1      44.622   6.850  11.792  0.00  0.00    +0.000 A 
ATOM     24  C   UNL     1      43.407   6.235  11.453  0.00  0.00    +0.000 A 
ATOM     25  C   UNL     1      43.362   5.092  10.651  0.00  0.00    +0.000 A 
ATOM     26  C   UNL     1      44.541   4.549  10.138  0.00  0.00    +0.000 A 
ATOM     27  C   UNL     1      45.763   5.150  10.452  0.00  0.00    +0.000 A 
ATOM     28  C   UNL     1      45.795   6.295  11.264  0.00  0.00    +0.000 A 
BRANCH  26  29
ATOM     29  C   UNL     1      44.438   3.332   9.291  0.00  0.00    +0.000 C 
ATOM     30  N   UNL     1      44.351   3.509   7.940  0.00  0.00    +0.000 N 
ATOM     31  O   UNL     1      44.391   2.208   9.782  0.00  0.00    +0.000 OA
ATOM     32  H   UNL     1      44.146   4.402   7.519  0.00  0.00    +0.000 HD
ATOM     33  H   UNL     1      44.169   2.676   7.395  0.00  0.00    +0.000 HD
ENDBRANCH  26  29
ENDBRANCH  21  23
ENDBRANCH  20  21
ENDBRANCH  19  20
ENDBRANCH   5  19
TORSDOF 7
ENDMDL
MODEL 9
REMARK VINA RESULT:    -6.970      3.744      7.756
REMARK INTER + INTRA:         -10.926
REMARK INTER:                  -9.711
REMARK INTRA:                  -1.215
REMARK UNBOUND:                -1.104
REMARK  Name = 
REMARK  8 active torsions:
REMARK  status: ('A' for Active; 'I' for Inactive)
REMARK    1  A    between atoms: C_1  and  C_2
REMARK    2  A    between atoms: C_5  and  C_6
REMARK    3  A    between atoms: C_10  and  C_11
REMARK    4  A    between atoms: C_11  and  C_12
REMARK    5  A    between atoms: C_12  and  N_13
REMARK    6  A    between atoms: N_13  and  C_14
REMARK    7  A    between atoms: C_17  and  C_18
REMARK    8  A    between atoms: C_25  and  C_26
REMARK                            x       y       z     vdW  Elec       q    Type
REMARK                         _______ _______ _______ _____ _____    ______ ____
ROOT
ATOM      1  C   UNL     1      46.020   7.710  11.991  0.00  0.00    +0.000 A 
ATOM      2  C   UNL     1      45.335   8.936  11.906  0.00  0.00    +0.000 A 
ATOM      3  C   UNL     1      46.012  10.150  11.976  0.00  0.00    +0.000 A 
ATOM      4  C   UNL     1      47.393  10.168  12.146  0.00  0.00    +0.000 A 
ATOM      5  C   UNL     1      48.120   8.977  12.258  0.00  0.00    +0.000 A 
ATOM      6  C   UNL     1      47.419   7.760  12.167  0.00  0.00    +0.000 A 
ENDROOT
BRANCH   1  11
ATOM      7  C   UNL     1      43.283   2.720  11.719  0.00  0.00    +0.000 C 
ATOM      8  C   UNL     1      43.995   4.030  11.745  0.00  0.00    +0.000 A 
ATOM      9  C   UNL     1      43.964   4.831  12.866  0.00  0.00    +0.000 A 
ATOM     10  N   UNL     1      44.596   6.016  12.972  0.00  0.00    +0.000 NA
ATOM     11  C   UNL     1      45.295   6.429  11.902  0.00  0.00    +0.000 A 
ATOM     12  N   UNL     1      45.390   5.741  10.754  0.00  0.00    +0.000 NA
ATOM     13  C   UNL     1      44.737   4.552  10.699  0.00  0.00    +0.000 A 
BRANCH  13  14
ATOM     14  C   UNL     1      44.905   3.826   9.387  0.00  0.00    +0.000 C 
ATOM     15  N   UNL     1      44.041   4.212   8.396  0.00  0.00    +0.000 N 
ATOM     16  O   UNL     1      45.739   2.957   9.189  0.00  0.00    +0.000 OA
ATOM     17  H   UNL     1      43.364   4.944   8.572  0.00  0.00    +0.000 HD
ATOM     18  H   UNL     1      44.110   3.783   7.484  0.00  0.00    +0.000 HD
ENDBRANCH  13  14
ENDBRANCH   1  11
BRANCH   5  19
ATOM     19  C   UNL     1      49.621   8.936  12.491  0.00  0.00    +0.000 C 
BRANCH  19  20
ATOM     20  C   UNL     1      50.108   7.701  13.256  0.00  0.00    +0.000 C 
BRANCH  20  21
ATOM     21  N   UNL     1      50.029   7.858  14.703  0.00  0.00    +0.000 N 
ATOM     22  H   UNL     1      49.946   8.805  15.058  0.00  0.00    +0.000 HD
BRANCH  21  23
ATOM     23  C   UNL     1      49.398   6.866  15.458  0.00  0.00    +0.000 A 
ATOM     24  C   UNL     1      48.277   6.157  15.003  0.00  0.00    +0.000 A 
ATOM     25  C   UNL     1      47.726   5.105  15.742  0.00  0.00    +0.000 A 
ATOM     26  C   UNL     1      48.307   4.716  16.949  0.00  0.00    +0.000 A 
ATOM     27  C   UNL     1      49.432   5.402  17.416  0.00  0.00    +0.000 A 
ATOM     28  C   UNL     1      49.972   6.459  16.668  0.00  0.00    +0.000 A 
BRANCH  26  29
ATOM     29  C   UNL     1      47.682   3.593  17.695  0.00  0.00    +0.000 C 
ATOM     30  N   UNL     1      48.346   3.113  18.786  0.00  0.00    +0.000 N 
ATOM     31  O   UNL     1      46.628   3.083  17.326  0.00  0.00    +0.000 OA
ATOM     32  H   UNL     1      49.311   3.336  18.980  0.00  0.00    +0.000 HD
ATOM     33  H   UNL     1      47.959   2.279  19.209  0.00  0.00    +0.000 HD
ENDBRANCH  26  29
ENDBRANCH  21  23
ENDBRANCH  20  21
ENDBRANCH  19  20
ENDBRANCH   5  19
TORSDOF 7
ENDMDL
