MODEL 1
REMARK VINA RESULT:    -8.240      0.000      0.000
REMARK INTER + INTRA:         -12.119
REMARK INTER:                 -11.130
REMARK INTRA:                  -0.989
REMARK UNBOUND:                -0.989
REMARK  Name = 
REMARK  7 active torsions:
REMARK  status: ('A' for Active; 'I' for Inactive)
REMARK    1  A    between atoms: C_1  and  C_2
REMARK    2  A    between atoms: C_2  and  C_3
REMARK    3  A    between atoms: C_2  and  C_14
REMARK    4  A    between atoms: C_3  and  O_4
REMARK    5  A    between atoms: O_4  and  C_5
REMARK    6  A    between atoms: C_8  and  C_9
REMARK    7  A    between atoms: C_18  and  N_19
REMARK                            x       y       z     vdW  Elec       q    Type
REMARK                         _______ _______ _______ _____ _____    ______ ____
ROOT
ATOM      1  C   UNL     1      42.624   5.429  11.944  0.00  0.00    +0.000 C 
ATOM      2  C   UNL     1      43.622   4.357  12.390  0.00  0.00    +0.000 C 
ENDROOT
BRANCH   2   3
ATOM      3  C   UNL     1      45.002   4.947  12.664  0.00  0.00    +0.000 A 
ATOM      4  C   UNL     1      45.530   5.888  11.774  0.00  0.00    +0.000 A 
ATOM      5  C   UNL     1      46.781   6.451  12.001  0.00  0.00    +0.000 A 
ATOM      6  C   UNL     1      47.501   6.105  13.144  0.00  0.00    +0.000 A 
ATOM      7  C   UNL     1      47.001   5.198  14.088  0.00  0.00    +0.000 A 
ATOM      8  C   UNL     1      45.759   4.600  13.803  0.00  0.00    +0.000 A 
BRANCH   7   9
ATOM      9  N   UNL     1      47.699   4.931  15.244  0.00  0.00    +0.000 N 
ATOM     10  C   UNL     1      47.563   3.652  15.957  0.00  0.00    +0.000 C 
ATOM     11  C   UNL     1      47.218   3.925  17.426  0.00  0.00    +0.000 C 
ATOM     12  O   UNL     1      48.197   4.781  18.041  0.00  0.00    +0.000 OA
ATOM     13  C   UNL     1      48.267   6.041  17.347  0.00  0.00    +0.000 C 
ATOM     14  C   UNL     1      48.647   5.864  15.862  0.00  0.00    +0.000 C 
ENDBRANCH   7   9
ENDBRANCH   2   3
BRANCH   2  15
ATOM     15  C   UNL     1      43.683   3.197  11.382  0.00  0.00    +0.000 C 
BRANCH  15  16
ATOM     16  O   UNL     1      43.523   3.698  10.042  0.00  0.00    +0.000 OA
BRANCH  16  17
ATOM     17  C   UNL     1      44.501   3.223   9.192  0.00  0.00    +0.000 A 
ATOM     18  C   UNL     1      45.157   4.134   8.378  0.00  0.00    +0.000 A 
ATOM     19  C   UNL     1      46.169   3.660   7.536  0.00  0.00    +0.000 A 
ATOM     20  C   UNL     1      46.492   2.298   7.535  0.00  0.00    +0.000 A 
ATOM     21  C   UNL     1      45.770   1.475   8.382  0.00  0.00    +0.000 A 
ATOM     22  N   UNL     1      44.786   1.904   9.202  0.00  0.00    +0.000 NA
BRANCH  20  23
ATOM     23  C   UNL     1      47.584   1.798   6.667  0.00  0.00    +0.000 C 
ATOM     24  N   UNL     1      48.684   2.591   6.463  0.00  0.00    +0.000 N 
ATOM     25  O   UNL     1      47.514   0.702   6.131  0.00  0.00    +0.000 OA
ATOM     26  H   UNL     1      48.848   3.502   6.856  0.00  0.00    +0.000 HD
ATOM     27  H   UNL     1      49.402   2.216   5.855  0.00  0.00    +0.000 HD
ENDBRANCH  20  23
ENDBRANCH  16  17
ENDBRANCH  15  16
ENDBRANCH   2  15
TORSDOF 6
ENDMDL
MODEL 2
REMARK VINA RESULT:    -7.564      3.159      4.906
REMARK INTER + INTRA:         -11.206
REMARK INTER:                 -10.434
REMARK INTRA:                  -0.772
REMARK UNBOUND:                -0.989
REMARK  Name = 
REMARK  7 active torsions:
REMARK  status: ('A' for Active; 'I' for Inactive)
REMARK    1  A    between atoms: C_1  and  C_2
REMARK    2  A    between atoms: C_2  and  C_3
REMARK    3  A    between atoms: C_2  and  C_14
REMARK    4  A    between atoms: C_3  and  O_4
REMARK    5  A    between atoms: O_4  and  C_5
REMARK    6  A    between atoms: C_8  and  C_9
REMARK    7  A    between atoms: C_18  and  N_19
REMARK                            x       y       z     vdW  Elec       q    Type
REMARK                         _______ _______ _______ _____ _____    ______ ____
ROOT
ATOM      1  C   UNL     1      44.813   3.910  12.739  0.00  0.00    +0.000 C 
ATOM      2  C   UNL     1      45.100   4.834  11.552  0.00  0.00    +0.000 C 
ENDROOT
BRANCH   2   3
ATOM      3  C   UNL     1      45.537   6.222  12.007  0.00  0.00    +0.000 A 
ATOM      4  C   UNL     1      46.649   6.347  12.846  0.00  0.00    +0.000 A 
ATOM      5  C   UNL     1      47.077   7.600  13.271  0.00  0.00    +0.000 A 
ATOM      6  C   UNL     1      46.418   8.745  12.829  0.00  0.00    +0.000 A 
ATOM      7  C   UNL     1      45.323   8.680  11.957  0.00  0.00    +0.000 A 
ATOM      8  C   UNL     1      44.875   7.397  11.590  0.00  0.00    +0.000 A 
BRANCH   7   9
ATOM      9  N   UNL     1      44.737   9.830  11.477  0.00  0.00    +0.000 N 
ATOM     10  C   UNL     1      43.426   9.815  10.812  0.00  0.00    +0.000 C 
ATOM     11  C   UNL     1      43.540  10.510   9.450  0.00  0.00    +0.000 C 
ATOM     12  O   UNL     1      44.058  11.845   9.587  0.00  0.00    +0.000 OA
ATOM     13  C   UNL     1      45.363  11.816  10.197  0.00  0.00    +0.000 C 
ATOM     14  C   UNL     1      45.335  11.164  11.595  0.00  0.00    +0.000 C 
ENDBRANCH   7   9
ENDBRANCH   2   3
BRANCH   2  15
ATOM     15  C   UNL     1      43.902   4.895  10.590  0.00  0.00    +0.000 C 
BRANCH  15  16
ATOM     16  O   UNL     1      43.629   3.585  10.056  0.00  0.00    +0.000 OA
BRANCH  16  17
ATOM     17  C   UNL     1      44.610   3.172   9.177  0.00  0.00    +0.000 A 
ATOM     18  C   UNL     1      45.146   4.111   8.309  0.00  0.00    +0.000 A 
ATOM     19  C   UNL     1      46.160   3.701   7.435  0.00  0.00    +0.000 A 
ATOM     20  C   UNL     1      46.603   2.375   7.458  0.00  0.00    +0.000 A 
ATOM     21  C   UNL     1      45.994   1.518   8.359  0.00  0.00    +0.000 A 
ATOM     22  N   UNL     1      45.011   1.885   9.211  0.00  0.00    +0.000 NA
BRANCH  20  23
ATOM     23  C   UNL     1      47.698   1.945   6.555  0.00  0.00    +0.000 C 
ATOM     24  N   UNL     1      48.736   2.808   6.317  0.00  0.00    +0.000 N 
ATOM     25  O   UNL     1      47.682   0.846   6.022  0.00  0.00    +0.000 OA
ATOM     26  H   UNL     1      48.853   3.729   6.705  0.00  0.00    +0.000 HD
ATOM     27  H   UNL     1      49.458   2.479   5.686  0.00  0.00    +0.000 HD
ENDBRANCH  20  23
ENDBRANCH  16  17
ENDBRANCH  15  16
ENDBRANCH   2  15
TORSDOF 6
ENDMDL
MODEL 3
REMARK VINA RESULT:    -7.309      2.434      3.398
REMARK INTER + INTRA:         -10.862
REMARK INTER:                  -9.996
REMARK INTRA:                  -0.866
REMARK UNBOUND:                -0.989
REMARK  Name = 
REMARK  7 active torsions:
REMARK  status: ('A' for Active; 'I' for Inactive)
REMARK    1  A    between atoms: C_1  and  C_2
REMARK    2  A    between atoms: C_2  and  C_3
REMARK    3  A    between atoms: C_2  and  C_14
REMARK    4  A    between atoms: C_3  and  O_4
REMARK    5  A    between atoms: O_4  and  C_5
REMARK    6  A    between atoms: C_8  and  C_9
REMARK    7  A    between atoms: C_18  and  N_19
REMARK                            x       y       z     vdW  Elec       q    Type
REMARK                         _______ _______ _______ _____ _____    ______ ____
ROOT
ATOM      1  C   UNL     1      43.186   6.447  11.413  0.00  0.00    +0.000 C 
ATOM      2  C   UNL     1      43.763   5.252  12.178  0.00  0.00    +0.000 C 
ENDROOT
BRANCH   2   3
ATOM      3  C   UNL     1      45.148   5.555  12.740  0.00  0.00    +0.000 A 
ATOM      4  C   UNL     1      45.722   4.666  13.654  0.00  0.00    +0.000 A 
ATOM      5  C   UNL     1      46.988   4.910  14.177  0.00  0.00    +0.000 A 
ATOM      6  C   UNL     1      47.707   6.028  13.760  0.00  0.00    +0.000 A 
ATOM      7  C   UNL     1      47.196   6.929  12.817  0.00  0.00    +0.000 A 
ATOM      8  C   UNL     1      45.891   6.690  12.349  0.00  0.00    +0.000 A 
BRANCH   7   9
ATOM      9  N   UNL     1      47.958   7.984  12.367  0.00  0.00    +0.000 N 
ATOM     10  C   UNL     1      49.156   7.780  11.539  0.00  0.00    +0.000 C 
ATOM     11  C   UNL     1      50.345   8.507  12.180  0.00  0.00    +0.000 C 
ATOM     12  O   UNL     1      50.058   9.903  12.377  0.00  0.00    +0.000 OA
ATOM     13  C   UNL     1      48.910  10.063  13.231  0.00  0.00    +0.000 C 
ATOM     14  C   UNL     1      47.652   9.391  12.643  0.00  0.00    +0.000 C 
ENDBRANCH   7   9
ENDBRANCH   2   3
BRANCH   2  15
ATOM     15  C   UNL     1      43.759   3.981  11.312  0.00  0.00    +0.000 C 
BRANCH  15  16
ATOM     16  O   UNL     1      43.620   4.331   9.922  0.00  0.00    +0.000 OA
BRANCH  16  17
ATOM     17  C   UNL     1      44.634   3.799   9.152  0.00  0.00    +0.000 A 
ATOM     18  C   UNL     1      44.835   2.427   9.194  0.00  0.00    +0.000 A 
ATOM     19  C   UNL     1      45.844   1.881   8.393  0.00  0.00    +0.000 A 
ATOM     20  C   UNL     1      46.615   2.718   7.579  0.00  0.00    +0.000 A 
ATOM     21  C   UNL     1      46.335   4.073   7.618  0.00  0.00    +0.000 A 
ATOM     22  N   UNL     1      45.370   4.629   8.384  0.00  0.00    +0.000 NA
BRANCH  20  23
ATOM     23  C   UNL     1      47.664   2.140   6.706  0.00  0.00    +0.000 C 
ATOM     24  N   UNL     1      48.100   2.864   5.627  0.00  0.00    +0.000 N 
ATOM     25  O   UNL     1      48.135   1.035   6.933  0.00  0.00    +0.000 OA
ATOM     26  H   UNL     1      47.788   3.779   5.352  0.00  0.00    +0.000 HD
ATOM     27  H   UNL     1      48.812   2.427   5.051  0.00  0.00    +0.000 HD
ENDBRANCH  20  23
ENDBRANCH  16  17
ENDBRANCH  15  16
ENDBRANCH   2  15
TORSDOF 6
ENDMDL
MODEL 4
REMARK VINA RESULT:    -7.049      2.293      3.024
REMARK INTER + INTRA:         -10.511
REMARK INTER:                  -9.981
REMARK INTRA:                  -0.530
REMARK UNBOUND:                -0.989
REMARK  Name = 
REMARK  7 active torsions:
REMARK  status: ('A' for Active; 'I' for Inactive)
REMARK    1  A    between atoms: C_1  and  C_2
REMARK    2  A    between atoms: C_2  and  C_3
REMARK    3  A    between atoms: C_2  and  C_14
REMARK    4  A    between atoms: C_3  and  O_4
REMARK    5  A    between atoms: O_4  and  C_5
REMARK    6  A    between atoms: C_8  and  C_9
REMARK    7  A    between atoms: C_18  and  N_19
REMARK                            x       y       z     vdW  Elec       q    Type
REMARK                         _______ _______ _______ _____ _____    ______ ____
ROOT
ATOM      1  C   UNL     1      45.754   3.581  12.727  0.00  0.00    +0.000 C 
ATOM      2  C   UNL     1      45.372   4.593  11.644  0.00  0.00    +0.000 C 
ENDROOT
BRANCH   2   3
ATOM      3  C   UNL     1      45.697   6.022  12.065  0.00  0.00    +0.000 A 
ATOM      4  C   UNL     1      44.808   7.050  11.732  0.00  0.00    +0.000 A 
ATOM      5  C   UNL     1      45.072   8.362  12.110  0.00  0.00    +0.000 A 
ATOM      6  C   UNL     1      46.211   8.653  12.859  0.00  0.00    +0.000 A 
ATOM      7  C   UNL     1      47.113   7.656  13.254  0.00  0.00    +0.000 A 
ATOM      8  C   UNL     1      46.852   6.347  12.808  0.00  0.00    +0.000 A 
BRANCH   7   9
ATOM      9  N   UNL     1      48.190   7.960  14.056  0.00  0.00    +0.000 N 
ATOM     10  C   UNL     1      48.090   8.931  15.157  0.00  0.00    +0.000 C 
ATOM     11  C   UNL     1      49.191   9.986  15.004  0.00  0.00    +0.000 C 
ATOM     12  O   UNL     1      50.493   9.377  14.941  0.00  0.00    +0.000 OA
ATOM     13  C   UNL     1      50.569   8.472  13.823  0.00  0.00    +0.000 C 
ATOM     14  C   UNL     1      49.515   7.349  13.915  0.00  0.00    +0.000 C 
ENDBRANCH   7   9
ENDBRANCH   2   3
BRANCH   2  15
ATOM     15  C   UNL     1      43.899   4.437  11.229  0.00  0.00    +0.000 C 
BRANCH  15  16
ATOM     16  O   UNL     1      43.763   4.627   9.808  0.00  0.00    +0.000 OA
BRANCH  16  17
ATOM     17  C   UNL     1      44.740   3.956   9.101  0.00  0.00    +0.000 A 
ATOM     18  C   UNL     1      44.814   2.578   9.237  0.00  0.00    +0.000 A 
ATOM     19  C   UNL     1      45.786   1.892   8.500  0.00  0.00    +0.000 A 
ATOM     20  C   UNL     1      46.647   2.600   7.655  0.00  0.00    +0.000 A 
ATOM     21  C   UNL     1      46.492   3.975   7.601  0.00  0.00    +0.000 A 
ATOM     22  N   UNL     1      45.566   4.664   8.303  0.00  0.00    +0.000 NA
BRANCH  20  23
ATOM     23  C   UNL     1      47.657   1.873   6.851  0.00  0.00    +0.000 C 
ATOM     24  N   UNL     1      48.526   2.593   6.073  0.00  0.00    +0.000 N 
ATOM     25  O   UNL     1      47.720   0.653   6.869  0.00  0.00    +0.000 OA
ATOM     26  H   UNL     1      48.568   3.595   5.987  0.00  0.00    +0.000 HD
ATOM     27  H   UNL     1      49.195   2.057   5.531  0.00  0.00    +0.000 HD
ENDBRANCH  20  23
ENDBRANCH  16  17
ENDBRANCH  15  16
ENDBRANCH   2  15
TORSDOF 6
ENDMDL
MODEL 5
REMARK VINA RESULT:    -6.942      2.668      7.689
REMARK INTER + INTRA:         -10.365
REMARK INTER:                  -9.362
REMARK INTRA:                  -1.004
REMARK UNBOUND:                -0.989
REMARK  Name = 
REMARK  7 active torsions:
REMARK  status: ('A' for Active; 'I' for Inactive)
REMARK    1  A    between atoms: C_1  and  C_2
REMARK    2  A    between atoms: C_2  and  C_3
REMARK    3  A    between atoms: C_2  and  C_14
REMARK    4  A    between atoms: C_3  and  O_4
REMARK    5  A    between atoms: O_4  and  C_5
REMARK    6  A    between atoms: C_8  and  C_9
REMARK    7  A    between atoms: C_18  and  N_19
REMARK                            x       y       z     vdW  Elec       q    Type
REMARK                         _______ _______ _______ _____ _____    ______ ____
ROOT
ATOM      1  C   UNL     1      49.223   9.349  11.826  0.00  0.00    +0.000 C 
ATOM      2  C   UNL     1      48.773   7.886  11.814  0.00  0.00    +0.000 C 
ENDROOT
BRANCH   2   3
ATOM      3  C   UNL     1      47.253   7.762  11.809  0.00  0.00    +0.000 A 
ATOM      4  C   UNL     1      46.478   8.847  12.232  0.00  0.00    +0.000 A 
ATOM      5  C   UNL     1      45.090   8.768  12.230  0.00  0.00    +0.000 A 
ATOM      6  C   UNL     1      44.461   7.612  11.769  0.00  0.00    +0.000 A 
ATOM      7  C   UNL     1      45.188   6.512  11.296  0.00  0.00    +0.000 A 
ATOM      8  C   UNL     1      46.591   6.597  11.364  0.00  0.00    +0.000 A 
BRANCH   7   9
ATOM      9  N   UNL     1      44.541   5.413  10.777  0.00  0.00    +0.000 N 
ATOM     10  C   UNL     1      43.192   5.027  11.216  0.00  0.00    +0.000 C 
ATOM     11  C   UNL     1      43.202   3.556  11.649  0.00  0.00    +0.000 C 
ATOM     12  O   UNL     1      43.689   2.705  10.596  0.00  0.00    +0.000 OA
ATOM     13  C   UNL     1      45.029   3.082  10.228  0.00  0.00    +0.000 C 
ATOM     14  C   UNL     1      45.107   4.543   9.741  0.00  0.00    +0.000 C 
ENDBRANCH   7   9
ENDBRANCH   2   3
BRANCH   2  15
ATOM     15  C   UNL     1      49.411   7.096  12.969  0.00  0.00    +0.000 C 
BRANCH  15  16
ATOM     16  O   UNL     1      48.909   7.574  14.231  0.00  0.00    +0.000 OA
BRANCH  16  17
ATOM     17  C   UNL     1      48.585   6.539  15.084  0.00  0.00    +0.000 A 
ATOM     18  C   UNL     1      49.027   6.612  16.397  0.00  0.00    +0.000 A 
ATOM     19  C   UNL     1      48.676   5.577  17.271  0.00  0.00    +0.000 A 
ATOM     20  C   UNL     1      47.900   4.509  16.809  0.00  0.00    +0.000 A 
ATOM     21  C   UNL     1      47.519   4.531  15.478  0.00  0.00    +0.000 A 
ATOM     22  N   UNL     1      47.845   5.515  14.611  0.00  0.00    +0.000 NA
BRANCH  20  23
ATOM     23  C   UNL     1      47.502   3.427  17.740  0.00  0.00    +0.000 C 
ATOM     24  N   UNL     1      48.307   3.150  18.815  0.00  0.00    +0.000 N 
ATOM     25  O   UNL     1      46.480   2.782  17.560  0.00  0.00    +0.000 OA
ATOM     26  H   UNL     1      49.162   3.618  19.062  0.00  0.00    +0.000 HD
ATOM     27  H   UNL     1      48.003   2.396  19.422  0.00  0.00    +0.000 HD
ENDBRANCH  20  23
ENDBRANCH  16  17
ENDBRANCH  15  16
ENDBRANCH   2  15
TORSDOF 6
ENDMDL
MODEL 6
REMARK VINA RESULT:    -6.794      1.790      7.808
REMARK INTER + INTRA:         -10.166
REMARK INTER:                  -9.059
REMARK INTRA:                  -1.108
REMARK UNBOUND:                -0.989
REMARK  Name = 
REMARK  7 active torsions:
REMARK  status: ('A' for Active; 'I' for Inactive)
REMARK    1  A    between atoms: C_1  and  C_2
REMARK    2  A    between atoms: C_2  and  C_3
REMARK    3  A    between atoms: C_2  and  C_14
REMARK    4  A    between atoms: C_3  and  O_4
REMARK    5  A    between atoms: O_4  and  C_5
REMARK    6  A    between atoms: C_8  and  C_9
REMARK    7  A    between atoms: C_18  and  N_19
REMARK                            x       y       z     vdW  Elec       q    Type
REMARK                         _______ _______ _______ _____ _____    ______ ____
ROOT
ATOM      1  C   UNL     1      44.774   8.720  11.706  0.00  0.00    +0.000 C 
ATOM      2  C   UNL     1      45.811   7.595  11.767  0.00  0.00    +0.000 C 
ENDROOT
BRANCH   2   3
ATOM      3  C   UNL     1      45.181   6.229  11.519  0.00  0.00    +0.000 A 
ATOM      4  C   UNL     1      44.239   5.737  12.429  0.00  0.00    +0.000 A 
ATOM      5  C   UNL     1      43.640   4.499  12.225  0.00  0.00    +0.000 A 
ATOM      6  C   UNL     1      43.949   3.757  11.087  0.00  0.00    +0.000 A 
ATOM      7  C   UNL     1      44.854   4.221  10.123  0.00  0.00    +0.000 A 
ATOM      8  C   UNL     1      45.490   5.449  10.384  0.00  0.00    +0.000 A 
BRANCH   7   9
ATOM      9  N   UNL     1      45.085   3.502   8.972  0.00  0.00    +0.000 N 
ATOM     10  C   UNL     1      44.776   2.067   8.877  0.00  0.00    +0.000 C 
ATOM     11  C   UNL     1      46.021   1.312   8.395  0.00  0.00    +0.000 C 
ATOM     12  O   UNL     1      46.503   1.842   7.148  0.00  0.00    +0.000 OA
ATOM     13  C   UNL     1      46.841   3.234   7.293  0.00  0.00    +0.000 C 
ATOM     14  C   UNL     1      45.632   4.080   7.741  0.00  0.00    +0.000 C 
ENDBRANCH   7   9
ENDBRANCH   2   3
BRANCH   2  15
ATOM     15  C   UNL     1      46.599   7.633  13.088  0.00  0.00    +0.000 C 
BRANCH  15  16
ATOM     16  O   UNL     1      47.675   6.677  13.050  0.00  0.00    +0.000 OA
BRANCH  16  17
ATOM     17  C   UNL     1      47.787   5.977  14.234  0.00  0.00    +0.000 A 
ATOM     18  C   UNL     1      47.017   4.836  14.393  0.00  0.00    +0.000 A 
ATOM     19  C   UNL     1      47.148   4.108  15.581  0.00  0.00    +0.000 A 
ATOM     20  C   UNL     1      48.042   4.542  16.567  0.00  0.00    +0.000 A 
ATOM     21  C   UNL     1      48.756   5.700  16.309  0.00  0.00    +0.000 A 
ATOM     22  N   UNL     1      48.647   6.424  15.173  0.00  0.00    +0.000 NA
BRANCH  20  23
ATOM     23  C   UNL     1      48.205   3.758  17.814  0.00  0.00    +0.000 C 
ATOM     24  N   UNL     1      47.268   2.807  18.125  0.00  0.00    +0.000 N 
ATOM     25  O   UNL     1      49.152   3.951  18.562  0.00  0.00    +0.000 OA
ATOM     26  H   UNL     1      46.457   2.563  17.582  0.00  0.00    +0.000 HD
ATOM     27  H   UNL     1      47.412   2.300  18.991  0.00  0.00    +0.000 HD
ENDBRANCH  20  23
ENDBRANCH  16  17
ENDBRANCH  15  16
ENDBRANCH   2  15
TORSDOF 6
ENDMDL
MODEL 7
REMARK VINA RESULT:    -6.659      3.061      3.969
REMARK INTER + INTRA:          -9.984
REMARK INTER:                  -9.286
REMARK INTRA:                  -0.699
REMARK UNBOUND:                -0.989
REMARK  Name = 
REMARK  7 active torsions:
REMARK  status: ('A' for Active; 'I' for Inactive)
REMARK    1  A    between atoms: C_1  and  C_2
REMARK    2  A    between atoms: C_2  and  C_3
REMARK    3  A    between atoms: C_2  and  C_14
REMARK    4  A    between atoms: C_3  and  O_4
REMARK    5  A    between atoms: O_4  and  C_5
REMARK    6  A    between atoms: C_8  and  C_9
REMARK    7  A    between atoms: C_18  and  N_19
REMARK                            x       y       z     vdW  Elec       q    Type
REMARK                         _______ _______ _______ _____ _____    ______ ____
ROOT
ATOM      1  C   UNL     1      45.756   4.602  13.263  0.00  0.00    +0.000 C 
ATOM      2  C   UNL     1      45.821   5.316  11.909  0.00  0.00    +0.000 C 
ENDROOT
BRANCH   2   3
ATOM      3  C   UNL     1      46.249   6.772  12.056  0.00  0.00    +0.000 A 
ATOM      4  C   UNL     1      45.335   7.704  12.560  0.00  0.00    +0.000 A 
ATOM      5  C   UNL     1      45.699   9.037  12.714  0.00  0.00    +0.000 A 
ATOM      6  C   UNL     1      46.995   9.444  12.402  0.00  0.00    +0.000 A 
ATOM      7  C   UNL     1      47.961   8.544  11.933  0.00  0.00    +0.000 A 
ATOM      8  C   UNL     1      47.549   7.214  11.730  0.00  0.00    +0.000 A 
BRANCH   7   9
ATOM      9  N   UNL     1      49.254   8.958  11.703  0.00  0.00    +0.000 N 
ATOM     10  C   UNL     1      50.370   8.005  11.610  0.00  0.00    +0.000 C 
ATOM     11  C   UNL     1      51.479   8.427  12.582  0.00  0.00    +0.000 C 
ATOM     12  O   UNL     1      51.904   9.779  12.333  0.00  0.00    +0.000 OA
ATOM     13  C   UNL     1      50.797  10.687  12.481  0.00  0.00    +0.000 C 
ATOM     14  C   UNL     1      49.644  10.358  11.510  0.00  0.00    +0.000 C 
ENDBRANCH   7   9
ENDBRANCH   2   3
BRANCH   2  15
ATOM     15  C   UNL     1      44.494   5.181  11.144  0.00  0.00    +0.000 C 
BRANCH  15  16
ATOM     16  O   UNL     1      44.280   3.809  10.763  0.00  0.00    +0.000 OA
BRANCH  16  17
ATOM     17  C   UNL     1      44.994   3.469   9.632  0.00  0.00    +0.000 A 
ATOM     18  C   UNL     1      45.338   4.481   8.748  0.00  0.00    +0.000 A 
ATOM     19  C   UNL     1      46.086   4.145   7.615  0.00  0.00    +0.000 A 
ATOM     20  C   UNL     1      46.467   2.815   7.403  0.00  0.00    +0.000 A 
ATOM     21  C   UNL     1      46.064   1.883   8.344  0.00  0.00    +0.000 A 
ATOM     22  N   UNL     1      45.339   2.178   9.445  0.00  0.00    +0.000 NA
BRANCH  20  23
ATOM     23  C   UNL     1      47.285   2.460   6.219  0.00  0.00    +0.000 C 
ATOM     24  N   UNL     1      48.620   2.202   6.392  0.00  0.00    +0.000 N 
ATOM     25  O   UNL     1      46.790   2.400   5.103  0.00  0.00    +0.000 OA
ATOM     26  H   UNL     1      49.128   2.216   7.260  0.00  0.00    +0.000 HD
ATOM     27  H   UNL     1      49.146   1.972   5.555  0.00  0.00    +0.000 HD
ENDBRANCH  20  23
ENDBRANCH  16  17
ENDBRANCH  15  16
ENDBRANCH   2  15
TORSDOF 6
ENDMDL
MODEL 8
REMARK VINA RESULT:    -6.368      5.238      8.487
REMARK INTER + INTRA:          -9.590
REMARK INTER:                  -8.709
REMARK INTRA:                  -0.881
REMARK UNBOUND:                -0.989
REMARK  Name = 
REMARK  7 active torsions:
REMARK  status: ('A' for Active; 'I' for Inactive)
REMARK    1  A    between atoms: C_1  and  C_2
REMARK    2  A    between atoms: C_2  and  C_3
REMARK    3  A    between atoms: C_2  and  C_14
REMARK    4  A    between atoms: C_3  and  O_4
REMARK    5  A    between atoms: O_4  and  C_5
REMARK    6  A    between atoms: C_8  and  C_9
REMARK    7  A    between atoms: C_18  and  N_19
REMARK                            x       y       z     vdW  Elec       q    Type
REMARK                         _______ _______ _______ _____ _____    ______ ____
ROOT
ATOM      1  C   UNL     1      46.926  10.759  11.462  0.00  0.00    +0.000 C 
ATOM      2  C   UNL     1      45.685  10.065  12.031  0.00  0.00    +0.000 C 
ENDROOT
BRANCH   2   3
ATOM      3  C   UNL     1      45.918   8.573  12.242  0.00  0.00    +0.000 A 
ATOM      4  C   UNL     1      47.062   8.151  12.927  0.00  0.00    +0.000 A 
ATOM      5  C   UNL     1      47.298   6.798  13.143  0.00  0.00    +0.000 A 
ATOM      6  C   UNL     1      46.369   5.854  12.708  0.00  0.00    +0.000 A 
ATOM      7  C   UNL     1      45.187   6.224  12.053  0.00  0.00    +0.000 A 
ATOM      8  C   UNL     1      45.003   7.595  11.795  0.00  0.00    +0.000 A 
BRANCH   7   9
ATOM      9  N   UNL     1      44.253   5.276  11.700  0.00  0.00    +0.000 N 
ATOM     10  C   UNL     1      43.423   4.593  12.703  0.00  0.00    +0.000 C 
ATOM     11  C   UNL     1      43.549   3.076  12.517  0.00  0.00    +0.000 C 
ATOM     12  O   UNL     1      43.204   2.684  11.176  0.00  0.00    +0.000 OA
ATOM     13  C   UNL     1      44.069   3.335  10.226  0.00  0.00    +0.000 C 
ATOM     14  C   UNL     1      43.978   4.872  10.318  0.00  0.00    +0.000 C 
ENDBRANCH   7   9
ENDBRANCH   2   3
BRANCH   2  15
ATOM     15  C   UNL     1      44.446  10.337  11.161  0.00  0.00    +0.000 C 
BRANCH  15  16
ATOM     16  O   UNL     1      43.722  11.471  11.673  0.00  0.00    +0.000 OA
BRANCH  16  17
ATOM     17  C   UNL     1      42.364  11.233  11.731  0.00  0.00    +0.000 A 
ATOM     18  C   UNL     1      41.840  10.238  10.921  0.00  0.00    +0.000 A 
ATOM     19  C   UNL     1      40.468   9.975  10.998  0.00  0.00    +0.000 A 
ATOM     20  C   UNL     1      39.668  10.711  11.879  0.00  0.00    +0.000 A 
ATOM     21  C   UNL     1      40.291  11.687  12.636  0.00  0.00    +0.000 A 
ATOM     22  N   UNL     1      41.612  11.965  12.580  0.00  0.00    +0.000 NA
BRANCH  20  23
ATOM     23  C   UNL     1      38.219  10.414  11.985  0.00  0.00    +0.000 C 
ATOM     24  N   UNL     1      37.339  11.457  12.118  0.00  0.00    +0.000 N 
ATOM     25  O   UNL     1      37.806   9.265  11.961  0.00  0.00    +0.000 OA
ATOM     26  H   UNL     1      37.567  12.436  12.143  0.00  0.00    +0.000 HD
ATOM     27  H   UNL     1      36.359  11.210  12.197  0.00  0.00    +0.000 HD
ENDBRANCH  20  23
ENDBRANCH  16  17
ENDBRANCH  15  16
ENDBRANCH   2  15
TORSDOF 6
ENDMDL
MODEL 9
REMARK VINA RESULT:    -6.338      3.160      8.159
REMARK INTER + INTRA:          -9.550
REMARK INTER:                  -8.741
REMARK INTRA:                  -0.809
REMARK UNBOUND:                -0.989
REMARK  Name = 
REMARK  7 active torsions:
REMARK  status: ('A' for Active; 'I' for Inactive)
REMARK    1  A    between atoms: C_1  and  C_2
REMARK    2  A    between atoms: C_2  and  C_3
REMARK    3  A    between atoms: C_2  and  C_14
REMARK    4  A    between atoms: C_3  and  O_4
REMARK    5  A    between atoms: O_4  and  C_5
REMARK    6  A    between atoms: C_8  and  C_9
REMARK    7  A    between atoms: C_18  and  N_19
REMARK                            x       y       z     vdW  Elec       q    Type
REMARK                         _______ _______ _______ _____ _____    ______ ____
ROOT
ATOM      1  C   UNL     1      48.844   7.565  16.106  0.00  0.00    +0.000 C 
ATOM      2  C   UNL     1      48.726   6.261  15.313  0.00  0.00    +0.000 C 
ENDROOT
BRANCH   2   3
ATOM      3  C   UNL     1      48.078   6.484  13.951  0.00  0.00    +0.000 A 
ATOM      4  C   UNL     1      48.746   7.258  12.996  0.00  0.00    +0.000 A 
ATOM      5  C   UNL     1      48.185   7.471  11.741  0.00  0.00    +0.000 A 
ATOM      6  C   UNL     1      46.966   6.880  11.416  0.00  0.00    +0.000 A 
ATOM      7  C   UNL     1      46.274   6.062  12.321  0.00  0.00    +0.000 A 
ATOM      8  C   UNL     1      46.836   5.912  13.602  0.00  0.00    +0.000 A 
BRANCH   7   9
ATOM      9  N   UNL     1      45.109   5.431  11.948  0.00  0.00    +0.000 N 
ATOM     10  C   UNL     1      43.964   5.311  12.863  0.00  0.00    +0.000 C 
ATOM     11  C   UNL     1      43.543   3.839  12.957  0.00  0.00    +0.000 C 
ATOM     12  O   UNL     1      43.252   3.295  11.656  0.00  0.00    +0.000 OA
ATOM     13  C   UNL     1      44.411   3.386  10.806  0.00  0.00    +0.000 C 
ATOM     14  C   UNL     1      44.884   4.843  10.624  0.00  0.00    +0.000 C 
ENDBRANCH   7   9
ENDBRANCH   2   3
BRANCH   2  15
ATOM     15  C   UNL     1      47.998   5.177  16.126  0.00  0.00    +0.000 C 
BRANCH  15  16
ATOM     16  O   UNL     1      48.580   5.070  17.439  0.00  0.00    +0.000 OA
BRANCH  16  17
ATOM     17  C   UNL     1      49.597   4.138  17.478  0.00  0.00    +0.000 A 
ATOM     18  C   UNL     1      50.807   4.517  18.040  0.00  0.00    +0.000 A 
ATOM     19  C   UNL     1      51.832   3.566  18.107  0.00  0.00    +0.000 A 
ATOM     20  C   UNL     1      51.615   2.274  17.615  0.00  0.00    +0.000 A 
ATOM     21  C   UNL     1      50.373   2.005  17.067  0.00  0.00    +0.000 A 
ATOM     22  N   UNL     1      49.367   2.903  16.986  0.00  0.00    +0.000 NA
BRANCH  20  23
ATOM     23  C   UNL     1      52.688   1.256  17.711  0.00  0.00    +0.000 C 
ATOM     24  N   UNL     1      52.367  -0.004  18.146  0.00  0.00    +0.000 N 
ATOM     25  O   UNL     1      53.843   1.526  17.417  0.00  0.00    +0.000 OA
ATOM     26  H   UNL     1      51.454  -0.335  18.407  0.00  0.00    +0.000 HD
ATOM     27  H   UNL     1      53.132  -0.667  18.207  0.00  0.00    +0.000 HD
ENDBRANCH  20  23
ENDBRANCH  16  17
ENDBRANCH  15  16
ENDBRANCH   2  15
TORSDOF 6
ENDMDL
