MODEL 1
REMARK VINA RESULT:    -8.558      0.000      0.000
REMARK INTER + INTRA:         -14.307
REMARK INTER:                 -13.061
REMARK INTRA:                  -1.246
REMARK UNBOUND:                -1.246
REMARK  Name = 
REMARK  11 active torsions:
REMARK  status: ('A' for Active; 'I' for Inactive)
REMARK    1  A    between atoms: C_1  and  N_2
REMARK    2  A    between atoms: C_4  and  C_5
REMARK    3  A    between atoms: N_7  and  C_8
REMARK    4  A    between atoms: C_8  and  C_9
REMARK    5  A    between atoms: C_12  and  C_13
REMARK    6  A    between atoms: C_13  and  N_14
REMARK    7  A    between atoms: N_14  and  C_15
REMARK    8  A    between atoms: C_15  and  C_16
REMARK    9  A    between atoms: C_19  and  C_20
REMARK   10  A    between atoms: C_20  and  O_22
REMARK   11  A    between atoms: C_28  and  O_29
REMARK                            x       y       z     vdW  Elec       q    Type
REMARK                         _______ _______ _______ _____ _____    ______ ____
ROOT
ATOM      1  C   UNL     1      47.243   7.450  12.487  0.00  0.00    +0.000 A 
ATOM      2  C   UNL     1      46.205   8.321  12.128  0.00  0.00    +0.000 A 
ATOM      3  C   UNL     1      44.954   7.822  11.748  0.00  0.00    +0.000 A 
ATOM      4  C   UNL     1      44.719   6.440  11.721  0.00  0.00    +0.000 A 
ATOM      5  C   UNL     1      45.751   5.576  12.099  0.00  0.00    +0.000 A 
ATOM      6  C   UNL     1      46.998   6.071  12.483  0.00  0.00    +0.000 A 
ENDROOT
BRANCH   1   7
ATOM      7  C   UNL     1      48.585   8.002  12.883  0.00  0.00    +0.000 C 
BRANCH   7  10
ATOM      8  C   UNL     1      49.085   7.436  15.211  0.00  0.00    +0.000 C 
ATOM      9  O   UNL     1      48.423   8.380  15.646  0.00  0.00    +0.000 OA
ATOM     10  N   UNL     1      49.225   7.176  13.874  0.00  0.00    +0.000 N 
ATOM     11  H   UNL     1      49.742   6.366  13.564  0.00  0.00    +0.000 HD
BRANCH   8  15
ATOM     12  C   UNL     1      52.526   5.306  18.163  0.00  0.00    +0.000 C 
ATOM     13  N   UNL     1      51.297   5.555  17.440  0.00  0.00    +0.000 N 
ATOM     14  C   UNL     1      51.061   6.633  16.623  0.00  0.00    +0.000 A 
ATOM     15  C   UNL     1      49.770   6.520  16.113  0.00  0.00    +0.000 A 
ATOM     16  C   UNL     1      49.222   5.313  16.662  0.00  0.00    +0.000 A 
ATOM     17  C   UNL     1      48.016   4.607  16.583  0.00  0.00    +0.000 A 
ATOM     18  N   UNL     1      47.850   3.463  17.269  0.00  0.00    +0.000 NA
ATOM     19  C   UNL     1      48.879   3.033  18.019  0.00  0.00    +0.000 A 
ATOM     20  N   UNL     1      50.084   3.607  18.184  0.00  0.00    +0.000 NA
ATOM     21  C   UNL     1      50.194   4.746  17.477  0.00  0.00    +0.000 A 
BRANCH  17  22
ATOM     22  O   UNL     1      46.936   5.000  15.831  0.00  0.00    +0.000 OA
ATOM     23  H   UNL     1      47.110   4.746  14.901  0.00  0.00    +0.000 HD
ENDBRANCH  17  22
ENDBRANCH   8  15
ENDBRANCH   7  10
ENDBRANCH   1   7
BRANCH   4  24
ATOM     24  C   UNL     1      43.382   5.868  11.307  0.00  0.00    +0.000 C 
BRANCH  24  25
ATOM     25  N   UNL     1      43.478   5.179  10.025  0.00  0.00    +0.000 NA
ATOM     26  H   UNL     1      44.217   5.609   9.472  0.00  0.00    +0.000 HD
BRANCH  25  27
ATOM     27  C   UNL     1      43.780   3.760  10.200  0.00  0.00    +0.000 C 
BRANCH  27  28
ATOM     28  C   UNL     1      44.833   3.325   9.204  0.00  0.00    +0.000 A 
ATOM     29  C   UNL     1      45.489   4.249   8.378  0.00  0.00    +0.000 A 
ATOM     30  C   UNL     1      46.468   3.826   7.468  0.00  0.00    +0.000 A 
ATOM     31  C   UNL     1      46.791   2.467   7.367  0.00  0.00    +0.000 A 
ATOM     32  C   UNL     1      46.140   1.543   8.193  0.00  0.00    +0.000 A 
ATOM     33  C   UNL     1      45.171   1.969   9.102  0.00  0.00    +0.000 A 
BRANCH  31  34
ATOM     34  C   UNL     1      47.844   1.940   6.457  0.00  0.00    +0.000 C 
ATOM     35  O   UNL     1      47.713   0.892   5.847  0.00  0.00    +0.000 OA
BRANCH  34  36
ATOM     36  O   UNL     1      48.935   2.724   6.328  0.00  0.00    +0.000 OA
ATOM     37  H   UNL     1      49.789   2.303   6.523  0.00  0.00    +0.000 HD
ENDBRANCH  34  36
ENDBRANCH  31  34
ENDBRANCH  27  28
ENDBRANCH  25  27
ENDBRANCH  24  25
ENDBRANCH   4  24
TORSDOF 10
ENDMDL
MODEL 2
REMARK VINA RESULT:    -8.526      2.285      2.902
REMARK INTER + INTRA:         -14.258
REMARK INTER:                 -13.021
REMARK INTRA:                  -1.238
REMARK UNBOUND:                -1.246
REMARK  Name = 
REMARK  11 active torsions:
REMARK  status: ('A' for Active; 'I' for Inactive)
REMARK    1  A    between atoms: C_1  and  N_2
REMARK    2  A    between atoms: C_4  and  C_5
REMARK    3  A    between atoms: N_7  and  C_8
REMARK    4  A    between atoms: C_8  and  C_9
REMARK    5  A    between atoms: C_12  and  C_13
REMARK    6  A    between atoms: C_13  and  N_14
REMARK    7  A    between atoms: N_14  and  C_15
REMARK    8  A    between atoms: C_15  and  C_16
REMARK    9  A    between atoms: C_19  and  C_20
REMARK   10  A    between atoms: C_20  and  O_22
REMARK   11  A    between atoms: C_28  and  O_29
REMARK                            x       y       z     vdW  Elec       q    Type
REMARK                         _______ _______ _______ _____ _____    ______ ____
ROOT
ATOM      1  C   UNL     1      46.977   6.366  13.150  0.00  0.00    +0.000 A 
ATOM      2  C   UNL     1      46.107   5.388  13.651  0.00  0.00    +0.000 A 
ATOM      3  C   UNL     1      44.920   5.076  12.979  0.00  0.00    +0.000 A 
ATOM      4  C   UNL     1      44.582   5.738  11.790  0.00  0.00    +0.000 A 
ATOM      5  C   UNL     1      45.462   6.699  11.283  0.00  0.00    +0.000 A 
ATOM      6  C   UNL     1      46.650   7.008  11.950  0.00  0.00    +0.000 A 
ENDROOT
BRANCH   1   7
ATOM      7  C   UNL     1      48.243   6.697  13.890  0.00  0.00    +0.000 C 
BRANCH   7  10
ATOM      8  C   UNL     1      49.168   6.413  16.139  0.00  0.00    +0.000 C 
ATOM      9  O   UNL     1      50.330   6.424  15.727  0.00  0.00    +0.000 OA
ATOM     10  N   UNL     1      48.084   6.535  15.312  0.00  0.00    +0.000 N 
ATOM     11  H   UNL     1      47.150   6.565  15.697  0.00  0.00    +0.000 HD
BRANCH   8  15
ATOM     12  C   UNL     1      48.787   4.583  20.785  0.00  0.00    +0.000 C 
ATOM     13  N   UNL     1      48.700   5.468  19.643  0.00  0.00    +0.000 N 
ATOM     14  C   UNL     1      49.126   5.169  18.373  0.00  0.00    +0.000 A 
ATOM     15  C   UNL     1      48.875   6.270  17.558  0.00  0.00    +0.000 A 
ATOM     16  C   UNL     1      48.271   7.266  18.396  0.00  0.00    +0.000 A 
ATOM     17  C   UNL     1      47.780   8.568  18.250  0.00  0.00    +0.000 A 
ATOM     18  N   UNL     1      47.266   9.225  19.304  0.00  0.00    +0.000 NA
ATOM     19  C   UNL     1      47.243   8.584  20.485  0.00  0.00    +0.000 A 
ATOM     20  N   UNL     1      47.677   7.342  20.765  0.00  0.00    +0.000 NA
ATOM     21  C   UNL     1      48.181   6.733  19.677  0.00  0.00    +0.000 A 
BRANCH  17  22
ATOM     22  O   UNL     1      47.777   9.266  17.067  0.00  0.00    +0.000 OA
ATOM     23  H   UNL     1      48.057   8.653  16.357  0.00  0.00    +0.000 HD
ENDBRANCH  17  22
ENDBRANCH   8  15
ENDBRANCH   7  10
ENDBRANCH   1   7
BRANCH   4  24
ATOM     24  C   UNL     1      43.303   5.431  11.044  0.00  0.00    +0.000 C 
BRANCH  24  25
ATOM     25  N   UNL     1      43.577   4.724   9.798  0.00  0.00    +0.000 NA
ATOM     26  H   UNL     1      44.282   5.239   9.274  0.00  0.00    +0.000 HD
BRANCH  25  27
ATOM     27  C   UNL     1      44.063   3.369  10.045  0.00  0.00    +0.000 C 
BRANCH  27  28
ATOM     28  C   UNL     1      45.043   2.963   8.967  0.00  0.00    +0.000 A 
ATOM     29  C   UNL     1      45.472   1.634   8.826  0.00  0.00    +0.000 A 
ATOM     30  C   UNL     1      46.374   1.277   7.813  0.00  0.00    +0.000 A 
ATOM     31  C   UNL     1      46.868   2.253   6.939  0.00  0.00    +0.000 A 
ATOM     32  C   UNL     1      46.439   3.579   7.075  0.00  0.00    +0.000 A 
ATOM     33  C   UNL     1      45.536   3.929   8.080  0.00  0.00    +0.000 A 
BRANCH  31  34
ATOM     34  C   UNL     1      47.796   1.952   5.815  0.00  0.00    +0.000 C 
ATOM     35  O   UNL     1      48.141   0.815   5.542  0.00  0.00    +0.000 OA
BRANCH  34  36
ATOM     36  O   UNL     1      48.195   3.024   5.098  0.00  0.00    +0.000 OA
ATOM     37  H   UNL     1      48.433   3.816   5.610  0.00  0.00    +0.000 HD
ENDBRANCH  34  36
ENDBRANCH  31  34
ENDBRANCH  27  28
ENDBRANCH  25  27
ENDBRANCH  24  25
ENDBRANCH   4  24
TORSDOF 10
ENDMDL
MODEL 3
REMARK VINA RESULT:    -8.418      2.223      2.562
REMARK INTER + INTRA:         -14.094
REMARK INTER:                 -12.872
REMARK INTRA:                  -1.222
REMARK UNBOUND:                -1.246
REMARK  Name = 
REMARK  11 active torsions:
REMARK  status: ('A' for Active; 'I' for Inactive)
REMARK    1  A    between atoms: C_1  and  N_2
REMARK    2  A    between atoms: C_4  and  C_5
REMARK    3  A    between atoms: N_7  and  C_8
REMARK    4  A    between atoms: C_8  and  C_9
REMARK    5  A    between atoms: C_12  and  C_13
REMARK    6  A    between atoms: C_13  and  N_14
REMARK    7  A    between atoms: N_14  and  C_15
REMARK    8  A    between atoms: C_15  and  C_16
REMARK    9  A    between atoms: C_19  and  C_20
REMARK   10  A    between atoms: C_20  and  O_22
REMARK   11  A    between atoms: C_28  and  O_29
REMARK                            x       y       z     vdW  Elec       q    Type
REMARK                         _______ _______ _______ _____ _____    ______ ____
ROOT
ATOM      1  C   UNL     1      47.002   6.268  13.106  0.00  0.00    +0.000 A 
ATOM      2  C   UNL     1      46.750   6.872  11.866  0.00  0.00    +0.000 A 
ATOM      3  C   UNL     1      45.559   6.619  11.178  0.00  0.00    +0.000 A 
ATOM      4  C   UNL     1      44.595   5.755  11.718  0.00  0.00    +0.000 A 
ATOM      5  C   UNL     1      44.841   5.170  12.964  0.00  0.00    +0.000 A 
ATOM      6  C   UNL     1      46.027   5.426  13.656  0.00  0.00    +0.000 A 
ENDROOT
BRANCH   1   7
ATOM      7  C   UNL     1      48.291   6.541  13.828  0.00  0.00    +0.000 C 
BRANCH   7  10
ATOM      8  C   UNL     1      49.025   6.633  16.162  0.00  0.00    +0.000 C 
ATOM      9  O   UNL     1      50.122   6.136  15.900  0.00  0.00    +0.000 OA
ATOM     10  N   UNL     1      48.065   6.863  15.214  0.00  0.00    +0.000 N 
ATOM     11  H   UNL     1      47.196   7.312  15.467  0.00  0.00    +0.000 HD
BRANCH   8  15
ATOM     12  C   UNL     1      47.648   9.279  20.186  0.00  0.00    +0.000 C 
ATOM     13  N   UNL     1      48.061   8.184  19.335  0.00  0.00    +0.000 N 
ATOM     14  C   UNL     1      48.309   8.275  17.987  0.00  0.00    +0.000 A 
ATOM     15  C   UNL     1      48.679   7.015  17.525  0.00  0.00    +0.000 A 
ATOM     16  C   UNL     1      48.646   6.140  18.661  0.00  0.00    +0.000 A 
ATOM     17  C   UNL     1      48.891   4.787  18.920  0.00  0.00    +0.000 A 
ATOM     18  N   UNL     1      48.748   4.294  20.162  0.00  0.00    +0.000 NA
ATOM     19  C   UNL     1      48.367   5.146  21.129  0.00  0.00    +0.000 A 
ATOM     20  N   UNL     1      48.100   6.460  21.021  0.00  0.00    +0.000 NA
ATOM     21  C   UNL     1      48.259   6.898  19.759  0.00  0.00    +0.000 A 
BRANCH  17  22
ATOM     22  O   UNL     1      49.285   3.876  17.971  0.00  0.00    +0.000 OA
ATOM     23  H   UNL     1      49.466   3.028  18.426  0.00  0.00    +0.000 HD
ENDBRANCH  17  22
ENDBRANCH   8  15
ENDBRANCH   7  10
ENDBRANCH   1   7
BRANCH   4  24
ATOM     24  C   UNL     1      43.301   5.454  10.996  0.00  0.00    +0.000 C 
BRANCH  24  25
ATOM     25  N   UNL     1      43.544   4.688   9.779  0.00  0.00    +0.000 NA
ATOM     26  H   UNL     1      44.189   5.205   9.185  0.00  0.00    +0.000 HD
BRANCH  25  27
ATOM     27  C   UNL     1      44.118   3.377  10.075  0.00  0.00    +0.000 C 
BRANCH  27  28
ATOM     28  C   UNL     1      45.082   2.971   8.981  0.00  0.00    +0.000 A 
ATOM     29  C   UNL     1      45.474   1.636   8.805  0.00  0.00    +0.000 A 
ATOM     30  C   UNL     1      46.362   1.280   7.780  0.00  0.00    +0.000 A 
ATOM     31  C   UNL     1      46.878   2.264   6.927  0.00  0.00    +0.000 A 
ATOM     32  C   UNL     1      46.485   3.597   7.098  0.00  0.00    +0.000 A 
ATOM     33  C   UNL     1      45.596   3.946   8.116  0.00  0.00    +0.000 A 
BRANCH  31  34
ATOM     34  C   UNL     1      47.792   1.967   5.791  0.00  0.00    +0.000 C 
ATOM     35  O   UNL     1      48.138   0.831   5.514  0.00  0.00    +0.000 OA
BRANCH  34  36
ATOM     36  O   UNL     1      48.178   3.040   5.069  0.00  0.00    +0.000 OA
ATOM     37  H   UNL     1      48.396   3.840   5.576  0.00  0.00    +0.000 HD
ENDBRANCH  34  36
ENDBRANCH  31  34
ENDBRANCH  27  28
ENDBRANCH  25  27
ENDBRANCH  24  25
ENDBRANCH   4  24
TORSDOF 10
ENDMDL
MODEL 4
REMARK VINA RESULT:    -7.821      1.354      2.425
REMARK INTER + INTRA:         -13.182
REMARK INTER:                 -11.911
REMARK INTRA:                  -1.270
REMARK UNBOUND:                -1.246
REMARK  Name = 
REMARK  11 active torsions:
REMARK  status: ('A' for Active; 'I' for Inactive)
REMARK    1  A    between atoms: C_1  and  N_2
REMARK    2  A    between atoms: C_4  and  C_5
REMARK    3  A    between atoms: N_7  and  C_8
REMARK    4  A    between atoms: C_8  and  C_9
REMARK    5  A    between atoms: C_12  and  C_13
REMARK    6  A    between atoms: C_13  and  N_14
REMARK    7  A    between atoms: N_14  and  C_15
REMARK    8  A    between atoms: C_15  and  C_16
REMARK    9  A    between atoms: C_19  and  C_20
REMARK   10  A    between atoms: C_20  and  O_22
REMARK   11  A    between atoms: C_28  and  O_29
REMARK                            x       y       z     vdW  Elec       q    Type
REMARK                         _______ _______ _______ _____ _____    ______ ____
ROOT
ATOM      1  C   UNL     1      47.550   7.246  13.280  0.00  0.00    +0.000 A 
ATOM      2  C   UNL     1      47.394   5.914  12.874  0.00  0.00    +0.000 A 
ATOM      3  C   UNL     1      46.185   5.471  12.327  0.00  0.00    +0.000 A 
ATOM      4  C   UNL     1      45.107   6.355  12.178  0.00  0.00    +0.000 A 
ATOM      5  C   UNL     1      45.273   7.688  12.567  0.00  0.00    +0.000 A 
ATOM      6  C   UNL     1      46.481   8.134  13.107  0.00  0.00    +0.000 A 
ENDROOT
BRANCH   1   7
ATOM      7  C   UNL     1      48.853   7.704  13.875  0.00  0.00    +0.000 C 
BRANCH   7  10
ATOM      8  C   UNL     1      48.968   7.387  16.300  0.00  0.00    +0.000 C 
ATOM      9  O   UNL     1      48.449   8.482  16.528  0.00  0.00    +0.000 OA
ATOM     10  N   UNL     1      49.209   6.926  15.034  0.00  0.00    +0.000 N 
ATOM     11  H   UNL     1      49.596   6.004  14.893  0.00  0.00    +0.000 HD
BRANCH   8  15
ATOM     12  C   UNL     1      48.887   4.551  20.427  0.00  0.00    +0.000 C 
ATOM     13  N   UNL     1      49.340   5.224  19.229  0.00  0.00    +0.000 N 
ATOM     14  C   UNL     1      48.573   6.049  18.444  0.00  0.00    +0.000 A 
ATOM     15  C   UNL     1      49.360   6.500  17.387  0.00  0.00    +0.000 A 
ATOM     16  C   UNL     1      50.655   5.909  17.564  0.00  0.00    +0.000 A 
ATOM     17  C   UNL     1      51.887   5.923  16.901  0.00  0.00    +0.000 A 
ATOM     18  N   UNL     1      52.925   5.212  17.375  0.00  0.00    +0.000 NA
ATOM     19  C   UNL     1      52.728   4.500  18.497  0.00  0.00    +0.000 A 
ATOM     20  N   UNL     1      51.606   4.396  19.231  0.00  0.00    +0.000 NA
ATOM     21  C   UNL     1      50.603   5.127  18.711  0.00  0.00    +0.000 A 
BRANCH  17  22
ATOM     22  O   UNL     1      52.142   6.635  15.754  0.00  0.00    +0.000 OA
ATOM     23  H   UNL     1      51.281   6.860  15.344  0.00  0.00    +0.000 HD
ENDBRANCH  17  22
ENDBRANCH   8  15
ENDBRANCH   7  10
ENDBRANCH   1   7
BRANCH   4  24
ATOM     24  C   UNL     1      43.783   5.907  11.600  0.00  0.00    +0.000 C 
BRANCH  24  25
ATOM     25  N   UNL     1      43.941   5.431  10.230  0.00  0.00    +0.000 NA
ATOM     26  H   UNL     1      44.868   5.687   9.896  0.00  0.00    +0.000 HD
BRANCH  25  27
ATOM     27  C   UNL     1      43.788   3.981  10.145  0.00  0.00    +0.000 C 
BRANCH  27  28
ATOM     28  C   UNL     1      44.820   3.403   9.202  0.00  0.00    +0.000 A 
ATOM     29  C   UNL     1      45.065   2.023   9.137  0.00  0.00    +0.000 A 
ATOM     30  C   UNL     1      46.020   1.507   8.250  0.00  0.00    +0.000 A 
ATOM     31  C   UNL     1      46.752   2.372   7.426  0.00  0.00    +0.000 A 
ATOM     32  C   UNL     1      46.507   3.749   7.487  0.00  0.00    +0.000 A 
ATOM     33  C   UNL     1      45.550   4.258   8.367  0.00  0.00    +0.000 A 
BRANCH  31  34
ATOM     34  C   UNL     1      47.754   1.904   6.431  0.00  0.00    +0.000 C 
ATOM     35  O   UNL     1      47.553   0.944   5.707  0.00  0.00    +0.000 OA
BRANCH  34  36
ATOM     36  O   UNL     1      48.881   2.642   6.362  0.00  0.00    +0.000 OA
ATOM     37  H   UNL     1      48.791   3.583   6.589  0.00  0.00    +0.000 HD
ENDBRANCH  34  36
ENDBRANCH  31  34
ENDBRANCH  27  28
ENDBRANCH  25  27
ENDBRANCH  24  25
ENDBRANCH   4  24
TORSDOF 10
ENDMDL
MODEL 5
REMARK VINA RESULT:    -7.763      3.345      5.480
REMARK INTER + INTRA:         -13.093
REMARK INTER:                 -11.564
REMARK INTRA:                  -1.529
REMARK UNBOUND:                -1.246
REMARK  Name = 
REMARK  11 active torsions:
REMARK  status: ('A' for Active; 'I' for Inactive)
REMARK    1  A    between atoms: C_1  and  N_2
REMARK    2  A    between atoms: C_4  and  C_5
REMARK    3  A    between atoms: N_7  and  C_8
REMARK    4  A    between atoms: C_8  and  C_9
REMARK    5  A    between atoms: C_12  and  C_13
REMARK    6  A    between atoms: C_13  and  N_14
REMARK    7  A    between atoms: N_14  and  C_15
REMARK    8  A    between atoms: C_15  and  C_16
REMARK    9  A    between atoms: C_19  and  C_20
REMARK   10  A    between atoms: C_20  and  O_22
REMARK   11  A    between atoms: C_28  and  O_29
REMARK                            x       y       z     vdW  Elec       q    Type
REMARK                         _______ _______ _______ _____ _____    ______ ____
ROOT
ATOM      1  C   UNL     1      47.681   6.433  12.847  0.00  0.00    +0.000 A 
ATOM      2  C   UNL     1      47.144   6.974  11.671  0.00  0.00    +0.000 A 
ATOM      3  C   UNL     1      45.837   6.670  11.276  0.00  0.00    +0.000 A 
ATOM      4  C   UNL     1      45.041   5.817  12.054  0.00  0.00    +0.000 A 
ATOM      5  C   UNL     1      45.574   5.294  13.237  0.00  0.00    +0.000 A 
ATOM      6  C   UNL     1      46.876   5.601  13.635  0.00  0.00    +0.000 A 
ENDROOT
BRANCH   1   7
ATOM      7  C   UNL     1      49.092   6.761  13.251  0.00  0.00    +0.000 C 
BRANCH   7  10
ATOM      8  C   UNL     1      50.554   8.658  12.741  0.00  0.00    +0.000 C 
ATOM      9  O   UNL     1      50.818   8.850  13.929  0.00  0.00    +0.000 OA
ATOM     10  N   UNL     1      49.715   7.662  12.316  0.00  0.00    +0.000 N 
ATOM     11  H   UNL     1      49.560   7.513  11.329  0.00  0.00    +0.000 HD
BRANCH   8  15
ATOM     12  C   UNL     1      51.907  12.606   9.973  0.00  0.00    +0.000 C 
ATOM     13  N   UNL     1      51.749  11.249  10.449  0.00  0.00    +0.000 N 
ATOM     14  C   UNL     1      51.053  10.877  11.573  0.00  0.00    +0.000 A 
ATOM     15  C   UNL     1      51.132   9.492  11.697  0.00  0.00    +0.000 A 
ATOM     16  C   UNL     1      51.916   9.029  10.588  0.00  0.00    +0.000 A 
ATOM     17  C   UNL     1      52.381   7.802  10.103  0.00  0.00    +0.000 A 
ATOM     18  N   UNL     1      53.127   7.748   8.986  0.00  0.00    +0.000 NA
ATOM     19  C   UNL     1      53.401   8.908   8.366  0.00  0.00    +0.000 A 
ATOM     20  N   UNL     1      53.022  10.150   8.720  0.00  0.00    +0.000 NA
ATOM     21  C   UNL     1      52.280  10.143   9.841  0.00  0.00    +0.000 A 
BRANCH  17  22
ATOM     22  O   UNL     1      52.127   6.589  10.696  0.00  0.00    +0.000 OA
ATOM     23  H   UNL     1      52.180   6.713  11.666  0.00  0.00    +0.000 HD
ENDBRANCH  17  22
ENDBRANCH   8  15
ENDBRANCH   7  10
ENDBRANCH   1   7
BRANCH   4  24
ATOM     24  C   UNL     1      43.627   5.460  11.652  0.00  0.00    +0.000 C 
BRANCH  24  25
ATOM     25  N   UNL     1      43.576   4.982  10.275  0.00  0.00    +0.000 NA
ATOM     26  H   UNL     1      44.328   5.418   9.745  0.00  0.00    +0.000 HD
BRANCH  25  27
ATOM     27  C   UNL     1      43.726   3.530  10.205  0.00  0.00    +0.000 C 
BRANCH  27  28
ATOM     28  C   UNL     1      44.796   3.165   9.200  0.00  0.00    +0.000 A 
ATOM     29  C   UNL     1      45.425   4.138   8.410  0.00  0.00    +0.000 A 
ATOM     30  C   UNL     1      46.421   3.779   7.491  0.00  0.00    +0.000 A 
ATOM     31  C   UNL     1      46.788   2.436   7.344  0.00  0.00    +0.000 A 
ATOM     32  C   UNL     1      46.165   1.463   8.134  0.00  0.00    +0.000 A 
ATOM     33  C   UNL     1      45.179   1.825   9.052  0.00  0.00    +0.000 A 
BRANCH  31  34
ATOM     34  C   UNL     1      47.861   1.976   6.422  0.00  0.00    +0.000 C 
ATOM     35  O   UNL     1      47.771   0.942   5.782  0.00  0.00    +0.000 OA
BRANCH  34  36
ATOM     36  O   UNL     1      48.922   2.804   6.317  0.00  0.00    +0.000 OA
ATOM     37  H   UNL     1      49.057   3.216   5.446  0.00  0.00    +0.000 HD
ENDBRANCH  34  36
ENDBRANCH  31  34
ENDBRANCH  27  28
ENDBRANCH  25  27
ENDBRANCH  24  25
ENDBRANCH   4  24
TORSDOF 10
ENDMDL
MODEL 6
REMARK VINA RESULT:    -7.615      3.465      8.250
REMARK INTER + INTRA:         -12.867
REMARK INTER:                 -10.430
REMARK INTRA:                  -2.437
REMARK UNBOUND:                -1.246
REMARK  Name = 
REMARK  11 active torsions:
REMARK  status: ('A' for Active; 'I' for Inactive)
REMARK    1  A    between atoms: C_1  and  N_2
REMARK    2  A    between atoms: C_4  and  C_5
REMARK    3  A    between atoms: N_7  and  C_8
REMARK    4  A    between atoms: C_8  and  C_9
REMARK    5  A    between atoms: C_12  and  C_13
REMARK    6  A    between atoms: C_13  and  N_14
REMARK    7  A    between atoms: N_14  and  C_15
REMARK    8  A    between atoms: C_15  and  C_16
REMARK    9  A    between atoms: C_19  and  C_20
REMARK   10  A    between atoms: C_20  and  O_22
REMARK   11  A    between atoms: C_28  and  O_29
REMARK                            x       y       z     vdW  Elec       q    Type
REMARK                         _______ _______ _______ _____ _____    ______ ____
ROOT
ATOM      1  C   UNL     1      49.561   7.559  15.332  0.00  0.00    +0.000 A 
ATOM      2  C   UNL     1      48.554   8.379  15.859  0.00  0.00    +0.000 A 
ATOM      3  C   UNL     1      48.452   8.588  17.238  0.00  0.00    +0.000 A 
ATOM      4  C   UNL     1      49.358   7.979  18.118  0.00  0.00    +0.000 A 
ATOM      5  C   UNL     1      50.374   7.178  17.587  0.00  0.00    +0.000 A 
ATOM      6  C   UNL     1      50.481   6.972  16.210  0.00  0.00    +0.000 A 
ENDROOT
BRANCH   1   7
ATOM      7  C   UNL     1      49.651   7.335  13.848  0.00  0.00    +0.000 C 
BRANCH   7  10
ATOM      8  C   UNL     1      47.543   6.299  13.158  0.00  0.00    +0.000 C 
ATOM      9  O   UNL     1      47.865   5.200  13.613  0.00  0.00    +0.000 OA
ATOM     10  N   UNL     1      48.355   7.399  13.223  0.00  0.00    +0.000 N 
ATOM     11  H   UNL     1      48.033   8.291  12.876  0.00  0.00    +0.000 HD
BRANCH   8  15
ATOM     12  C   UNL     1      43.571   8.402  10.949  0.00  0.00    +0.000 C 
ATOM     13  N   UNL     1      44.468   7.422  11.521  0.00  0.00    +0.000 N 
ATOM     14  C   UNL     1      45.692   7.695  12.078  0.00  0.00    +0.000 A 
ATOM     15  C   UNL     1      46.251   6.497  12.514  0.00  0.00    +0.000 A 
ATOM     16  C   UNL     1      45.304   5.468  12.195  0.00  0.00    +0.000 A 
ATOM     17  C   UNL     1      45.213   4.079  12.339  0.00  0.00    +0.000 A 
ATOM     18  N   UNL     1      44.128   3.418  11.898  0.00  0.00    +0.000 NA
ATOM     19  C   UNL     1      43.152   4.140  11.324  0.00  0.00    +0.000 A 
ATOM     20  N   UNL     1      43.109   5.469  11.122  0.00  0.00    +0.000 NA
ATOM     21  C   UNL     1      44.217   6.078  11.582  0.00  0.00    +0.000 A 
BRANCH  17  22
ATOM     22  O   UNL     1      46.179   3.295  12.920  0.00  0.00    +0.000 OA
ATOM     23  H   UNL     1      46.756   3.878  13.456  0.00  0.00    +0.000 HD
ENDBRANCH  17  22
ENDBRANCH   8  15
ENDBRANCH   7  10
ENDBRANCH   1   7
BRANCH   4  24
ATOM     24  C   UNL     1      49.270   8.177  19.615  0.00  0.00    +0.000 C 
BRANCH  24  25
ATOM     25  N   UNL     1      48.005   7.677  20.139  0.00  0.00    +0.000 NA
ATOM     26  H   UNL     1      47.305   7.707  19.400  0.00  0.00    +0.000 HD
BRANCH  25  27
ATOM     27  C   UNL     1      48.128   6.303  20.620  0.00  0.00    +0.000 C 
BRANCH  27  28
ATOM     28  C   UNL     1      48.185   5.345  19.450  0.00  0.00    +0.000 A 
ATOM     29  C   UNL     1      47.200   5.346  18.451  0.00  0.00    +0.000 A 
ATOM     30  C   UNL     1      47.276   4.456  17.370  0.00  0.00    +0.000 A 
ATOM     31  C   UNL     1      48.335   3.543  17.288  0.00  0.00    +0.000 A 
ATOM     32  C   UNL     1      49.320   3.541  18.282  0.00  0.00    +0.000 A 
ATOM     33  C   UNL     1      49.245   4.434  19.352  0.00  0.00    +0.000 A 
BRANCH  31  34
ATOM     34  C   UNL     1      48.511   2.593  16.156  0.00  0.00    +0.000 C 
ATOM     35  O   UNL     1      49.315   1.677  16.194  0.00  0.00    +0.000 OA
BRANCH  34  36
ATOM     36  O   UNL     1      47.689   2.795  15.104  0.00  0.00    +0.000 OA
ATOM     37  H   UNL     1      46.743   2.638  15.264  0.00  0.00    +0.000 HD
ENDBRANCH  34  36
ENDBRANCH  31  34
ENDBRANCH  27  28
ENDBRANCH  25  27
ENDBRANCH  24  25
ENDBRANCH   4  24
TORSDOF 10
ENDMDL
MODEL 7
REMARK VINA RESULT:    -7.591      1.655      2.463
REMARK INTER + INTRA:         -12.831
REMARK INTER:                 -11.873
REMARK INTRA:                  -0.958
REMARK UNBOUND:                -1.246
REMARK  Name = 
REMARK  11 active torsions:
REMARK  status: ('A' for Active; 'I' for Inactive)
REMARK    1  A    between atoms: C_1  and  N_2
REMARK    2  A    between atoms: C_4  and  C_5
REMARK    3  A    between atoms: N_7  and  C_8
REMARK    4  A    between atoms: C_8  and  C_9
REMARK    5  A    between atoms: C_12  and  C_13
REMARK    6  A    between atoms: C_13  and  N_14
REMARK    7  A    between atoms: N_14  and  C_15
REMARK    8  A    between atoms: C_15  and  C_16
REMARK    9  A    between atoms: C_19  and  C_20
REMARK   10  A    between atoms: C_20  and  O_22
REMARK   11  A    between atoms: C_28  and  O_29
REMARK                            x       y       z     vdW  Elec       q    Type
REMARK                         _______ _______ _______ _____ _____    ______ ____
ROOT
ATOM      1  C   UNL     1      48.106   6.920  14.513  0.00  0.00    +0.000 A 
ATOM      2  C   UNL     1      47.477   5.669  14.447  0.00  0.00    +0.000 A 
ATOM      3  C   UNL     1      46.768   5.285  13.303  0.00  0.00    +0.000 A 
ATOM      4  C   UNL     1      46.676   6.148  12.202  0.00  0.00    +0.000 A 
ATOM      5  C   UNL     1      47.322   7.387  12.264  0.00  0.00    +0.000 A 
ATOM      6  C   UNL     1      48.034   7.769  13.402  0.00  0.00    +0.000 A 
ENDROOT
BRANCH   1   7
ATOM      7  C   UNL     1      48.854   7.322  15.753  0.00  0.00    +0.000 C 
BRANCH   7  10
ATOM      8  C   UNL     1      50.339   6.252  17.379  0.00  0.00    +0.000 C 
ATOM      9  O   UNL     1      49.948   6.972  18.300  0.00  0.00    +0.000 OA
ATOM     10  N   UNL     1      49.864   6.355  16.099  0.00  0.00    +0.000 N 
ATOM     11  H   UNL     1      50.181   5.715  15.385  0.00  0.00    +0.000 HD
BRANCH   8  15
ATOM     12  C   UNL     1      54.633   3.924  18.485  0.00  0.00    +0.000 C 
ATOM     13  N   UNL     1      53.260   4.168  18.099  0.00  0.00    +0.000 N 
ATOM     14  C   UNL     1      52.671   5.404  17.997  0.00  0.00    +0.000 A 
ATOM     15  C   UNL     1      51.347   5.225  17.604  0.00  0.00    +0.000 A 
ATOM     16  C   UNL     1      51.151   3.810  17.470  0.00  0.00    +0.000 A 
ATOM     17  C   UNL     1      50.104   2.949  17.121  0.00  0.00    +0.000 A 
ATOM     18  N   UNL     1      50.293   1.618  17.107  0.00  0.00    +0.000 NA
ATOM     19  C   UNL     1      51.512   1.160  17.435  0.00  0.00    +0.000 A 
ATOM     20  N   UNL     1      52.600   1.869  17.788  0.00  0.00    +0.000 NA
ATOM     21  C   UNL     1      52.354   3.191  17.785  0.00  0.00    +0.000 A 
BRANCH  17  22
ATOM     22  O   UNL     1      48.842   3.365  16.775  0.00  0.00    +0.000 OA
ATOM     23  H   UNL     1      48.920   3.922  15.972  0.00  0.00    +0.000 HD
ENDBRANCH  17  22
ENDBRANCH   8  15
ENDBRANCH   7  10
ENDBRANCH   1   7
BRANCH   4  24
ATOM     24  C   UNL     1      45.911   5.768  10.954  0.00  0.00    +0.000 C 
BRANCH  24  25
ATOM     25  N   UNL     1      45.086   4.587  11.182  0.00  0.00    +0.000 NA
ATOM     26  H   UNL     1      44.458   4.767  11.963  0.00  0.00    +0.000 HD
BRANCH  25  27
ATOM     27  C   UNL     1      44.292   4.250  10.002  0.00  0.00    +0.000 C 
BRANCH  27  28
ATOM     28  C   UNL     1      45.142   3.500   9.000  0.00  0.00    +0.000 A 
ATOM     29  C   UNL     1      45.322   2.111   9.082  0.00  0.00    +0.000 A 
ATOM     30  C   UNL     1      46.107   1.435   8.137  0.00  0.00    +0.000 A 
ATOM     31  C   UNL     1      46.732   2.147   7.106  0.00  0.00    +0.000 A 
ATOM     32  C   UNL     1      46.551   3.532   7.020  0.00  0.00    +0.000 A 
ATOM     33  C   UNL     1      45.763   4.201   7.958  0.00  0.00    +0.000 A 
BRANCH  31  34
ATOM     34  C   UNL     1      47.547   1.501   6.042  0.00  0.00    +0.000 C 
ATOM     35  O   UNL     1      47.301   0.383   5.621  0.00  0.00    +0.000 OA
BRANCH  34  36
ATOM     36  O   UNL     1      48.552   2.257   5.551  0.00  0.00    +0.000 OA
ATOM     37  H   UNL     1      48.671   3.129   5.963  0.00  0.00    +0.000 HD
ENDBRANCH  34  36
ENDBRANCH  31  34
ENDBRANCH  27  28
ENDBRANCH  25  27
ENDBRANCH  24  25
ENDBRANCH   4  24
TORSDOF 10
ENDMDL
MODEL 8
REMARK VINA RESULT:    -7.502      1.425      1.911
REMARK INTER + INTRA:         -12.696
REMARK INTER:                 -11.256
REMARK INTRA:                  -1.440
REMARK UNBOUND:                -1.246
REMARK  Name = 
REMARK  11 active torsions:
REMARK  status: ('A' for Active; 'I' for Inactive)
REMARK    1  A    between atoms: C_1  and  N_2
REMARK    2  A    between atoms: C_4  and  C_5
REMARK    3  A    between atoms: N_7  and  C_8
REMARK    4  A    between atoms: C_8  and  C_9
REMARK    5  A    between atoms: C_12  and  C_13
REMARK    6  A    between atoms: C_13  and  N_14
REMARK    7  A    between atoms: N_14  and  C_15
REMARK    8  A    between atoms: C_15  and  C_16
REMARK    9  A    between atoms: C_19  and  C_20
REMARK   10  A    between atoms: C_20  and  O_22
REMARK   11  A    between atoms: C_28  and  O_29
REMARK                            x       y       z     vdW  Elec       q    Type
REMARK                         _______ _______ _______ _____ _____    ______ ____
ROOT
ATOM      1  C   UNL     1      47.278   8.371  12.183  0.00  0.00    +0.000 A 
ATOM      2  C   UNL     1      45.967   8.858  12.279  0.00  0.00    +0.000 A 
ATOM      3  C   UNL     1      44.877   8.039  11.968  0.00  0.00    +0.000 A 
ATOM      4  C   UNL     1      45.078   6.715  11.554  0.00  0.00    +0.000 A 
ATOM      5  C   UNL     1      46.387   6.227  11.478  0.00  0.00    +0.000 A 
ATOM      6  C   UNL     1      47.476   7.041  11.794  0.00  0.00    +0.000 A 
ENDROOT
BRANCH   1   7
ATOM      7  C   UNL     1      48.440   9.267  12.511  0.00  0.00    +0.000 C 
BRANCH   7  10
ATOM      8  C   UNL     1      50.335   8.201  13.636  0.00  0.00    +0.000 C 
ATOM      9  O   UNL     1      50.906   7.956  12.571  0.00  0.00    +0.000 OA
ATOM     10  N   UNL     1      49.123   8.835  13.702  0.00  0.00    +0.000 N 
ATOM     11  H   UNL     1      48.711   9.055  14.598  0.00  0.00    +0.000 HD
BRANCH   8  15
ATOM     12  C   UNL     1      53.526   7.699  17.463  0.00  0.00    +0.000 C 
ATOM     13  N   UNL     1      52.344   7.596  16.635  0.00  0.00    +0.000 N 
ATOM     14  C   UNL     1      52.203   8.139  15.382  0.00  0.00    +0.000 A 
ATOM     15  C   UNL     1      50.929   7.827  14.912  0.00  0.00    +0.000 A 
ATOM     16  C   UNL     1      50.292   7.062  15.944  0.00  0.00    +0.000 A 
ATOM     17  C   UNL     1      49.053   6.443  16.145  0.00  0.00    +0.000 A 
ATOM     18  N   UNL     1      48.795   5.789  17.290  0.00  0.00    +0.000 NA
ATOM     19  C   UNL     1      49.766   5.754  18.218  0.00  0.00    +0.000 A 
ATOM     20  N   UNL     1      50.994   6.300  18.157  0.00  0.00    +0.000 NA
ATOM     21  C   UNL     1      51.196   6.941  16.992  0.00  0.00    +0.000 A 
BRANCH  17  22
ATOM     22  O   UNL     1      48.028   6.446  15.229  0.00  0.00    +0.000 OA
ATOM     23  H   UNL     1      48.293   5.871  14.482  0.00  0.00    +0.000 HD
ENDBRANCH  17  22
ENDBRANCH   8  15
ENDBRANCH   7  10
ENDBRANCH   1   7
BRANCH   4  24
ATOM     24  C   UNL     1      43.922   5.806  11.201  0.00  0.00    +0.000 C 
BRANCH  24  25
ATOM     25  N   UNL     1      44.347   4.412  11.145  0.00  0.00    +0.000 NA
ATOM     26  H   UNL     1      44.073   3.947  12.009  0.00  0.00    +0.000 HD
BRANCH  25  27
ATOM     27  C   UNL     1      43.741   3.710  10.016  0.00  0.00    +0.000 C 
BRANCH  27  28
ATOM     28  C   UNL     1      44.816   3.214   9.074  0.00  0.00    +0.000 A 
ATOM     29  C   UNL     1      45.196   1.864   9.039  0.00  0.00    +0.000 A 
ATOM     30  C   UNL     1      46.189   1.423   8.152  0.00  0.00    +0.000 A 
ATOM     31  C   UNL     1      46.823   2.336   7.299  0.00  0.00    +0.000 A 
ATOM     32  C   UNL     1      46.444   3.683   7.331  0.00  0.00    +0.000 A 
ATOM     33  C   UNL     1      45.450   4.116   8.210  0.00  0.00    +0.000 A 
BRANCH  31  34
ATOM     34  C   UNL     1      47.856   1.944   6.303  0.00  0.00    +0.000 C 
ATOM     35  O   UNL     1      47.671   1.057   5.488  0.00  0.00    +0.000 OA
BRANCH  34  36
ATOM     36  O   UNL     1      48.994   2.668   6.342  0.00  0.00    +0.000 OA
ATOM     37  H   UNL     1      48.904   3.592   6.632  0.00  0.00    +0.000 HD
ENDBRANCH  34  36
ENDBRANCH  31  34
ENDBRANCH  27  28
ENDBRANCH  25  27
ENDBRANCH  24  25
ENDBRANCH   4  24
TORSDOF 10
ENDMDL
MODEL 9
REMARK VINA RESULT:    -7.456      3.863      6.009
REMARK INTER + INTRA:         -12.625
REMARK INTER:                 -11.344
REMARK INTRA:                  -1.281
REMARK UNBOUND:                -1.246
REMARK  Name = 
REMARK  11 active torsions:
REMARK  status: ('A' for Active; 'I' for Inactive)
REMARK    1  A    between atoms: C_1  and  N_2
REMARK    2  A    between atoms: C_4  and  C_5
REMARK    3  A    between atoms: N_7  and  C_8
REMARK    4  A    between atoms: C_8  and  C_9
REMARK    5  A    between atoms: C_12  and  C_13
REMARK    6  A    between atoms: C_13  and  N_14
REMARK    7  A    between atoms: N_14  and  C_15
REMARK    8  A    between atoms: C_15  and  C_16
REMARK    9  A    between atoms: C_19  and  C_20
REMARK   10  A    between atoms: C_20  and  O_22
REMARK   11  A    between atoms: C_28  and  O_29
REMARK                            x       y       z     vdW  Elec       q    Type
REMARK                         _______ _______ _______ _____ _____    ______ ____
ROOT
ATOM      1  C   UNL     1      48.077   6.706  12.813  0.00  0.00    +0.000 A 
ATOM      2  C   UNL     1      47.387   7.008  11.631  0.00  0.00    +0.000 A 
ATOM      3  C   UNL     1      46.136   6.440  11.370  0.00  0.00    +0.000 A 
ATOM      4  C   UNL     1      45.551   5.556  12.289  0.00  0.00    +0.000 A 
ATOM      5  C   UNL     1      46.234   5.273  13.476  0.00  0.00    +0.000 A 
ATOM      6  C   UNL     1      47.480   5.844  13.741  0.00  0.00    +0.000 A 
ENDROOT
BRANCH   1   7
ATOM      7  C   UNL     1      49.426   7.318  13.074  0.00  0.00    +0.000 C 
BRANCH   7  10
ATOM      8  C   UNL     1      51.435   8.016  11.863  0.00  0.00    +0.000 C 
ATOM      9  O   UNL     1      51.933   8.533  12.866  0.00  0.00    +0.000 OA
ATOM     10  N   UNL     1      50.211   7.403  11.870  0.00  0.00    +0.000 N 
ATOM     11  H   UNL     1      49.861   6.955  11.035  0.00  0.00    +0.000 HD
BRANCH   8  15
ATOM     12  C   UNL     1      53.982   6.587   7.795  0.00  0.00    +0.000 C 
ATOM     13  N   UNL     1      53.273   7.401   8.758  0.00  0.00    +0.000 N 
ATOM     14  C   UNL     1      52.738   6.948   9.939  0.00  0.00    +0.000 A 
ATOM     15  C   UNL     1      52.137   8.024  10.587  0.00  0.00    +0.000 A 
ATOM     16  C   UNL     1      52.330   9.166   9.741  0.00  0.00    +0.000 A 
ATOM     17  C   UNL     1      52.000  10.526   9.763  0.00  0.00    +0.000 A 
ATOM     18  N   UNL     1      52.359  11.332   8.748  0.00  0.00    +0.000 NA
ATOM     19  C   UNL     1      53.038  10.781   7.729  0.00  0.00    +0.000 A 
ATOM     20  N   UNL     1      53.419   9.499   7.578  0.00  0.00    +0.000 NA
ATOM     21  C   UNL     1      53.035   8.741   8.621  0.00  0.00    +0.000 A 
BRANCH  17  22
ATOM     22  O   UNL     1      51.311  11.139  10.781  0.00  0.00    +0.000 OA
ATOM     23  H   UNL     1      50.451  10.680  10.880  0.00  0.00    +0.000 HD
ENDBRANCH  17  22
ENDBRANCH   8  15
ENDBRANCH   7  10
ENDBRANCH   1   7
BRANCH   4  24
ATOM     24  C   UNL     1      44.205   4.917  12.033  0.00  0.00    +0.000 C 
BRANCH  24  25
ATOM     25  N   UNL     1      43.938   4.805  10.604  0.00  0.00    +0.000 NA
ATOM     26  H   UNL     1      44.697   5.248  10.089  0.00  0.00    +0.000 HD
BRANCH  25  27
ATOM     27  C   UNL     1      43.830   3.410  10.184  0.00  0.00    +0.000 C 
BRANCH  27  28
ATOM     28  C   UNL     1      44.897   3.091   9.160  0.00  0.00    +0.000 A 
ATOM     29  C   UNL     1      45.500   4.096   8.389  0.00  0.00    +0.000 A 
ATOM     30  C   UNL     1      46.493   3.779   7.451  0.00  0.00    +0.000 A 
ATOM     31  C   UNL     1      46.883   2.447   7.266  0.00  0.00    +0.000 A 
ATOM     32  C   UNL     1      46.286   1.442   8.037  0.00  0.00    +0.000 A 
ATOM     33  C   UNL     1      45.303   1.763   8.974  0.00  0.00    +0.000 A 
BRANCH  31  34
ATOM     34  C   UNL     1      47.955   2.030   6.323  0.00  0.00    +0.000 C 
ATOM     35  O   UNL     1      47.852   1.043   5.614  0.00  0.00    +0.000 OA
BRANCH  34  36
ATOM     36  O   UNL     1      49.031   2.845   6.281  0.00  0.00    +0.000 OA
ATOM     37  H   UNL     1      49.859   2.443   5.968  0.00  0.00    +0.000 HD
ENDBRANCH  34  36
ENDBRANCH  31  34
ENDBRANCH  27  28
ENDBRANCH  25  27
ENDBRANCH  24  25
ENDBRANCH   4  24
TORSDOF 10
ENDMDL
