MODEL 1
REMARK VINA RESULT:    -6.763      0.000      0.000
REMARK INTER + INTRA:         -11.214
REMARK INTER:                  -9.531
REMARK INTRA:                  -1.683
REMARK UNBOUND:                -1.683
REMARK  Name = 
REMARK  9 active torsions:
REMARK  status: ('A' for Active; 'I' for Inactive)
REMARK    1  A    between atoms: C_1  and  C_2
REMARK    2  A    between atoms: C_2  and  C_3
REMARK    3  A    between atoms: C_2  and  C_4
REMARK    4  A    between atoms: C_4  and  C_5
REMARK    5  A    between atoms: C_5  and  N_6
REMARK    6  A    between atoms: C_5  and  C_19
REMARK    7  A    between atoms: C_7  and  C_9
REMARK    8  A    between atoms: C_22  and  C_23
REMARK    9  A    between atoms: C_23  and  N_24
REMARK                            x       y       z     vdW  Elec       q    Type
REMARK                         _______ _______ _______ _____ _____    ______ ____
ROOT
ATOM      1  C   UNL     1      49.346   6.695  17.197  0.00  0.00    +0.000 C 
ENDROOT
BRANCH   1   2
ATOM      2  C   UNL     1      48.502   6.051  16.097  0.00  0.00    +0.000 A 
ATOM      3  C   UNL     1      47.769   4.893  16.394  0.00  0.00    +0.000 A 
ATOM      4  C   UNL     1      46.978   4.265  15.427  0.00  0.00    +0.000 A 
ATOM      5  C   UNL     1      46.872   4.788  14.129  0.00  0.00    +0.000 A 
ATOM      6  C   UNL     1      47.604   5.947  13.822  0.00  0.00    +0.000 A 
ATOM      7  C   UNL     1      48.420   6.567  14.791  0.00  0.00    +0.000 A 
BRANCH   5   8
ATOM      8  C   UNL     1      46.080   4.040  13.073  0.00  0.00    +0.000 C 
BRANCH   8   9
ATOM      9  N   UNL     1      44.619   4.102  13.068  0.00  0.00    +0.000 NA
ATOM     10  C   UNL     1      43.918   3.176  12.177  0.00  0.00    +0.000 C 
ATOM     11  C   UNL     1      43.608   3.742  10.784  0.00  0.00    +0.000 C 
ATOM     12  O   UNL     1      42.931   5.003  10.859  0.00  0.00    +0.000 OA
ATOM     13  C   UNL     1      43.695   5.950  11.616  0.00  0.00    +0.000 C 
ATOM     14  C   UNL     1      44.001   5.431  13.029  0.00  0.00    +0.000 C 
ENDBRANCH   8   9
ENDBRANCH   5   8
ENDBRANCH   1   2
BRANCH   1  15
ATOM     15  N   UNL     1      50.308   5.730  17.708  0.00  0.00    +0.000 N 
ATOM     16  C   UNL     1      51.569   5.582  17.191  0.00  0.00    +0.000 C 
ATOM     17  O   UNL     1      52.006   6.304  16.299  0.00  0.00    +0.000 OA
ATOM     18  H   UNL     1      49.961   5.050  18.374  0.00  0.00    +0.000 HD
BRANCH  16  19
ATOM     19  C   UNL     1      52.391   4.525  17.794  0.00  0.00    +0.000 A 
ATOM     20  C   UNL     1      53.570   4.853  18.450  0.00  0.00    +0.000 A 
ATOM     21  S   UNL     1      54.392   3.505  19.096  0.00  0.00    +0.000 S 
ATOM     22  C   UNL     1      53.236   2.427  18.464  0.00  0.00    +0.000 A 
ATOM     23  N   UNL     1      53.372   1.083  18.619  0.00  0.00    +0.000 NA
ATOM     24  C   UNL     1      52.456   0.382  18.038  0.00  0.00    +0.000 A 
ATOM     25  N   UNL     1      51.403   0.904  17.334  0.00  0.00    +0.000 N 
ATOM     26  C   UNL     1      51.167   2.255  17.251  0.00  0.00    +0.000 A 
ATOM     27  O   UNL     1      50.120   2.681  16.780  0.00  0.00    +0.000 OA
ATOM     28  C   UNL     1      52.212   3.089  17.812  0.00  0.00    +0.000 A 
ATOM     29  H   UNL     1      50.694   0.306  16.940  0.00  0.00    +0.000 HD
ENDBRANCH  16  19
ENDBRANCH   1  15
BRANCH   1  30
ATOM     30  C   UNL     1      48.516   7.303  18.350  0.00  0.00    +0.000 C 
BRANCH  30  32
ATOM     31  C   UNL     1      49.262   7.601  20.742  0.00  0.00    +0.000 C 
ATOM     32  C   UNL     1      48.684   6.613  19.722  0.00  0.00    +0.000 C 
ATOM     33  C   UNL     1      47.384   6.019  20.273  0.00  0.00    +0.000 C 
ENDBRANCH  30  32
ENDBRANCH   1  30
TORSDOF 7
ENDMDL
MODEL 2
REMARK VINA RESULT:    -6.442      3.933      8.623
REMARK INTER + INTRA:         -10.761
REMARK INTER:                  -9.169
REMARK INTRA:                  -1.592
REMARK UNBOUND:                -1.683
REMARK  Name = 
REMARK  9 active torsions:
REMARK  status: ('A' for Active; 'I' for Inactive)
REMARK    1  A    between atoms: C_1  and  C_2
REMARK    2  A    between atoms: C_2  and  C_3
REMARK    3  A    between atoms: C_2  and  C_4
REMARK    4  A    between atoms: C_4  and  C_5
REMARK    5  A    between atoms: C_5  and  N_6
REMARK    6  A    between atoms: C_5  and  C_19
REMARK    7  A    between atoms: C_7  and  C_9
REMARK    8  A    between atoms: C_22  and  C_23
REMARK    9  A    between atoms: C_23  and  N_24
REMARK                            x       y       z     vdW  Elec       q    Type
REMARK                         _______ _______ _______ _____ _____    ______ ____
ROOT
ATOM      1  C   UNL     1      48.443   7.622  12.620  0.00  0.00    +0.000 C 
ENDROOT
BRANCH   1   2
ATOM      2  C   UNL     1      48.843   7.073  13.989  0.00  0.00    +0.000 A 
ATOM      3  C   UNL     1      50.031   7.525  14.582  0.00  0.00    +0.000 A 
ATOM      4  C   UNL     1      50.442   7.059  15.834  0.00  0.00    +0.000 A 
ATOM      5  C   UNL     1      49.665   6.138  16.553  0.00  0.00    +0.000 A 
ATOM      6  C   UNL     1      48.474   5.679  15.968  0.00  0.00    +0.000 A 
ATOM      7  C   UNL     1      48.071   6.132  14.694  0.00  0.00    +0.000 A 
BRANCH   5   8
ATOM      8  C   UNL     1      50.176   5.580  17.868  0.00  0.00    +0.000 C 
BRANCH   8   9
ATOM      9  N   UNL     1      49.877   6.266  19.124  0.00  0.00    +0.000 NA
ATOM     10  C   UNL     1      49.982   5.478  20.353  0.00  0.00    +0.000 C 
ATOM     11  C   UNL     1      48.672   4.812  20.799  0.00  0.00    +0.000 C 
ATOM     12  O   UNL     1      47.594   5.754  20.876  0.00  0.00    +0.000 OA
ATOM     13  C   UNL     1      47.405   6.421  19.622  0.00  0.00    +0.000 C 
ATOM     14  C   UNL     1      48.688   7.125  19.156  0.00  0.00    +0.000 C 
ENDBRANCH   8   9
ENDBRANCH   5   8
ENDBRANCH   1   2
BRANCH   1  15
ATOM     15  N   UNL     1      47.675   6.622  11.894  0.00  0.00    +0.000 N 
ATOM     16  C   UNL     1      46.345   6.767  11.596  0.00  0.00    +0.000 C 
ATOM     17  O   UNL     1      45.717   7.789  11.862  0.00  0.00    +0.000 OA
ATOM     18  H   UNL     1      48.123   5.726  11.741  0.00  0.00    +0.000 HD
BRANCH  16  19
ATOM     19  C   UNL     1      45.713   5.638  10.902  0.00  0.00    +0.000 A 
ATOM     20  C   UNL     1      45.778   5.551   9.518  0.00  0.00    +0.000 A 
ATOM     21  S   UNL     1      44.999   4.173   8.882  0.00  0.00    +0.000 S 
ATOM     22  C   UNL     1      44.490   3.677  10.429  0.00  0.00    +0.000 A 
ATOM     23  N   UNL     1      43.720   2.568  10.592  0.00  0.00    +0.000 NA
ATOM     24  C   UNL     1      43.358   2.344  11.811  0.00  0.00    +0.000 A 
ATOM     25  N   UNL     1      43.713   3.116  12.885  0.00  0.00    +0.000 N 
ATOM     26  C   UNL     1      44.579   4.176  12.780  0.00  0.00    +0.000 A 
ATOM     27  O   UNL     1      45.025   4.725  13.780  0.00  0.00    +0.000 OA
ATOM     28  C   UNL     1      44.949   4.524  11.422  0.00  0.00    +0.000 A 
ATOM     29  H   UNL     1      43.434   2.864  13.821  0.00  0.00    +0.000 HD
ENDBRANCH  16  19
ENDBRANCH   1  15
BRANCH   1  30
ATOM     30  C   UNL     1      49.635   8.119  11.769  0.00  0.00    +0.000 C 
BRANCH  30  32
ATOM     31  C   UNL     1      48.286  10.250  11.807  0.00  0.00    +0.000 C 
ATOM     32  C   UNL     1      49.649   9.635  11.473  0.00  0.00    +0.000 C 
ATOM     33  C   UNL     1      50.746  10.397  12.224  0.00  0.00    +0.000 C 
ENDBRANCH  30  32
ENDBRANCH   1  30
TORSDOF 7
ENDMDL
MODEL 3
REMARK VINA RESULT:    -6.333      2.924      4.550
REMARK INTER + INTRA:         -10.607
REMARK INTER:                  -8.752
REMARK INTRA:                  -1.856
REMARK UNBOUND:                -1.683
REMARK  Name = 
REMARK  9 active torsions:
REMARK  status: ('A' for Active; 'I' for Inactive)
REMARK    1  A    between atoms: C_1  and  C_2
REMARK    2  A    between atoms: C_2  and  C_3
REMARK    3  A    between atoms: C_2  and  C_4
REMARK    4  A    between atoms: C_4  and  C_5
REMARK    5  A    between atoms: C_5  and  N_6
REMARK    6  A    between atoms: C_5  and  C_19
REMARK    7  A    between atoms: C_7  and  C_9
REMARK    8  A    between atoms: C_22  and  C_23
REMARK    9  A    between atoms: C_23  and  N_24
REMARK                            x       y       z     vdW  Elec       q    Type
REMARK                         _______ _______ _______ _____ _____    ______ ____
ROOT
ATOM      1  C   UNL     1      48.353   8.351  13.876  0.00  0.00    +0.000 C 
ENDROOT
BRANCH   1   2
ATOM      2  C   UNL     1      47.239   7.792  12.991  0.00  0.00    +0.000 A 
ATOM      3  C   UNL     1      47.489   6.640  12.231  0.00  0.00    +0.000 A 
ATOM      4  C   UNL     1      46.505   6.084  11.408  0.00  0.00    +0.000 A 
ATOM      5  C   UNL     1      45.222   6.648  11.334  0.00  0.00    +0.000 A 
ATOM      6  C   UNL     1      44.962   7.802  12.091  0.00  0.00    +0.000 A 
ATOM      7  C   UNL     1      45.962   8.376  12.903  0.00  0.00    +0.000 A 
BRANCH   5   8
ATOM      8  C   UNL     1      44.200   6.081  10.366  0.00  0.00    +0.000 C 
BRANCH   8   9
ATOM      9  N   UNL     1      43.321   4.988  10.782  0.00  0.00    +0.000 NA
ATOM     10  C   UNL     1      42.544   5.190  12.006  0.00  0.00    +0.000 C 
ATOM     11  C   UNL     1      43.224   4.678  13.285  0.00  0.00    +0.000 C 
ATOM     12  O   UNL     1      43.646   3.315  13.156  0.00  0.00    +0.000 OA
ATOM     13  C   UNL     1      44.523   3.153  12.034  0.00  0.00    +0.000 C 
ATOM     14  C   UNL     1      43.867   3.628  10.729  0.00  0.00    +0.000 C 
ENDBRANCH   8   9
ENDBRANCH   5   8
ENDBRANCH   1   2
BRANCH   1  15
ATOM     15  N   UNL     1      48.466   7.554  15.087  0.00  0.00    +0.000 N 
ATOM     16  C   UNL     1      49.652   7.031  15.534  0.00  0.00    +0.000 C 
ATOM     17  O   UNL     1      50.723   7.257  14.978  0.00  0.00    +0.000 OA
ATOM     18  H   UNL     1      47.599   7.261  15.523  0.00  0.00    +0.000 HD
BRANCH  16  19
ATOM     19  C   UNL     1      49.576   6.208  16.748  0.00  0.00    +0.000 A 
ATOM     20  C   UNL     1      50.387   6.502  17.836  0.00  0.00    +0.000 A 
ATOM     21  S   UNL     1      50.162   5.450  19.160  0.00  0.00    +0.000 S 
ATOM     22  C   UNL     1      49.020   4.523  18.303  0.00  0.00    +0.000 A 
ATOM     23  N   UNL     1      48.457   3.416  18.856  0.00  0.00    +0.000 NA
ATOM     24  C   UNL     1      47.654   2.776  18.073  0.00  0.00    +0.000 A 
ATOM     25  N   UNL     1      47.348   3.154  16.792  0.00  0.00    +0.000 N 
ATOM     26  C   UNL     1      47.806   4.323  16.237  0.00  0.00    +0.000 A 
ATOM     27  O   UNL     1      47.364   4.726  15.168  0.00  0.00    +0.000 OA
ATOM     28  C   UNL     1      48.778   5.037  17.042  0.00  0.00    +0.000 A 
ATOM     29  H   UNL     1      46.679   2.636  16.244  0.00  0.00    +0.000 HD
ENDBRANCH  16  19
ENDBRANCH   1  15
BRANCH   1  30
ATOM     30  C   UNL     1      48.189   9.849  14.221  0.00  0.00    +0.000 C 
BRANCH  30  32
ATOM     31  C   UNL     1      50.285  10.178  12.855  0.00  0.00    +0.000 C 
ATOM     32  C   UNL     1      48.974  10.825  13.317  0.00  0.00    +0.000 C 
ATOM     33  C   UNL     1      48.183  11.298  12.092  0.00  0.00    +0.000 C 
ENDBRANCH  30  32
ENDBRANCH   1  30
TORSDOF 7
ENDMDL
MODEL 4
REMARK VINA RESULT:    -6.329      4.193      8.964
REMARK INTER + INTRA:         -10.602
REMARK INTER:                  -9.051
REMARK INTRA:                  -1.551
REMARK UNBOUND:                -1.683
REMARK  Name = 
REMARK  9 active torsions:
REMARK  status: ('A' for Active; 'I' for Inactive)
REMARK    1  A    between atoms: C_1  and  C_2
REMARK    2  A    between atoms: C_2  and  C_3
REMARK    3  A    between atoms: C_2  and  C_4
REMARK    4  A    between atoms: C_4  and  C_5
REMARK    5  A    between atoms: C_5  and  N_6
REMARK    6  A    between atoms: C_5  and  C_19
REMARK    7  A    between atoms: C_7  and  C_9
REMARK    8  A    between atoms: C_22  and  C_23
REMARK    9  A    between atoms: C_23  and  N_24
REMARK                            x       y       z     vdW  Elec       q    Type
REMARK                         _______ _______ _______ _____ _____    ______ ____
ROOT
ATOM      1  C   UNL     1      47.814   7.697  12.281  0.00  0.00    +0.000 C 
ENDROOT
BRANCH   1   2
ATOM      2  C   UNL     1      48.124   7.760  13.776  0.00  0.00    +0.000 A 
ATOM      3  C   UNL     1      48.587   6.604  14.423  0.00  0.00    +0.000 A 
ATOM      4  C   UNL     1      48.889   6.607  15.788  0.00  0.00    +0.000 A 
ATOM      5  C   UNL     1      48.763   7.776  16.554  0.00  0.00    +0.000 A 
ATOM      6  C   UNL     1      48.300   8.938  15.915  0.00  0.00    +0.000 A 
ATOM      7  C   UNL     1      47.973   8.929  14.543  0.00  0.00    +0.000 A 
BRANCH   5   8
ATOM      8  C   UNL     1      49.011   7.732  18.051  0.00  0.00    +0.000 C 
BRANCH   8   9
ATOM      9  N   UNL     1      48.953   6.459  18.768  0.00  0.00    +0.000 NA
ATOM     10  C   UNL     1      47.648   6.050  19.291  0.00  0.00    +0.000 C 
ATOM     11  C   UNL     1      47.373   6.489  20.736  0.00  0.00    +0.000 C 
ATOM     12  O   UNL     1      48.432   6.102  21.622  0.00  0.00    +0.000 OA
ATOM     13  C   UNL     1      49.689   6.628  21.178  0.00  0.00    +0.000 C 
ATOM     14  C   UNL     1      50.013   6.186  19.743  0.00  0.00    +0.000 C 
ENDBRANCH   8   9
ENDBRANCH   5   8
ENDBRANCH   1   2
BRANCH   1  15
ATOM     15  N   UNL     1      46.999   6.527  11.996  0.00  0.00    +0.000 N 
ATOM     16  C   UNL     1      45.628   6.542  12.024  0.00  0.00    +0.000 C 
ATOM     17  O   UNL     1      44.984   7.568  12.224  0.00  0.00    +0.000 OA
ATOM     18  H   UNL     1      47.484   5.640  11.923  0.00  0.00    +0.000 HD
BRANCH  16  19
ATOM     19  C   UNL     1      44.964   5.258  11.761  0.00  0.00    +0.000 A 
ATOM     20  C   UNL     1      44.240   4.635  12.768  0.00  0.00    +0.000 A 
ATOM     21  S   UNL     1      43.530   3.160  12.287  0.00  0.00    +0.000 S 
ATOM     22  C   UNL     1      44.221   3.269  10.735  0.00  0.00    +0.000 A 
ATOM     23  N   UNL     1      44.044   2.281   9.817  0.00  0.00    +0.000 NA
ATOM     24  C   UNL     1      44.673   2.466   8.705  0.00  0.00    +0.000 A 
ATOM     25  N   UNL     1      45.446   3.560   8.418  0.00  0.00    +0.000 N 
ATOM     26  C   UNL     1      45.559   4.630   9.272  0.00  0.00    +0.000 A 
ATOM     27  O   UNL     1      46.099   5.668   8.909  0.00  0.00    +0.000 OA
ATOM     28  C   UNL     1      44.942   4.438  10.570  0.00  0.00    +0.000 A 
ATOM     29  H   UNL     1      45.878   3.669   7.514  0.00  0.00    +0.000 HD
ENDBRANCH  16  19
ENDBRANCH   1  15
BRANCH   1  30
ATOM     30  C   UNL     1      49.069   7.723  11.377  0.00  0.00    +0.000 C 
BRANCH  30  32
ATOM     31  C   UNL     1      51.520   8.304  11.257  0.00  0.00    +0.000 C 
ATOM     32  C   UNL     1      50.149   8.753  11.774  0.00  0.00    +0.000 C 
ATOM     33  C   UNL     1      49.857  10.171  11.273  0.00  0.00    +0.000 C 
ENDBRANCH  30  32
ENDBRANCH   1  30
TORSDOF 7
ENDMDL
MODEL 5
REMARK VINA RESULT:    -6.289      3.523      8.308
REMARK INTER + INTRA:         -10.545
REMARK INTER:                  -9.026
REMARK INTRA:                  -1.520
REMARK UNBOUND:                -1.683
REMARK  Name = 
REMARK  9 active torsions:
REMARK  status: ('A' for Active; 'I' for Inactive)
REMARK    1  A    between atoms: C_1  and  C_2
REMARK    2  A    between atoms: C_2  and  C_3
REMARK    3  A    between atoms: C_2  and  C_4
REMARK    4  A    between atoms: C_4  and  C_5
REMARK    5  A    between atoms: C_5  and  N_6
REMARK    6  A    between atoms: C_5  and  C_19
REMARK    7  A    between atoms: C_7  and  C_9
REMARK    8  A    between atoms: C_22  and  C_23
REMARK    9  A    between atoms: C_23  and  N_24
REMARK                            x       y       z     vdW  Elec       q    Type
REMARK                         _______ _______ _______ _____ _____    ______ ____
ROOT
ATOM      1  C   UNL     1      48.831   5.782  16.691  0.00  0.00    +0.000 C 
ENDROOT
BRANCH   1   2
ATOM      2  C   UNL     1      48.376   6.846  17.690  0.00  0.00    +0.000 A 
ATOM      3  C   UNL     1      47.836   6.437  18.918  0.00  0.00    +0.000 A 
ATOM      4  C   UNL     1      47.407   7.368  19.870  0.00  0.00    +0.000 A 
ATOM      5  C   UNL     1      47.527   8.747  19.636  0.00  0.00    +0.000 A 
ATOM      6  C   UNL     1      48.066   9.166  18.409  0.00  0.00    +0.000 A 
ATOM      7  C   UNL     1      48.477   8.226  17.440  0.00  0.00    +0.000 A 
BRANCH   5   8
ATOM      8  C   UNL     1      46.973   9.737  20.644  0.00  0.00    +0.000 C 
BRANCH   8   9
ATOM      9  N   UNL     1      47.874  10.436  21.559  0.00  0.00    +0.000 NA
ATOM     10  C   UNL     1      48.319  11.773  21.161  0.00  0.00    +0.000 C 
ATOM     11  C   UNL     1      49.641  11.798  20.379  0.00  0.00    +0.000 C 
ATOM     12  O   UNL     1      50.680  11.087  21.064  0.00  0.00    +0.000 OA
ATOM     13  C   UNL     1      50.288   9.733  21.325  0.00  0.00    +0.000 C 
ATOM     14  C   UNL     1      48.983   9.667  22.132  0.00  0.00    +0.000 C 
ENDBRANCH   8   9
ENDBRANCH   5   8
ENDBRANCH   1   2
BRANCH   1  15
ATOM     15  N   UNL     1      47.889   5.711  15.585  0.00  0.00    +0.000 N 
ATOM     16  C   UNL     1      48.116   6.299  14.368  0.00  0.00    +0.000 C 
ATOM     17  O   UNL     1      49.166   6.874  14.098  0.00  0.00    +0.000 OA
ATOM     18  H   UNL     1      46.972   5.333  15.791  0.00  0.00    +0.000 HD
BRANCH  16  19
ATOM     19  C   UNL     1      47.036   6.171  13.380  0.00  0.00    +0.000 A 
ATOM     20  C   UNL     1      46.535   7.303  12.751  0.00  0.00    +0.000 A 
ATOM     21  S   UNL     1      45.293   6.969  11.630  0.00  0.00    +0.000 S 
ATOM     22  C   UNL     1      45.335   5.307  11.993  0.00  0.00    +0.000 A 
ATOM     23  N   UNL     1      44.471   4.438  11.404  0.00  0.00    +0.000 NA
ATOM     24  C   UNL     1      44.574   3.219  11.817  0.00  0.00    +0.000 A 
ATOM     25  N   UNL     1      45.477   2.785  12.751  0.00  0.00    +0.000 N 
ATOM     26  C   UNL     1      46.439   3.606  13.285  0.00  0.00    +0.000 A 
ATOM     27  O   UNL     1      47.346   3.147  13.969  0.00  0.00    +0.000 OA
ATOM     28  C   UNL     1      46.315   5.004  12.921  0.00  0.00    +0.000 A 
ATOM     29  H   UNL     1      45.538   1.810  13.001  0.00  0.00    +0.000 HD
ENDBRANCH  16  19
ENDBRANCH   1  15
BRANCH   1  30
ATOM     30  C   UNL     1      49.047   4.384  17.317  0.00  0.00    +0.000 C 
BRANCH  30  32
ATOM     31  C   UNL     1      51.091   4.483  18.792  0.00  0.00    +0.000 C 
ATOM     32  C   UNL     1      50.521   3.950  17.473  0.00  0.00    +0.000 C 
ATOM     33  C   UNL     1      50.723   2.432  17.410  0.00  0.00    +0.000 C 
ENDBRANCH  30  32
ENDBRANCH   1  30
TORSDOF 7
ENDMDL
MODEL 6
REMARK VINA RESULT:    -6.213      3.484      7.959
REMARK INTER + INTRA:         -10.439
REMARK INTER:                  -8.920
REMARK INTRA:                  -1.519
REMARK UNBOUND:                -1.683
REMARK  Name = 
REMARK  9 active torsions:
REMARK  status: ('A' for Active; 'I' for Inactive)
REMARK    1  A    between atoms: C_1  and  C_2
REMARK    2  A    between atoms: C_2  and  C_3
REMARK    3  A    between atoms: C_2  and  C_4
REMARK    4  A    between atoms: C_4  and  C_5
REMARK    5  A    between atoms: C_5  and  N_6
REMARK    6  A    between atoms: C_5  and  C_19
REMARK    7  A    between atoms: C_7  and  C_9
REMARK    8  A    between atoms: C_22  and  C_23
REMARK    9  A    between atoms: C_23  and  N_24
REMARK                            x       y       z     vdW  Elec       q    Type
REMARK                         _______ _______ _______ _____ _____    ______ ____
ROOT
ATOM      1  C   UNL     1      48.998   5.301  17.096  0.00  0.00    +0.000 C 
ENDROOT
BRANCH   1   2
ATOM      2  C   UNL     1      48.613   6.271  18.213  0.00  0.00    +0.000 A 
ATOM      3  C   UNL     1      49.511   7.288  18.569  0.00  0.00    +0.000 A 
ATOM      4  C   UNL     1      49.208   8.204  19.580  0.00  0.00    +0.000 A 
ATOM      5  C   UNL     1      47.981   8.151  20.258  0.00  0.00    +0.000 A 
ATOM      6  C   UNL     1      47.075   7.137  19.909  0.00  0.00    +0.000 A 
ATOM      7  C   UNL     1      47.391   6.198  18.904  0.00  0.00    +0.000 A 
BRANCH   5   8
ATOM      8  C   UNL     1      47.711   9.100  21.412  0.00  0.00    +0.000 C 
BRANCH   8   9
ATOM      9  N   UNL     1      47.300  10.478  21.150  0.00  0.00    +0.000 NA
ATOM     10  C   UNL     1      46.511  10.717  19.941  0.00  0.00    +0.000 C 
ATOM     11  C   UNL     1      47.338  11.087  18.701  0.00  0.00    +0.000 C 
ATOM     12  O   UNL     1      48.232  12.176  18.962  0.00  0.00    +0.000 OA
ATOM     13  C   UNL     1      49.100  11.875  20.062  0.00  0.00    +0.000 C 
ATOM     14  C   UNL     1      48.308  11.528  21.330  0.00  0.00    +0.000 C 
ENDBRANCH   8   9
ENDBRANCH   5   8
ENDBRANCH   1   2
BRANCH   1  15
ATOM     15  N   UNL     1      48.077   5.444  15.980  0.00  0.00    +0.000 N 
ATOM     16  C   UNL     1      48.391   6.119  14.829  0.00  0.00    +0.000 C 
ATOM     17  O   UNL     1      49.504   6.596  14.626  0.00  0.00    +0.000 OA
ATOM     18  H   UNL     1      47.119   5.154  16.139  0.00  0.00    +0.000 HD
BRANCH  16  19
ATOM     19  C   UNL     1      47.324   6.211  13.824  0.00  0.00    +0.000 A 
ATOM     20  C   UNL     1      46.941   7.451  13.331  0.00  0.00    +0.000 A 
ATOM     21  S   UNL     1      45.696   7.370  12.168  0.00  0.00    +0.000 S 
ATOM     22  C   UNL     1      45.579   5.680  12.329  0.00  0.00    +0.000 A 
ATOM     23  N   UNL     1      44.650   4.971  11.632  0.00  0.00    +0.000 NA
ATOM     24  C   UNL     1      44.634   3.707  11.896  0.00  0.00    +0.000 A 
ATOM     25  N   UNL     1      45.475   3.083  12.778  0.00  0.00    +0.000 N 
ATOM     26  C   UNL     1      46.497   3.742  13.416  0.00  0.00    +0.000 A 
ATOM     27  O   UNL     1      47.346   3.123  14.047  0.00  0.00    +0.000 OA
ATOM     28  C   UNL     1      46.509   5.178  13.221  0.00  0.00    +0.000 A 
ATOM     29  H   UNL     1      45.442   2.084  12.910  0.00  0.00    +0.000 HD
ENDBRANCH  16  19
ENDBRANCH   1  15
BRANCH   1  30
ATOM     30  C   UNL     1      49.085   3.825  17.548  0.00  0.00    +0.000 C 
BRANCH  30  32
ATOM     31  C   UNL     1      50.765   1.982  17.165  0.00  0.00    +0.000 C 
ATOM     32  C   UNL     1      50.506   3.315  17.876  0.00  0.00    +0.000 C 
ATOM     33  C   UNL     1      51.613   4.309  17.509  0.00  0.00    +0.000 C 
ENDBRANCH  30  32
ENDBRANCH   1  30
TORSDOF 7
ENDMDL
MODEL 7
REMARK VINA RESULT:    -5.996      3.606      8.621
REMARK INTER + INTRA:         -10.133
REMARK INTER:                  -8.783
REMARK INTRA:                  -1.350
REMARK UNBOUND:                -1.683
REMARK  Name = 
REMARK  9 active torsions:
REMARK  status: ('A' for Active; 'I' for Inactive)
REMARK    1  A    between atoms: C_1  and  C_2
REMARK    2  A    between atoms: C_2  and  C_3
REMARK    3  A    between atoms: C_2  and  C_4
REMARK    4  A    between atoms: C_4  and  C_5
REMARK    5  A    between atoms: C_5  and  N_6
REMARK    6  A    between atoms: C_5  and  C_19
REMARK    7  A    between atoms: C_7  and  C_9
REMARK    8  A    between atoms: C_22  and  C_23
REMARK    9  A    between atoms: C_23  and  N_24
REMARK                            x       y       z     vdW  Elec       q    Type
REMARK                         _______ _______ _______ _____ _____    ______ ____
ROOT
ATOM      1  C   UNL     1      48.248   7.902  12.484  0.00  0.00    +0.000 C 
ENDROOT
BRANCH   1   2
ATOM      2  C   UNL     1      48.376   7.588  13.975  0.00  0.00    +0.000 A 
ATOM      3  C   UNL     1      48.164   6.272  14.412  0.00  0.00    +0.000 A 
ATOM      4  C   UNL     1      48.272   5.929  15.763  0.00  0.00    +0.000 A 
ATOM      5  C   UNL     1      48.620   6.888  16.727  0.00  0.00    +0.000 A 
ATOM      6  C   UNL     1      48.833   8.208  16.299  0.00  0.00    +0.000 A 
ATOM      7  C   UNL     1      48.702   8.559  14.939  0.00  0.00    +0.000 A 
BRANCH   5   8
ATOM      8  C   UNL     1      48.642   6.511  18.197  0.00  0.00    +0.000 C 
BRANCH   8   9
ATOM      9  N   UNL     1      49.832   5.891  18.779  0.00  0.00    +0.000 NA
ATOM     10  C   UNL     1      51.129   6.326  18.259  0.00  0.00    +0.000 C 
ATOM     11  C   UNL     1      51.669   5.478  17.099  0.00  0.00    +0.000 C 
ATOM     12  O   UNL     1      51.681   4.081  17.419  0.00  0.00    +0.000 OA
ATOM     13  C   UNL     1      50.372   3.630  17.791  0.00  0.00    +0.000 C 
ATOM     14  C   UNL     1      49.809   4.437  18.970  0.00  0.00    +0.000 C 
ENDBRANCH   8   9
ENDBRANCH   5   8
ENDBRANCH   1   2
BRANCH   1  15
ATOM     15  N   UNL     1      47.526   6.831  11.816  0.00  0.00    +0.000 N 
ATOM     16  C   UNL     1      46.199   6.914  11.483  0.00  0.00    +0.000 C 
ATOM     17  O   UNL     1      45.536   7.932  11.664  0.00  0.00    +0.000 OA
ATOM     18  H   UNL     1      48.004   5.941  11.735  0.00  0.00    +0.000 HD
BRANCH  16  19
ATOM     19  C   UNL     1      45.616   5.720  10.858  0.00  0.00    +0.000 A 
ATOM     20  C   UNL     1      45.738   5.525   9.489  0.00  0.00    +0.000 A 
ATOM     21  S   UNL     1      45.010   4.085   8.935  0.00  0.00    +0.000 S 
ATOM     22  C   UNL     1      44.449   3.702  10.496  0.00  0.00    +0.000 A 
ATOM     23  N   UNL     1      43.693   2.594  10.718  0.00  0.00    +0.000 NA
ATOM     24  C   UNL     1      43.287   2.459  11.936  0.00  0.00    +0.000 A 
ATOM     25  N   UNL     1      43.584   3.321  12.958  0.00  0.00    +0.000 N 
ATOM     26  C   UNL     1      44.435   4.387  12.801  0.00  0.00    +0.000 A 
ATOM     27  O   UNL     1      44.830   5.023  13.771  0.00  0.00    +0.000 OA
ATOM     28  C   UNL     1      44.852   4.635  11.435  0.00  0.00    +0.000 A 
ATOM     29  H   UNL     1      43.273   3.138  13.899  0.00  0.00    +0.000 HD
ENDBRANCH  16  19
ENDBRANCH   1  15
BRANCH   1  30
ATOM     30  C   UNL     1      49.599   8.174  11.782  0.00  0.00    +0.000 C 
BRANCH  30  32
ATOM     31  C   UNL     1      51.673   9.610  11.772  0.00  0.00    +0.000 C 
ATOM     32  C   UNL     1      50.149   9.609  11.938  0.00  0.00    +0.000 C 
ATOM     33  C   UNL     1      49.532  10.612  10.958  0.00  0.00    +0.000 C 
ENDBRANCH  30  32
ENDBRANCH   1  30
TORSDOF 7
ENDMDL
MODEL 8
REMARK VINA RESULT:    -5.606      4.176      9.540
REMARK INTER + INTRA:          -9.583
REMARK INTER:                  -8.179
REMARK INTRA:                  -1.404
REMARK UNBOUND:                -1.683
REMARK  Name = 
REMARK  9 active torsions:
REMARK  status: ('A' for Active; 'I' for Inactive)
REMARK    1  A    between atoms: C_1  and  C_2
REMARK    2  A    between atoms: C_2  and  C_3
REMARK    3  A    between atoms: C_2  and  C_4
REMARK    4  A    between atoms: C_4  and  C_5
REMARK    5  A    between atoms: C_5  and  N_6
REMARK    6  A    between atoms: C_5  and  C_19
REMARK    7  A    between atoms: C_7  and  C_9
REMARK    8  A    between atoms: C_22  and  C_23
REMARK    9  A    between atoms: C_23  and  N_24
REMARK                            x       y       z     vdW  Elec       q    Type
REMARK                         _______ _______ _______ _____ _____    ______ ____
ROOT
ATOM      1  C   UNL     1      46.582   5.604  13.233  0.00  0.00    +0.000 C 
ENDROOT
BRANCH   1   2
ATOM      2  C   UNL     1      47.327   5.395  14.551  0.00  0.00    +0.000 A 
ATOM      3  C   UNL     1      47.049   4.251  15.314  0.00  0.00    +0.000 A 
ATOM      4  C   UNL     1      47.704   4.008  16.525  0.00  0.00    +0.000 A 
ATOM      5  C   UNL     1      48.683   4.891  17.007  0.00  0.00    +0.000 A 
ATOM      6  C   UNL     1      48.968   6.039  16.251  0.00  0.00    +0.000 A 
ATOM      7  C   UNL     1      48.290   6.295  15.040  0.00  0.00    +0.000 A 
BRANCH   5   8
ATOM      8  C   UNL     1      49.315   4.653  18.366  0.00  0.00    +0.000 C 
BRANCH   8   9
ATOM      9  N   UNL     1      49.472   5.760  19.308  0.00  0.00    +0.000 NA
ATOM     10  C   UNL     1      50.527   5.630  20.315  0.00  0.00    +0.000 C 
ATOM     11  C   UNL     1      50.067   5.013  21.644  0.00  0.00    +0.000 C 
ATOM     12  O   UNL     1      48.919   5.686  22.177  0.00  0.00    +0.000 OA
ATOM     13  C   UNL     1      47.840   5.684  21.233  0.00  0.00    +0.000 C 
ATOM     14  C   UNL     1      48.253   6.321  19.899  0.00  0.00    +0.000 C 
ENDBRANCH   8   9
ENDBRANCH   5   8
ENDBRANCH   1   2
BRANCH   1  15
ATOM     15  N   UNL     1      46.387   7.026  12.999  0.00  0.00    +0.000 N 
ATOM     16  C   UNL     1      47.166   7.760  12.144  0.00  0.00    +0.000 C 
ATOM     17  O   UNL     1      48.048   7.254  11.456  0.00  0.00    +0.000 OA
ATOM     18  H   UNL     1      45.739   7.504  13.614  0.00  0.00    +0.000 HD
BRANCH  16  19
ATOM     19  C   UNL     1      46.863   9.195  12.066  0.00  0.00    +0.000 A 
ATOM     20  C   UNL     1      47.858  10.129  12.323  0.00  0.00    +0.000 A 
ATOM     21  S   UNL     1      47.333  11.746  12.179  0.00  0.00    +0.000 S 
ATOM     22  C   UNL     1      45.740  11.256  11.832  0.00  0.00    +0.000 A 
ATOM     23  N   UNL     1      44.750  12.170  11.645  0.00  0.00    +0.000 NA
ATOM     24  C   UNL     1      43.580  11.659  11.450  0.00  0.00    +0.000 A 
ATOM     25  N   UNL     1      43.313  10.316  11.403  0.00  0.00    +0.000 N 
ATOM     26  C   UNL     1      44.300   9.364  11.474  0.00  0.00    +0.000 A 
ATOM     27  O   UNL     1      44.054   8.187  11.239  0.00  0.00    +0.000 OA
ATOM     28  C   UNL     1      45.620   9.879  11.779  0.00  0.00    +0.000 A 
ATOM     29  H   UNL     1      42.385   9.977  11.203  0.00  0.00    +0.000 HD
ENDBRANCH  16  19
ENDBRANCH   1  15
BRANCH   1  30
ATOM     30  C   UNL     1      45.238   4.845  13.144  0.00  0.00    +0.000 C 
BRANCH  30  32
ATOM     31  C   UNL     1      43.764   3.147  12.001  0.00  0.00    +0.000 C 
ATOM     32  C   UNL     1      45.063   3.954  11.895  0.00  0.00    +0.000 C 
ATOM     33  C   UNL     1      45.066   4.738  10.577  0.00  0.00    +0.000 C 
ENDBRANCH  30  32
ENDBRANCH   1  30
TORSDOF 7
ENDMDL
MODEL 9
REMARK VINA RESULT:    -5.599      3.828      8.216
REMARK INTER + INTRA:          -9.573
REMARK INTER:                  -7.797
REMARK INTRA:                  -1.776
REMARK UNBOUND:                -1.683
REMARK  Name = 
REMARK  9 active torsions:
REMARK  status: ('A' for Active; 'I' for Inactive)
REMARK    1  A    between atoms: C_1  and  C_2
REMARK    2  A    between atoms: C_2  and  C_3
REMARK    3  A    between atoms: C_2  and  C_4
REMARK    4  A    between atoms: C_4  and  C_5
REMARK    5  A    between atoms: C_5  and  N_6
REMARK    6  A    between atoms: C_5  and  C_19
REMARK    7  A    between atoms: C_7  and  C_9
REMARK    8  A    between atoms: C_22  and  C_23
REMARK    9  A    between atoms: C_23  and  N_24
REMARK                            x       y       z     vdW  Elec       q    Type
REMARK                         _______ _______ _______ _____ _____    ______ ____
ROOT
ATOM      1  C   UNL     1      48.543   8.667  12.980  0.00  0.00    +0.000 C 
ENDROOT
BRANCH   1   2
ATOM      2  C   UNL     1      48.983   8.279  14.391  0.00  0.00    +0.000 A 
ATOM      3  C   UNL     1      48.412   8.943  15.487  0.00  0.00    +0.000 A 
ATOM      4  C   UNL     1      48.775   8.626  16.799  0.00  0.00    +0.000 A 
ATOM      5  C   UNL     1      49.708   7.612  17.066  0.00  0.00    +0.000 A 
ATOM      6  C   UNL     1      50.285   6.941  15.975  0.00  0.00    +0.000 A 
ATOM      7  C   UNL     1      49.935   7.278  14.651  0.00  0.00    +0.000 A 
BRANCH   5   8
ATOM      8  C   UNL     1      50.152   7.347  18.492  0.00  0.00    +0.000 C 
BRANCH   8   9
ATOM      9  N   UNL     1      49.586   6.226  19.243  0.00  0.00    +0.000 NA
ATOM     10  C   UNL     1      50.326   4.964  19.210  0.00  0.00    +0.000 C 
ATOM     11  C   UNL     1      49.892   3.998  18.098  0.00  0.00    +0.000 C 
ATOM     12  O   UNL     1      48.477   3.770  18.111  0.00  0.00    +0.000 OA
ATOM     13  C   UNL     1      47.758   5.005  17.999  0.00  0.00    +0.000 C 
ATOM     14  C   UNL     1      48.145   5.989  19.113  0.00  0.00    +0.000 C 
ENDBRANCH   8   9
ENDBRANCH   5   8
ENDBRANCH   1   2
BRANCH   1  15
ATOM     15  N   UNL     1      47.533   7.734  12.505  0.00  0.00    +0.000 N 
ATOM     16  C   UNL     1      46.190   7.912  12.712  0.00  0.00    +0.000 C 
ATOM     17  O   UNL     1      45.733   8.913  13.256  0.00  0.00    +0.000 OA
ATOM     18  H   UNL     1      47.867   6.850  12.139  0.00  0.00    +0.000 HD
BRANCH  16  19
ATOM     19  C   UNL     1      45.314   6.845  12.209  0.00  0.00    +0.000 A 
ATOM     20  C   UNL     1      44.177   7.169  11.482  0.00  0.00    +0.000 A 
ATOM     21  S   UNL     1      43.282   5.809  10.970  0.00  0.00    +0.000 S 
ATOM     22  C   UNL     1      44.348   4.741  11.759  0.00  0.00    +0.000 A 
ATOM     23  N   UNL     1      44.127   3.399  11.756  0.00  0.00    +0.000 NA
ATOM     24  C   UNL     1      44.980   2.715  12.442  0.00  0.00    +0.000 A 
ATOM     25  N   UNL     1      46.047   3.249  13.115  0.00  0.00    +0.000 N 
ATOM     26  C   UNL     1      46.370   4.582  13.050  0.00  0.00    +0.000 A 
ATOM     27  O   UNL     1      47.432   4.993  13.502  0.00  0.00    +0.000 OA
ATOM     28  C   UNL     1      45.398   5.409  12.363  0.00  0.00    +0.000 A 
ATOM     29  H   UNL     1      46.705   2.657  13.599  0.00  0.00    +0.000 HD
ENDBRANCH  16  19
ENDBRANCH   1  15
BRANCH   1  30
ATOM     30  C   UNL     1      49.706   8.777  11.967  0.00  0.00    +0.000 C 
BRANCH  30  32
ATOM     31  C   UNL     1      48.609  11.002  11.510  0.00  0.00    +0.000 C 
ATOM     32  C   UNL     1      49.871  10.158  11.296  0.00  0.00    +0.000 C 
ATOM     33  C   UNL     1      51.092  10.939  11.793  0.00  0.00    +0.000 C 
ENDBRANCH  30  32
ENDBRANCH   1  30
TORSDOF 7
ENDMDL
