MODEL 1
REMARK VINA RESULT:    -7.355      0.000      0.000
REMARK INTER + INTRA:         -10.761
REMARK INTER:                 -10.150
REMARK INTRA:                  -0.611
REMARK UNBOUND:                -0.611
REMARK  Name = 
REMARK  7 active torsions:
REMARK  status: ('A' for Active; 'I' for Inactive)
REMARK    1  A    between atoms: N_1  and  C_2
REMARK    2  A    between atoms: C_2  and  C_3
REMARK    3  A    between atoms: C_7  and  C_8
REMARK    4  A    between atoms: C_8  and  C_9
REMARK    5  A    between atoms: C_9  and  N_10
REMARK    6  A    between atoms: N_10  and  C_11
REMARK    7  A    between atoms: C_14  and  C_15
REMARK                            x       y       z     vdW  Elec       q    Type
REMARK                         _______ _______ _______ _____ _____    ______ ____
ROOT
ATOM      1  N   UNL     1      43.961   3.562  10.385  0.00  0.00    +0.000 N 
ATOM      2  H   UNL     1      43.205   2.884  10.444  0.00  0.00    +0.000 HD
ENDROOT
BRANCH   1   3
ATOM      3  C   UNL     1      44.853   3.254   9.333  0.00  0.00    +0.000 A 
ATOM      4  C   UNL     1      45.291   1.948   9.078  0.00  0.00    +0.000 A 
ATOM      5  C   UNL     1      46.159   1.674   8.026  0.00  0.00    +0.000 A 
ATOM      6  C   UNL     1      46.539   2.718   7.204  0.00  0.00    +0.000 A 
ATOM      7  N   UNL     1      46.099   3.998   7.353  0.00  0.00    +0.000 NA
ATOM      8  C   UNL     1      45.256   4.218   8.398  0.00  0.00    +0.000 A 
BRANCH   6   9
ATOM      9  C   UNL     1      47.488   2.437   6.073  0.00  0.00    +0.000 C 
ATOM     10  N   UNL     1      48.804   2.659   6.344  0.00  0.00    +0.000 N 
ATOM     11  O   UNL     1      47.108   2.031   4.978  0.00  0.00    +0.000 OA
ATOM     12  H   UNL     1      49.076   3.006   7.257  0.00  0.00    +0.000 HD
ATOM     13  H   UNL     1      49.491   2.505   5.622  0.00  0.00    +0.000 HD
ENDBRANCH   6   9
ENDBRANCH   1   3
BRANCH   1  14
ATOM     14  C   UNL     1      43.474   4.954  10.395  0.00  0.00    +0.000 C 
BRANCH  14  15
ATOM     15  C   UNL     1      43.486   5.581  11.793  0.00  0.00    +0.000 C 
BRANCH  15  20
ATOM     16  C   UNL     1      46.705   5.179  13.843  0.00  0.00    +0.000 A 
ATOM     17  C   UNL     1      47.600   5.939  13.082  0.00  0.00    +0.000 A 
ATOM     18  C   UNL     1      47.163   6.610  11.939  0.00  0.00    +0.000 A 
ATOM     19  C   UNL     1      45.829   6.521  11.537  0.00  0.00    +0.000 A 
ATOM     20  C   UNL     1      44.913   5.760  12.275  0.00  0.00    +0.000 A 
ATOM     21  C   UNL     1      45.362   5.102  13.432  0.00  0.00    +0.000 A 
BRANCH  16  22
ATOM     22  C   UNL     1      47.173   4.467  15.088  0.00  0.00    +0.000 C 
BRANCH  22  23
ATOM     23  N   UNL     1      47.621   3.111  14.794  0.00  0.00    +0.000 NA
ATOM     24  H   UNL     1      48.598   3.018  15.065  0.00  0.00    +0.000 HD
ATOM     25  H   UNL     1      47.587   2.969  13.786  0.00  0.00    +0.000 HD
ENDBRANCH  22  23
ENDBRANCH  16  22
ENDBRANCH  15  20
ENDBRANCH  14  15
ENDBRANCH   1  14
TORSDOF 7
ENDMDL
MODEL 2
REMARK VINA RESULT:    -7.175      1.933      2.648
REMARK INTER + INTRA:         -10.512
REMARK INTER:                  -9.951
REMARK INTRA:                  -0.561
REMARK UNBOUND:                -0.611
REMARK  Name = 
REMARK  7 active torsions:
REMARK  status: ('A' for Active; 'I' for Inactive)
REMARK    1  A    between atoms: N_1  and  C_2
REMARK    2  A    between atoms: C_2  and  C_3
REMARK    3  A    between atoms: C_7  and  C_8
REMARK    4  A    between atoms: C_8  and  C_9
REMARK    5  A    between atoms: C_9  and  N_10
REMARK    6  A    between atoms: N_10  and  C_11
REMARK    7  A    between atoms: C_14  and  C_15
REMARK                            x       y       z     vdW  Elec       q    Type
REMARK                         _______ _______ _______ _____ _____    ______ ____
ROOT
ATOM      1  N   UNL     1      43.655   3.934  10.305  0.00  0.00    +0.000 N 
ATOM      2  H   UNL     1      43.649   4.952  10.307  0.00  0.00    +0.000 HD
ENDROOT
BRANCH   1   3
ATOM      3  C   UNL     1      44.598   3.421   9.386  0.00  0.00    +0.000 A 
ATOM      4  C   UNL     1      45.322   4.245   8.516  0.00  0.00    +0.000 A 
ATOM      5  C   UNL     1      46.254   3.711   7.631  0.00  0.00    +0.000 A 
ATOM      6  C   UNL     1      46.487   2.349   7.670  0.00  0.00    +0.000 A 
ATOM      7  N   UNL     1      45.869   1.500   8.537  0.00  0.00    +0.000 NA
ATOM      8  C   UNL     1      44.963   2.067   9.378  0.00  0.00    +0.000 A 
BRANCH   6   9
ATOM      9  C   UNL     1      47.482   1.760   6.709  0.00  0.00    +0.000 C 
ATOM     10  N   UNL     1      48.541   2.558   6.402  0.00  0.00    +0.000 N 
ATOM     11  O   UNL     1      47.353   0.635   6.234  0.00  0.00    +0.000 OA
ATOM     12  H   UNL     1      48.605   3.485   6.807  0.00  0.00    +0.000 HD
ATOM     13  H   UNL     1      49.236   2.228   5.750  0.00  0.00    +0.000 HD
ENDBRANCH   6   9
ENDBRANCH   1   3
BRANCH   1  14
ATOM     14  C   UNL     1      43.743   3.367  11.664  0.00  0.00    +0.000 C 
BRANCH  14  15
ATOM     15  C   UNL     1      43.574   4.421  12.763  0.00  0.00    +0.000 C 
BRANCH  15  20
ATOM     16  C   UNL     1      45.983   7.407  12.710  0.00  0.00    +0.000 A 
ATOM     17  C   UNL     1      47.119   6.841  13.300  0.00  0.00    +0.000 A 
ATOM     18  C   UNL     1      47.124   5.497  13.675  0.00  0.00    +0.000 A 
ATOM     19  C   UNL     1      45.992   4.705  13.476  0.00  0.00    +0.000 A 
ATOM     20  C   UNL     1      44.839   5.248  12.896  0.00  0.00    +0.000 A 
ATOM     21  C   UNL     1      44.850   6.598  12.509  0.00  0.00    +0.000 A 
BRANCH  16  22
ATOM     22  C   UNL     1      45.981   8.855  12.289  0.00  0.00    +0.000 C 
BRANCH  22  23
ATOM     23  N   UNL     1      44.796   9.554  12.772  0.00  0.00    +0.000 NA
ATOM     24  H   UNL     1      44.744   9.460  13.785  0.00  0.00    +0.000 HD
ATOM     25  H   UNL     1      43.970   9.088  12.398  0.00  0.00    +0.000 HD
ENDBRANCH  22  23
ENDBRANCH  16  22
ENDBRANCH  15  20
ENDBRANCH  14  15
ENDBRANCH   1  14
TORSDOF 7
ENDMDL
MODEL 3
REMARK VINA RESULT:    -7.116      2.941      6.377
REMARK INTER + INTRA:         -10.431
REMARK INTER:                  -9.675
REMARK INTRA:                  -0.756
REMARK UNBOUND:                -0.611
REMARK  Name = 
REMARK  7 active torsions:
REMARK  status: ('A' for Active; 'I' for Inactive)
REMARK    1  A    between atoms: N_1  and  C_2
REMARK    2  A    between atoms: C_2  and  C_3
REMARK    3  A    between atoms: C_7  and  C_8
REMARK    4  A    between atoms: C_8  and  C_9
REMARK    5  A    between atoms: C_9  and  N_10
REMARK    6  A    between atoms: N_10  and  C_11
REMARK    7  A    between atoms: C_14  and  C_15
REMARK                            x       y       z     vdW  Elec       q    Type
REMARK                         _______ _______ _______ _____ _____    ______ ____
ROOT
ATOM      1  N   UNL     1      44.397   3.502  12.499  0.00  0.00    +0.000 N 
ATOM      2  H   UNL     1      44.566   2.545  12.802  0.00  0.00    +0.000 HD
ENDROOT
BRANCH   1   3
ATOM      3  C   UNL     1      45.544   4.310  12.670  0.00  0.00    +0.000 A 
ATOM      4  C   UNL     1      45.713   5.525  11.996  0.00  0.00    +0.000 A 
ATOM      5  C   UNL     1      46.847   6.306  12.196  0.00  0.00    +0.000 A 
ATOM      6  C   UNL     1      47.783   5.875  13.118  0.00  0.00    +0.000 A 
ATOM      7  N   UNL     1      47.650   4.739  13.858  0.00  0.00    +0.000 NA
ATOM      8  C   UNL     1      46.527   4.008  13.624  0.00  0.00    +0.000 A 
BRANCH   6   9
ATOM      9  C   UNL     1      49.019   6.703  13.332  0.00  0.00    +0.000 C 
ATOM     10  N   UNL     1      49.568   7.237  12.206  0.00  0.00    +0.000 N 
ATOM     11  O   UNL     1      49.503   6.891  14.444  0.00  0.00    +0.000 OA
ATOM     12  H   UNL     1      49.144   7.049  11.304  0.00  0.00    +0.000 HD
ATOM     13  H   UNL     1      50.408   7.789  12.279  0.00  0.00    +0.000 HD
ENDBRANCH   6   9
ENDBRANCH   1   3
BRANCH   1  14
ATOM     14  C   UNL     1      43.785   3.571  11.159  0.00  0.00    +0.000 C 
BRANCH  14  15
ATOM     15  C   UNL     1      44.122   2.359  10.285  0.00  0.00    +0.000 C 
BRANCH  15  20
ATOM     16  C   UNL     1      46.689   2.102   7.444  0.00  0.00    +0.000 A 
ATOM     17  C   UNL     1      46.818   3.448   7.082  0.00  0.00    +0.000 A 
ATOM     18  C   UNL     1      46.117   4.435   7.773  0.00  0.00    +0.000 A 
ATOM     19  C   UNL     1      45.268   4.090   8.827  0.00  0.00    +0.000 A 
ATOM     20  C   UNL     1      45.113   2.751   9.205  0.00  0.00    +0.000 A 
ATOM     21  C   UNL     1      45.835   1.767   8.511  0.00  0.00    +0.000 A 
BRANCH  16  22
ATOM     22  C   UNL     1      47.459   1.034   6.708  0.00  0.00    +0.000 C 
BRANCH  22  23
ATOM     23  N   UNL     1      48.404   1.611   5.759  0.00  0.00    +0.000 NA
ATOM     24  H   UNL     1      49.328   1.216   5.928  0.00  0.00    +0.000 HD
ATOM     25  H   UNL     1      48.481   2.610   5.944  0.00  0.00    +0.000 HD
ENDBRANCH  22  23
ENDBRANCH  16  22
ENDBRANCH  15  20
ENDBRANCH  14  15
ENDBRANCH   1  14
TORSDOF 7
ENDMDL
MODEL 4
REMARK VINA RESULT:    -6.623      1.745      2.290
REMARK INTER + INTRA:          -9.750
REMARK INTER:                  -9.166
REMARK INTRA:                  -0.584
REMARK UNBOUND:                -0.611
REMARK  Name = 
REMARK  7 active torsions:
REMARK  status: ('A' for Active; 'I' for Inactive)
REMARK    1  A    between atoms: N_1  and  C_2
REMARK    2  A    between atoms: C_2  and  C_3
REMARK    3  A    between atoms: C_7  and  C_8
REMARK    4  A    between atoms: C_8  and  C_9
REMARK    5  A    between atoms: C_9  and  N_10
REMARK    6  A    between atoms: N_10  and  C_11
REMARK    7  A    between atoms: C_14  and  C_15
REMARK                            x       y       z     vdW  Elec       q    Type
REMARK                         _______ _______ _______ _____ _____    ______ ____
ROOT
ATOM      1  N   UNL     1      43.702   5.044   9.756  0.00  0.00    +0.000 N 
ATOM      2  H   UNL     1      43.647   5.838   9.122  0.00  0.00    +0.000 HD
ENDROOT
BRANCH   1   3
ATOM      3  C   UNL     1      44.522   4.019   9.233  0.00  0.00    +0.000 A 
ATOM      4  C   UNL     1      44.350   2.672   9.574  0.00  0.00    +0.000 A 
ATOM      5  C   UNL     1      45.164   1.683   9.032  0.00  0.00    +0.000 A 
ATOM      6  C   UNL     1      46.119   2.059   8.105  0.00  0.00    +0.000 A 
ATOM      7  N   UNL     1      46.295   3.340   7.676  0.00  0.00    +0.000 NA
ATOM      8  C   UNL     1      45.479   4.271   8.239  0.00  0.00    +0.000 A 
BRANCH   6   9
ATOM      9  C   UNL     1      47.014   1.001   7.522  0.00  0.00    +0.000 C 
ATOM     10  N   UNL     1      48.041   1.462   6.755  0.00  0.00    +0.000 N 
ATOM     11  O   UNL     1      46.838  -0.197   7.725  0.00  0.00    +0.000 OA
ATOM     12  H   UNL     1      48.146   2.459   6.604  0.00  0.00    +0.000 HD
ATOM     13  H   UNL     1      48.669   0.803   6.322  0.00  0.00    +0.000 HD
ENDBRANCH   6   9
ENDBRANCH   1   3
BRANCH   1  14
ATOM     14  C   UNL     1      44.019   5.446  11.139  0.00  0.00    +0.000 C 
BRANCH  14  15
ATOM     15  C   UNL     1      45.236   6.373  11.228  0.00  0.00    +0.000 C 
BRANCH  15  20
ATOM     16  C   UNL     1      48.075   6.388  13.808  0.00  0.00    +0.000 A 
ATOM     17  C   UNL     1      47.672   5.346  14.652  0.00  0.00    +0.000 A 
ATOM     18  C   UNL     1      46.516   4.617  14.370  0.00  0.00    +0.000 A 
ATOM     19  C   UNL     1      45.743   4.927  13.249  0.00  0.00    +0.000 A 
ATOM     20  C   UNL     1      46.119   5.969  12.393  0.00  0.00    +0.000 A 
ATOM     21  C   UNL     1      47.292   6.687  12.679  0.00  0.00    +0.000 A 
BRANCH  16  22
ATOM     22  C   UNL     1      49.333   7.166  14.103  0.00  0.00    +0.000 C 
BRANCH  22  23
ATOM     23  N   UNL     1      50.105   7.418  12.892  0.00  0.00    +0.000 NA
ATOM     24  H   UNL     1      49.530   7.202  12.080  0.00  0.00    +0.000 HD
ATOM     25  H   UNL     1      50.892   6.771  12.867  0.00  0.00    +0.000 HD
ENDBRANCH  22  23
ENDBRANCH  16  22
ENDBRANCH  15  20
ENDBRANCH  14  15
ENDBRANCH   1  14
TORSDOF 7
ENDMDL
MODEL 5
REMARK VINA RESULT:    -6.598      1.649      2.039
REMARK INTER + INTRA:          -9.716
REMARK INTER:                  -9.087
REMARK INTRA:                  -0.629
REMARK UNBOUND:                -0.611
REMARK  Name = 
REMARK  7 active torsions:
REMARK  status: ('A' for Active; 'I' for Inactive)
REMARK    1  A    between atoms: N_1  and  C_2
REMARK    2  A    between atoms: C_2  and  C_3
REMARK    3  A    between atoms: C_7  and  C_8
REMARK    4  A    between atoms: C_8  and  C_9
REMARK    5  A    between atoms: C_9  and  N_10
REMARK    6  A    between atoms: N_10  and  C_11
REMARK    7  A    between atoms: C_14  and  C_15
REMARK                            x       y       z     vdW  Elec       q    Type
REMARK                         _______ _______ _______ _____ _____    ______ ____
ROOT
ATOM      1  N   UNL     1      43.953   4.654  10.092  0.00  0.00    +0.000 N 
ATOM      2  H   UNL     1      43.156   5.038   9.588  0.00  0.00    +0.000 HD
ENDROOT
BRANCH   1   3
ATOM      3  C   UNL     1      44.829   3.959   9.228  0.00  0.00    +0.000 A 
ATOM      4  C   UNL     1      45.715   4.619   8.369  0.00  0.00    +0.000 A 
ATOM      5  C   UNL     1      46.575   3.907   7.539  0.00  0.00    +0.000 A 
ATOM      6  C   UNL     1      46.569   2.527   7.621  0.00  0.00    +0.000 A 
ATOM      7  N   UNL     1      45.782   1.823   8.481  0.00  0.00    +0.000 NA
ATOM      8  C   UNL     1      44.955   2.563   9.268  0.00  0.00    +0.000 A 
BRANCH   6   9
ATOM      9  C   UNL     1      47.483   1.746   6.719  0.00  0.00    +0.000 C 
ATOM     10  N   UNL     1      48.640   2.376   6.371  0.00  0.00    +0.000 N 
ATOM     11  O   UNL     1      47.212   0.617   6.322  0.00  0.00    +0.000 OA
ATOM     12  H   UNL     1      48.822   3.314   6.711  0.00  0.00    +0.000 HD
ATOM     13  H   UNL     1      49.289   1.913   5.755  0.00  0.00    +0.000 HD
ENDBRANCH   6   9
ENDBRANCH   1   3
BRANCH   1  14
ATOM     14  C   UNL     1      44.604   5.651  10.962  0.00  0.00    +0.000 C 
BRANCH  14  15
ATOM     15  C   UNL     1      45.500   5.017  12.032  0.00  0.00    +0.000 C 
BRANCH  15  20
ATOM     16  C   UNL     1      48.281   6.752  14.027  0.00  0.00    +0.000 A 
ATOM     17  C   UNL     1      48.833   7.582  13.045  0.00  0.00    +0.000 A 
ATOM     18  C   UNL     1      48.289   7.615  11.761  0.00  0.00    +0.000 A 
ATOM     19  C   UNL     1      47.194   6.810  11.438  0.00  0.00    +0.000 A 
ATOM     20  C   UNL     1      46.627   5.963  12.399  0.00  0.00    +0.000 A 
ATOM     21  C   UNL     1      47.174   5.950  13.693  0.00  0.00    +0.000 A 
BRANCH  16  22
ATOM     22  C   UNL     1      48.858   6.728  15.421  0.00  0.00    +0.000 C 
BRANCH  22  23
ATOM     23  N   UNL     1      50.280   6.405  15.408  0.00  0.00    +0.000 NA
ATOM     24  H   UNL     1      50.735   6.875  16.188  0.00  0.00    +0.000 HD
ATOM     25  H   UNL     1      50.693   6.792  14.560  0.00  0.00    +0.000 HD
ENDBRANCH  22  23
ENDBRANCH  16  22
ENDBRANCH  15  20
ENDBRANCH  14  15
ENDBRANCH   1  14
TORSDOF 7
ENDMDL
MODEL 6
REMARK VINA RESULT:    -6.458      2.792      6.816
REMARK INTER + INTRA:          -9.523
REMARK INTER:                  -8.833
REMARK INTRA:                  -0.689
REMARK UNBOUND:                -0.611
REMARK  Name = 
REMARK  7 active torsions:
REMARK  status: ('A' for Active; 'I' for Inactive)
REMARK    1  A    between atoms: N_1  and  C_2
REMARK    2  A    between atoms: C_2  and  C_3
REMARK    3  A    between atoms: C_7  and  C_8
REMARK    4  A    between atoms: C_8  and  C_9
REMARK    5  A    between atoms: C_9  and  N_10
REMARK    6  A    between atoms: N_10  and  C_11
REMARK    7  A    between atoms: C_14  and  C_15
REMARK                            x       y       z     vdW  Elec       q    Type
REMARK                         _______ _______ _______ _____ _____    ______ ____
ROOT
ATOM      1  N   UNL     1      44.039   5.468  10.717  0.00  0.00    +0.000 N 
ATOM      2  H   UNL     1      43.123   5.803  11.008  0.00  0.00    +0.000 HD
ENDROOT
BRANCH   1   3
ATOM      3  C   UNL     1      44.846   5.135  11.829  0.00  0.00    +0.000 A 
ATOM      4  C   UNL     1      45.177   3.813  12.146  0.00  0.00    +0.000 A 
ATOM      5  C   UNL     1      45.985   3.517  13.239  0.00  0.00    +0.000 A 
ATOM      6  C   UNL     1      46.498   4.568  13.976  0.00  0.00    +0.000 A 
ATOM      7  N   UNL     1      46.273   5.879  13.683  0.00  0.00    +0.000 NA
ATOM      8  C   UNL     1      45.473   6.118  12.609  0.00  0.00    +0.000 A 
BRANCH   6   9
ATOM      9  C   UNL     1      47.361   4.261  15.168  0.00  0.00    +0.000 C 
ATOM     10  N   UNL     1      47.673   5.327  15.955  0.00  0.00    +0.000 N 
ATOM     11  O   UNL     1      47.757   3.127  15.420  0.00  0.00    +0.000 OA
ATOM     12  H   UNL     1      47.335   6.250  15.706  0.00  0.00    +0.000 HD
ATOM     13  H   UNL     1      48.262   5.192  16.761  0.00  0.00    +0.000 HD
ENDBRANCH   6   9
ENDBRANCH   1   3
BRANCH   1  14
ATOM     14  C   UNL     1      43.956   4.426   9.678  0.00  0.00    +0.000 C 
BRANCH  14  15
ATOM     15  C   UNL     1      45.000   4.601   8.570  0.00  0.00    +0.000 C 
BRANCH  15  20
ATOM     16  C   UNL     1      47.313   1.957   7.028  0.00  0.00    +0.000 A 
ATOM     17  C   UNL     1      46.807   0.789   7.612  0.00  0.00    +0.000 A 
ATOM     18  C   UNL     1      45.703   0.848   8.463  0.00  0.00    +0.000 A 
ATOM     19  C   UNL     1      45.099   2.073   8.751  0.00  0.00    +0.000 A 
ATOM     20  C   UNL     1      45.590   3.257   8.188  0.00  0.00    +0.000 A 
ATOM     21  C   UNL     1      46.692   3.185   7.321  0.00  0.00    +0.000 A 
BRANCH  16  22
ATOM     22  C   UNL     1      48.496   1.894   6.095  0.00  0.00    +0.000 C 
BRANCH  22  23
ATOM     23  N   UNL     1      48.200   2.514   4.808  0.00  0.00    +0.000 NA
ATOM     24  H   UNL     1      48.025   1.784   4.120  0.00  0.00    +0.000 HD
ATOM     25  H   UNL     1      49.028   3.016   4.491  0.00  0.00    +0.000 HD
ENDBRANCH  22  23
ENDBRANCH  16  22
ENDBRANCH  15  20
ENDBRANCH  14  15
ENDBRANCH   1  14
TORSDOF 7
ENDMDL
MODEL 7
REMARK VINA RESULT:    -6.457      3.048      7.174
REMARK INTER + INTRA:          -9.522
REMARK INTER:                  -9.066
REMARK INTRA:                  -0.456
REMARK UNBOUND:                -0.611
REMARK  Name = 
REMARK  7 active torsions:
REMARK  status: ('A' for Active; 'I' for Inactive)
REMARK    1  A    between atoms: N_1  and  C_2
REMARK    2  A    between atoms: C_2  and  C_3
REMARK    3  A    between atoms: C_7  and  C_8
REMARK    4  A    between atoms: C_8  and  C_9
REMARK    5  A    between atoms: C_9  and  N_10
REMARK    6  A    between atoms: N_10  and  C_11
REMARK    7  A    between atoms: C_14  and  C_15
REMARK                            x       y       z     vdW  Elec       q    Type
REMARK                         _______ _______ _______ _____ _____    ______ ____
ROOT
ATOM      1  N   UNL     1      43.639   5.382  10.693  0.00  0.00    +0.000 N 
ATOM      2  H   UNL     1      42.818   5.174  11.257  0.00  0.00    +0.000 HD
ENDROOT
BRANCH   1   3
ATOM      3  C   UNL     1      44.640   6.031  11.451  0.00  0.00    +0.000 A 
ATOM      4  C   UNL     1      44.897   7.402  11.336  0.00  0.00    +0.000 A 
ATOM      5  C   UNL     1      45.880   8.015  12.106  0.00  0.00    +0.000 A 
ATOM      6  C   UNL     1      46.564   7.244  13.028  0.00  0.00    +0.000 A 
ATOM      7  N   UNL     1      46.317   5.922  13.240  0.00  0.00    +0.000 NA
ATOM      8  C   UNL     1      45.351   5.366  12.460  0.00  0.00    +0.000 A 
BRANCH   6   9
ATOM      9  C   UNL     1      47.638   7.893  13.856  0.00  0.00    +0.000 C 
ATOM     10  N   UNL     1      47.206   8.830  14.744  0.00  0.00    +0.000 N 
ATOM     11  O   UNL     1      48.825   7.598  13.744  0.00  0.00    +0.000 OA
ATOM     12  H   UNL     1      46.218   9.052  14.798  0.00  0.00    +0.000 HD
ATOM     13  H   UNL     1      47.879   9.314  15.318  0.00  0.00    +0.000 HD
ENDBRANCH   6   9
ENDBRANCH   1   3
BRANCH   1  14
ATOM     14  C   UNL     1      44.105   4.214   9.923  0.00  0.00    +0.000 C 
BRANCH  14  15
ATOM     15  C   UNL     1      45.068   4.589   8.791  0.00  0.00    +0.000 C 
BRANCH  15  20
ATOM     16  C   UNL     1      47.020   2.286   6.423  0.00  0.00    +0.000 A 
ATOM     17  C   UNL     1      46.876   1.055   7.073  0.00  0.00    +0.000 A 
ATOM     18  C   UNL     1      46.122   0.958   8.243  0.00  0.00    +0.000 A 
ATOM     19  C   UNL     1      45.512   2.092   8.784  0.00  0.00    +0.000 A 
ATOM     20  C   UNL     1      45.647   3.338   8.159  0.00  0.00    +0.000 A 
ATOM     21  C   UNL     1      46.396   3.420   6.975  0.00  0.00    +0.000 A 
BRANCH  16  22
ATOM     22  C   UNL     1      47.822   2.390   5.149  0.00  0.00    +0.000 C 
BRANCH  22  23
ATOM     23  N   UNL     1      47.550   1.273   4.252  0.00  0.00    +0.000 NA
ATOM     24  H   UNL     1      46.819   1.543   3.596  0.00  0.00    +0.000 HD
ATOM     25  H   UNL     1      47.174   0.500   4.799  0.00  0.00    +0.000 HD
ENDBRANCH  22  23
ENDBRANCH  16  22
ENDBRANCH  15  20
ENDBRANCH  14  15
ENDBRANCH   1  14
TORSDOF 7
ENDMDL
MODEL 8
REMARK VINA RESULT:    -6.456      3.163      7.319
REMARK INTER + INTRA:          -9.520
REMARK INTER:                  -9.093
REMARK INTRA:                  -0.427
REMARK UNBOUND:                -0.611
REMARK  Name = 
REMARK  7 active torsions:
REMARK  status: ('A' for Active; 'I' for Inactive)
REMARK    1  A    between atoms: N_1  and  C_2
REMARK    2  A    between atoms: C_2  and  C_3
REMARK    3  A    between atoms: C_7  and  C_8
REMARK    4  A    between atoms: C_8  and  C_9
REMARK    5  A    between atoms: C_9  and  N_10
REMARK    6  A    between atoms: N_10  and  C_11
REMARK    7  A    between atoms: C_14  and  C_15
REMARK                            x       y       z     vdW  Elec       q    Type
REMARK                         _______ _______ _______ _____ _____    ______ ____
ROOT
ATOM      1  N   UNL     1      46.642   6.197  11.672  0.00  0.00    +0.000 N 
ATOM      2  H   UNL     1      46.671   7.215  11.694  0.00  0.00    +0.000 HD
ENDROOT
BRANCH   1   3
ATOM      3  C   UNL     1      46.898   5.643  12.946  0.00  0.00    +0.000 A 
ATOM      4  C   UNL     1      47.727   6.270  13.884  0.00  0.00    +0.000 A 
ATOM      5  C   UNL     1      47.949   5.706  15.137  0.00  0.00    +0.000 A 
ATOM      6  C   UNL     1      47.289   4.533  15.452  0.00  0.00    +0.000 A 
ATOM      7  N   UNL     1      46.417   3.906  14.613  0.00  0.00    +0.000 NA
ATOM      8  C   UNL     1      46.236   4.493  13.400  0.00  0.00    +0.000 A 
BRANCH   6   9
ATOM      9  C   UNL     1      47.532   3.907  16.797  0.00  0.00    +0.000 C 
ATOM     10  N   UNL     1      48.705   4.249  17.397  0.00  0.00    +0.000 N 
ATOM     11  O   UNL     1      46.729   3.141  17.322  0.00  0.00    +0.000 OA
ATOM     12  H   UNL     1      49.346   4.876  16.925  0.00  0.00    +0.000 HD
ATOM     13  H   UNL     1      48.936   3.850  18.294  0.00  0.00    +0.000 HD
ENDBRANCH   6   9
ENDBRANCH   1   3
BRANCH   1  14
ATOM     14  C   UNL     1      45.432   5.682  11.004  0.00  0.00    +0.000 C 
BRANCH  14  15
ATOM     15  C   UNL     1      45.527   5.729   9.476  0.00  0.00    +0.000 C 
BRANCH  15  20
ATOM     16  C   UNL     1      46.536   2.766   7.256  0.00  0.00    +0.000 A 
ATOM     17  C   UNL     1      45.954   1.702   7.955  0.00  0.00    +0.000 A 
ATOM     18  C   UNL     1      45.208   1.940   9.109  0.00  0.00    +0.000 A 
ATOM     19  C   UNL     1      45.043   3.241   9.586  0.00  0.00    +0.000 A 
ATOM     20  C   UNL     1      45.621   4.324   8.912  0.00  0.00    +0.000 A 
ATOM     21  C   UNL     1      46.358   4.074   7.743  0.00  0.00    +0.000 A 
BRANCH  16  22
ATOM     22  C   UNL     1      47.330   2.513   5.998  0.00  0.00    +0.000 C 
BRANCH  22  23
ATOM     23  N   UNL     1      48.756   2.397   6.278  0.00  0.00    +0.000 NA
ATOM     24  H   UNL     1      49.220   3.262   6.004  0.00  0.00    +0.000 HD
ATOM     25  H   UNL     1      49.145   1.664   5.686  0.00  0.00    +0.000 HD
ENDBRANCH  22  23
ENDBRANCH  16  22
ENDBRANCH  15  20
ENDBRANCH  14  15
ENDBRANCH   1  14
TORSDOF 7
ENDMDL
MODEL 9
REMARK VINA RESULT:    -6.152      3.319      5.637
REMARK INTER + INTRA:          -9.100
REMARK INTER:                  -8.584
REMARK INTRA:                  -0.516
REMARK UNBOUND:                -0.611
REMARK  Name = 
REMARK  7 active torsions:
REMARK  status: ('A' for Active; 'I' for Inactive)
REMARK    1  A    between atoms: N_1  and  C_2
REMARK    2  A    between atoms: C_2  and  C_3
REMARK    3  A    between atoms: C_7  and  C_8
REMARK    4  A    between atoms: C_8  and  C_9
REMARK    5  A    between atoms: C_9  and  N_10
REMARK    6  A    between atoms: N_10  and  C_11
REMARK    7  A    between atoms: C_14  and  C_15
REMARK                            x       y       z     vdW  Elec       q    Type
REMARK                         _______ _______ _______ _____ _____    ______ ____
ROOT
ATOM      1  N   UNL     1      47.088   7.251  13.708  0.00  0.00    +0.000 N 
ATOM      2  H   UNL     1      47.088   8.123  13.182  0.00  0.00    +0.000 HD
ENDROOT
BRANCH   1   3
ATOM      3  C   UNL     1      46.350   6.245  13.043  0.00  0.00    +0.000 A 
ATOM      4  C   UNL     1      45.915   6.384  11.720  0.00  0.00    +0.000 A 
ATOM      5  C   UNL     1      45.203   5.369  11.088  0.00  0.00    +0.000 A 
ATOM      6  C   UNL     1      44.979   4.196  11.785  0.00  0.00    +0.000 A 
ATOM      7  N   UNL     1      45.432   3.968  13.049  0.00  0.00    +0.000 NA
ATOM      8  C   UNL     1      46.119   4.990  13.626  0.00  0.00    +0.000 A 
BRANCH   6   9
ATOM      9  C   UNL     1      44.198   3.098  11.117  0.00  0.00    +0.000 C 
ATOM     10  N   UNL     1      44.890   2.360  10.206  0.00  0.00    +0.000 N 
ATOM     11  O   UNL     1      43.019   2.877  11.376  0.00  0.00    +0.000 OA
ATOM     12  H   UNL     1      45.860   2.582  10.013  0.00  0.00    +0.000 HD
ATOM     13  H   UNL     1      44.419   1.618   9.711  0.00  0.00    +0.000 HD
ENDBRANCH   6   9
ENDBRANCH   1   3
BRANCH   1  14
ATOM     14  C   UNL     1      48.441   6.848  14.134  0.00  0.00    +0.000 C 
BRANCH  14  15
ATOM     15  C   UNL     1      48.775   7.291  15.561  0.00  0.00    +0.000 C 
BRANCH  15  20
ATOM     16  C   UNL     1      48.913   3.879  17.311  0.00  0.00    +0.000 A 
ATOM     17  C   UNL     1      50.252   3.844  17.718  0.00  0.00    +0.000 A 
ATOM     18  C   UNL     1      51.094   4.928  17.468  0.00  0.00    +0.000 A 
ATOM     19  C   UNL     1      50.613   6.055  16.798  0.00  0.00    +0.000 A 
ATOM     20  C   UNL     1      49.280   6.113  16.372  0.00  0.00    +0.000 A 
ATOM     21  C   UNL     1      48.438   5.022  16.642  0.00  0.00    +0.000 A 
BRANCH  16  22
ATOM     22  C   UNL     1      47.997   2.714  17.594  0.00  0.00    +0.000 C 
BRANCH  22  23
ATOM     23  N   UNL     1      46.594   3.096  17.487  0.00  0.00    +0.000 NA
ATOM     24  H   UNL     1      46.015   2.262  17.568  0.00  0.00    +0.000 HD
ATOM     25  H   UNL     1      46.429   3.471  16.554  0.00  0.00    +0.000 HD
ENDBRANCH  22  23
ENDBRANCH  16  22
ENDBRANCH  15  20
ENDBRANCH  14  15
ENDBRANCH   1  14
TORSDOF 7
ENDMDL
