MODEL 1
REMARK VINA RESULT:    -7.818      0.000      0.000
REMARK INTER + INTRA:         -13.644
REMARK INTER:                 -12.160
REMARK INTRA:                  -1.484
REMARK UNBOUND:                -1.484
REMARK  Name = 
REMARK  11 active torsions:
REMARK  status: ('A' for Active; 'I' for Inactive)
REMARK    1  A    between atoms: C_1  and  C_2
REMARK    2  A    between atoms: C_4  and  C_5
REMARK    3  A    between atoms: C_5  and  N_6
REMARK    4  A    between atoms: N_6  and  C_7
REMARK    5  A    between atoms: N_6  and  C_10
REMARK    6  A    between atoms: C_7  and  C_8
REMARK    7  A    between atoms: C_8  and  O_9
REMARK    8  A    between atoms: C_10  and  C_11
REMARK    9  A    between atoms: C_19  and  C_20
REMARK   10  A    between atoms: C_20  and  N_21
REMARK   11  A    between atoms: C_22  and  C_24
REMARK                            x       y       z     vdW  Elec       q    Type
REMARK                         _______ _______ _______ _____ _____    ______ ____
ROOT
ATOM      1  C   UNL     1      48.992   7.075  11.767  0.00  0.00    +0.000 C 
ATOM      2  C   UNL     1      47.491   7.132  11.807  0.00  0.00    +0.000 A 
ATOM      3  C   UNL     1      46.788   6.407  10.834  0.00  0.00    +0.000 A 
ATOM      4  C   UNL     1      45.405   6.211  10.926  0.00  0.00    +0.000 A 
ATOM      5  C   UNL     1      44.697   6.865  11.937  0.00  0.00    +0.000 A 
ATOM      6  C   UNL     1      45.377   7.667  12.861  0.00  0.00    +0.000 A 
ATOM      7  C   UNL     1      46.777   7.811  12.815  0.00  0.00    +0.000 A 
ENDROOT
BRANCH   4   8
ATOM      8  C   UNL     1      44.743   5.211   9.997  0.00  0.00    +0.000 C 
BRANCH   8   9
ATOM      9  N   UNL     1      45.234   3.815  10.218  0.00  0.00    +0.000 NA
BRANCH   9  10
ATOM     10  C   UNL     1      44.833   3.347  11.570  0.00  0.00    +0.000 C 
BRANCH  10  11
ATOM     11  C   UNL     1      43.320   3.205  11.827  0.00  0.00    +0.000 C 
BRANCH  11  12
ATOM     12  O   UNL     1      42.893   1.846  11.816  0.00  0.00    +0.000 OA
ATOM     13  H   UNL     1      41.927   1.865  11.691  0.00  0.00    +0.000 HD
ENDBRANCH  11  12
ENDBRANCH  10  11
ENDBRANCH   9  10
BRANCH   9  14
ATOM     14  C   UNL     1      44.704   2.930   9.157  0.00  0.00    +0.000 C 
BRANCH  14  15
ATOM     15  C   UNL     1      45.750   2.457   8.161  0.00  0.00    +0.000 A 
ATOM     16  C   UNL     1      46.216   3.316   7.167  0.00  0.00    +0.000 A 
ATOM     17  C   UNL     1      47.148   2.838   6.250  0.00  0.00    +0.000 A 
ATOM     18  C   UNL     1      47.596   1.530   6.354  0.00  0.00    +0.000 A 
ATOM     19  C   UNL     1      47.085   0.740   7.378  0.00  0.00    +0.000 A 
ATOM     20  N   UNL     1      46.178   1.175   8.279  0.00  0.00    +0.000 NA
ENDBRANCH  14  15
ENDBRANCH   9  14
ENDBRANCH   8   9
ENDBRANCH   4   8
BRANCH   7  21
ATOM     21  C   UNL     1      47.469   8.613  13.895  0.00  0.00    +0.000 C 
BRANCH  21  22
ATOM     22  N   UNL     1      47.777   7.781  15.030  0.00  0.00    +0.000 N 
ATOM     23  C   UNL     1      49.067   7.562  15.443  0.00  0.00    +0.000 C 
ATOM     24  O   UNL     1      50.031   8.097  14.903  0.00  0.00    +0.000 OA
ATOM     25  H   UNL     1      47.049   7.138  15.322  0.00  0.00    +0.000 HD
BRANCH  23  26
ATOM     26  C   UNL     1      49.225   6.723  16.643  0.00  0.00    +0.000 A 
ATOM     27  C   UNL     1      50.004   7.168  17.704  0.00  0.00    +0.000 A 
ATOM     28  S   UNL     1      49.969   6.130  19.059  0.00  0.00    +0.000 S 
ATOM     29  C   UNL     1      48.950   5.027  18.259  0.00  0.00    +0.000 A 
ATOM     30  N   UNL     1      48.503   3.902  18.881  0.00  0.00    +0.000 NA
ATOM     31  C   UNL     1      47.760   3.144  18.146  0.00  0.00    +0.000 A 
ATOM     32  N   UNL     1      47.439   3.398  16.838  0.00  0.00    +0.000 N 
ATOM     33  C   UNL     1      47.875   4.514  16.168  0.00  0.00    +0.000 A 
ATOM     34  O   UNL     1      47.598   4.697  14.987  0.00  0.00    +0.000 OA
ATOM     35  C   UNL     1      48.672   5.428  16.965  0.00  0.00    +0.000 A 
ATOM     36  H   UNL     1      46.871   2.753  16.307  0.00  0.00    +0.000 HD
ENDBRANCH  23  26
ENDBRANCH  21  22
ENDBRANCH   7  21
TORSDOF 10
ENDMDL
MODEL 2
REMARK VINA RESULT:    -7.458      1.745      2.232
REMARK INTER + INTRA:         -13.084
REMARK INTER:                 -11.962
REMARK INTRA:                  -1.122
REMARK UNBOUND:                -1.484
REMARK  Name = 
REMARK  11 active torsions:
REMARK  status: ('A' for Active; 'I' for Inactive)
REMARK    1  A    between atoms: C_1  and  C_2
REMARK    2  A    between atoms: C_4  and  C_5
REMARK    3  A    between atoms: C_5  and  N_6
REMARK    4  A    between atoms: N_6  and  C_7
REMARK    5  A    between atoms: N_6  and  C_10
REMARK    6  A    between atoms: C_7  and  C_8
REMARK    7  A    between atoms: C_8  and  O_9
REMARK    8  A    between atoms: C_10  and  C_11
REMARK    9  A    between atoms: C_19  and  C_20
REMARK   10  A    between atoms: C_20  and  N_21
REMARK   11  A    between atoms: C_22  and  C_24
REMARK                            x       y       z     vdW  Elec       q    Type
REMARK                         _______ _______ _______ _____ _____    ______ ____
ROOT
ATOM      1  C   UNL     1      48.467   8.836  11.888  0.00  0.00    +0.000 C 
ATOM      2  C   UNL     1      47.601   7.728  12.418  0.00  0.00    +0.000 A 
ATOM      3  C   UNL     1      46.354   7.532  11.808  0.00  0.00    +0.000 A 
ATOM      4  C   UNL     1      45.584   6.394  12.072  0.00  0.00    +0.000 A 
ATOM      5  C   UNL     1      46.009   5.506  13.063  0.00  0.00    +0.000 A 
ATOM      6  C   UNL     1      47.208   5.740  13.745  0.00  0.00    +0.000 A 
ATOM      7  C   UNL     1      48.022   6.847  13.434  0.00  0.00    +0.000 A 
ENDROOT
BRANCH   4   8
ATOM      8  C   UNL     1      44.376   6.108  11.199  0.00  0.00    +0.000 C 
BRANCH   8   9
ATOM      9  N   UNL     1      44.294   4.669  10.794  0.00  0.00    +0.000 NA
BRANCH   9  10
ATOM     10  C   UNL     1      43.190   4.000  11.530  0.00  0.00    +0.000 C 
BRANCH  10  11
ATOM     11  C   UNL     1      43.549   2.697  12.271  0.00  0.00    +0.000 C 
BRANCH  11  12
ATOM     12  O   UNL     1      42.991   1.546  11.645  0.00  0.00    +0.000 OA
ATOM     13  H   UNL     1      43.115   1.670  10.687  0.00  0.00    +0.000 HD
ENDBRANCH  11  12
ENDBRANCH  10  11
ENDBRANCH   9  10
BRANCH   9  14
ATOM     14  C   UNL     1      44.104   4.577   9.329  0.00  0.00    +0.000 C 
BRANCH  14  15
ATOM     15  C   UNL     1      45.109   3.681   8.626  0.00  0.00    +0.000 A 
ATOM     16  C   UNL     1      45.144   2.314   8.896  0.00  0.00    +0.000 A 
ATOM     17  C   UNL     1      46.101   1.529   8.260  0.00  0.00    +0.000 A 
ATOM     18  C   UNL     1      46.985   2.120   7.370  0.00  0.00    +0.000 A 
ATOM     19  C   UNL     1      46.880   3.490   7.152  0.00  0.00    +0.000 A 
ATOM     20  N   UNL     1      45.965   4.277   7.757  0.00  0.00    +0.000 NA
ENDBRANCH  14  15
ENDBRANCH   9  14
ENDBRANCH   8   9
ENDBRANCH   4   8
BRANCH   7  21
ATOM     21  C   UNL     1      49.354   6.999  14.136  0.00  0.00    +0.000 C 
BRANCH  21  22
ATOM     22  N   UNL     1      49.168   7.128  15.559  0.00  0.00    +0.000 N 
ATOM     23  C   UNL     1      50.067   6.616  16.460  0.00  0.00    +0.000 C 
ATOM     24  O   UNL     1      51.105   6.062  16.110  0.00  0.00    +0.000 OA
ATOM     25  H   UNL     1      48.224   7.338  15.868  0.00  0.00    +0.000 HD
BRANCH  23  26
ATOM     26  C   UNL     1      49.765   6.860  17.881  0.00  0.00    +0.000 A 
ATOM     27  C   UNL     1      49.828   8.151  18.392  0.00  0.00    +0.000 A 
ATOM     28  S   UNL     1      49.323   8.266  20.018  0.00  0.00    +0.000 S 
ATOM     29  C   UNL     1      49.047   6.589  20.111  0.00  0.00    +0.000 A 
ATOM     30  N   UNL     1      48.565   6.016  21.247  0.00  0.00    +0.000 NA
ATOM     31  C   UNL     1      48.431   4.734  21.183  0.00  0.00    +0.000 A 
ATOM     32  N   UNL     1      48.752   3.968  20.093  0.00  0.00    +0.000 N 
ATOM     33  C   UNL     1      49.250   4.502  18.930  0.00  0.00    +0.000 A 
ATOM     34  O   UNL     1      49.560   3.788  17.982  0.00  0.00    +0.000 OA
ATOM     35  C   UNL     1      49.372   5.948  18.929  0.00  0.00    +0.000 A 
ATOM     36  H   UNL     1      48.646   2.964  20.113  0.00  0.00    +0.000 HD
ENDBRANCH  23  26
ENDBRANCH  21  22
ENDBRANCH   7  21
TORSDOF 10
ENDMDL
MODEL 3
REMARK VINA RESULT:    -7.221      2.508      3.317
REMARK INTER + INTRA:         -12.715
REMARK INTER:                 -11.797
REMARK INTRA:                  -0.919
REMARK UNBOUND:                -1.484
REMARK  Name = 
REMARK  11 active torsions:
REMARK  status: ('A' for Active; 'I' for Inactive)
REMARK    1  A    between atoms: C_1  and  C_2
REMARK    2  A    between atoms: C_4  and  C_5
REMARK    3  A    between atoms: C_5  and  N_6
REMARK    4  A    between atoms: N_6  and  C_7
REMARK    5  A    between atoms: N_6  and  C_10
REMARK    6  A    between atoms: C_7  and  C_8
REMARK    7  A    between atoms: C_8  and  O_9
REMARK    8  A    between atoms: C_10  and  C_11
REMARK    9  A    between atoms: C_19  and  C_20
REMARK   10  A    between atoms: C_20  and  N_21
REMARK   11  A    between atoms: C_22  and  C_24
REMARK                            x       y       z     vdW  Elec       q    Type
REMARK                         _______ _______ _______ _____ _____    ______ ____
ROOT
ATOM      1  C   UNL     1      47.186   4.447  14.985  0.00  0.00    +0.000 C 
ATOM      2  C   UNL     1      47.199   5.367  13.797  0.00  0.00    +0.000 A 
ATOM      3  C   UNL     1      46.241   5.147  12.797  0.00  0.00    +0.000 A 
ATOM      4  C   UNL     1      46.024   6.079  11.776  0.00  0.00    +0.000 A 
ATOM      5  C   UNL     1      46.872   7.184  11.680  0.00  0.00    +0.000 A 
ATOM      6  C   UNL     1      47.892   7.367  12.621  0.00  0.00    +0.000 A 
ATOM      7  C   UNL     1      48.070   6.469  13.691  0.00  0.00    +0.000 A 
ENDROOT
BRANCH   4   8
ATOM      8  C   UNL     1      44.811   5.915  10.879  0.00  0.00    +0.000 C 
BRANCH   8   9
ATOM      9  N   UNL     1      44.460   4.478  10.652  0.00  0.00    +0.000 NA
BRANCH   9  10
ATOM     10  C   UNL     1      43.271   4.114  11.464  0.00  0.00    +0.000 C 
BRANCH  10  11
ATOM     11  C   UNL     1      42.460   5.282  12.058  0.00  0.00    +0.000 C 
BRANCH  11  12
ATOM     12  O   UNL     1      42.586   5.365  13.474  0.00  0.00    +0.000 OA
ATOM     13  H   UNL     1      43.485   5.697  13.649  0.00  0.00    +0.000 HD
ENDBRANCH  11  12
ENDBRANCH  10  11
ENDBRANCH   9  10
BRANCH   9  14
ATOM     14  C   UNL     1      44.225   4.248   9.209  0.00  0.00    +0.000 C 
BRANCH  14  15
ATOM     15  C   UNL     1      45.274   3.379   8.537  0.00  0.00    +0.000 A 
ATOM     16  C   UNL     1      46.187   3.939   7.645  0.00  0.00    +0.000 A 
ATOM     17  C   UNL     1      47.112   3.107   7.021  0.00  0.00    +0.000 A 
ATOM     18  C   UNL     1      47.110   1.751   7.309  0.00  0.00    +0.000 A 
ATOM     19  C   UNL     1      46.171   1.272   8.215  0.00  0.00    +0.000 A 
ATOM     20  N   UNL     1      45.259   2.055   8.832  0.00  0.00    +0.000 NA
ENDBRANCH  14  15
ENDBRANCH   9  14
ENDBRANCH   8   9
ENDBRANCH   4   8
BRANCH   7  21
ATOM     21  C   UNL     1      49.128   6.766  14.732  0.00  0.00    +0.000 C 
BRANCH  21  22
ATOM     22  N   UNL     1      48.528   6.960  16.027  0.00  0.00    +0.000 N 
ATOM     23  C   UNL     1      49.211   6.707  17.190  0.00  0.00    +0.000 C 
ATOM     24  O   UNL     1      50.384   6.348  17.199  0.00  0.00    +0.000 OA
ATOM     25  H   UNL     1      47.514   6.999  16.048  0.00  0.00    +0.000 HD
BRANCH  23  26
ATOM     26  C   UNL     1      48.482   6.991  18.439  0.00  0.00    +0.000 A 
ATOM     27  C   UNL     1      48.247   5.972  19.353  0.00  0.00    +0.000 A 
ATOM     28  S   UNL     1      47.508   6.506  20.796  0.00  0.00    +0.000 S 
ATOM     29  C   UNL     1      47.433   8.110  20.231  0.00  0.00    +0.000 A 
ATOM     30  N   UNL     1      46.928   9.107  21.007  0.00  0.00    +0.000 NA
ATOM     31  C   UNL     1      46.908  10.267  20.440  0.00  0.00    +0.000 A 
ATOM     32  N   UNL     1      47.331  10.518  19.160  0.00  0.00    +0.000 N 
ATOM     33  C   UNL     1      47.838   9.542  18.340  0.00  0.00    +0.000 A 
ATOM     34  O   UNL     1      48.178   9.790  17.188  0.00  0.00    +0.000 OA
ATOM     35  C   UNL     1      47.931   8.226  18.946  0.00  0.00    +0.000 A 
ATOM     36  H   UNL     1      47.268  11.445  18.765  0.00  0.00    +0.000 HD
ENDBRANCH  23  26
ENDBRANCH  21  22
ENDBRANCH   7  21
TORSDOF 10
ENDMDL
MODEL 4
REMARK VINA RESULT:    -7.162      2.107      2.703
REMARK INTER + INTRA:         -12.624
REMARK INTER:                 -11.610
REMARK INTRA:                  -1.013
REMARK UNBOUND:                -1.484
REMARK  Name = 
REMARK  11 active torsions:
REMARK  status: ('A' for Active; 'I' for Inactive)
REMARK    1  A    between atoms: C_1  and  C_2
REMARK    2  A    between atoms: C_4  and  C_5
REMARK    3  A    between atoms: C_5  and  N_6
REMARK    4  A    between atoms: N_6  and  C_7
REMARK    5  A    between atoms: N_6  and  C_10
REMARK    6  A    between atoms: C_7  and  C_8
REMARK    7  A    between atoms: C_8  and  O_9
REMARK    8  A    between atoms: C_10  and  C_11
REMARK    9  A    between atoms: C_19  and  C_20
REMARK   10  A    between atoms: C_20  and  N_21
REMARK   11  A    between atoms: C_22  and  C_24
REMARK                            x       y       z     vdW  Elec       q    Type
REMARK                         _______ _______ _______ _____ _____    ______ ____
ROOT
ATOM      1  C   UNL     1      48.336   9.141  12.270  0.00  0.00    +0.000 C 
ATOM      2  C   UNL     1      47.557   7.884  12.537  0.00  0.00    +0.000 A 
ATOM      3  C   UNL     1      46.479   7.596  11.687  0.00  0.00    +0.000 A 
ATOM      4  C   UNL     1      45.844   6.349  11.709  0.00  0.00    +0.000 A 
ATOM      5  C   UNL     1      46.209   5.424  12.690  0.00  0.00    +0.000 A 
ATOM      6  C   UNL     1      47.223   5.735  13.603  0.00  0.00    +0.000 A 
ATOM      7  C   UNL     1      47.913   6.962  13.541  0.00  0.00    +0.000 A 
ENDROOT
BRANCH   4   8
ATOM      8  C   UNL     1      44.865   6.006  10.603  0.00  0.00    +0.000 C 
BRANCH   8   9
ATOM      9  N   UNL     1      44.543   4.545  10.559  0.00  0.00    +0.000 NA
BRANCH   9  10
ATOM     10  C   UNL     1      43.439   4.242  11.506  0.00  0.00    +0.000 C 
BRANCH  10  11
ATOM     11  C   UNL     1      43.476   2.860  12.187  0.00  0.00    +0.000 C 
BRANCH  11  12
ATOM     12  O   UNL     1      44.802   2.440  12.490  0.00  0.00    +0.000 OA
ATOM     13  H   UNL     1      44.724   1.793  13.214  0.00  0.00    +0.000 HD
ENDBRANCH  11  12
ENDBRANCH  10  11
ENDBRANCH   9  10
BRANCH   9  14
ATOM     14  C   UNL     1      44.194   4.156   9.174  0.00  0.00    +0.000 C 
BRANCH  14  15
ATOM     15  C   UNL     1      45.286   3.387   8.450  0.00  0.00    +0.000 A 
ATOM     16  C   UNL     1      45.457   2.023   8.679  0.00  0.00    +0.000 A 
ATOM     17  C   UNL     1      46.490   1.358   8.024  0.00  0.00    +0.000 A 
ATOM     18  C   UNL     1      47.312   2.062   7.158  0.00  0.00    +0.000 A 
ATOM     19  C   UNL     1      47.071   3.420   6.980  0.00  0.00    +0.000 A 
ATOM     20  N   UNL     1      46.079   4.092   7.604  0.00  0.00    +0.000 NA
ENDBRANCH  14  15
ENDBRANCH   9  14
ENDBRANCH   8   9
ENDBRANCH   4   8
BRANCH   7  21
ATOM     21  C   UNL     1      49.063   7.207  14.493  0.00  0.00    +0.000 C 
BRANCH  21  22
ATOM     22  N   UNL     1      48.700   6.837  15.837  0.00  0.00    +0.000 N 
ATOM     23  C   UNL     1      49.568   6.179  16.671  0.00  0.00    +0.000 C 
ATOM     24  O   UNL     1      50.720   5.910  16.341  0.00  0.00    +0.000 OA
ATOM     25  H   UNL     1      47.705   6.809  16.039  0.00  0.00    +0.000 HD
BRANCH  23  26
ATOM     26  C   UNL     1      49.072   5.903  18.030  0.00  0.00    +0.000 A 
ATOM     27  C   UNL     1      49.220   4.636  18.580  0.00  0.00    +0.000 A 
ATOM     28  S   UNL     1      48.707   4.533  20.204  0.00  0.00    +0.000 S 
ATOM     29  C   UNL     1      48.225   6.165  20.216  0.00  0.00    +0.000 A 
ATOM     30  N   UNL     1      47.714   6.741  21.338  0.00  0.00    +0.000 NA
ATOM     31  C   UNL     1      47.367   7.975  21.194  0.00  0.00    +0.000 A 
ATOM     32  N   UNL     1      47.464   8.683  20.023  0.00  0.00    +0.000 N 
ATOM     33  C   UNL     1      47.964   8.140  18.866  0.00  0.00    +0.000 A 
ATOM     34  O   UNL     1      48.009   8.788  17.825  0.00  0.00    +0.000 OA
ATOM     35  C   UNL     1      48.419   6.767  18.986  0.00  0.00    +0.000 A 
ATOM     36  H   UNL     1      47.153   9.642  19.968  0.00  0.00    +0.000 HD
ENDBRANCH  23  26
ENDBRANCH  21  22
ENDBRANCH   7  21
TORSDOF 10
ENDMDL
MODEL 5
REMARK VINA RESULT:    -6.595      3.734      4.772
REMARK INTER + INTRA:         -11.742
REMARK INTER:                 -10.708
REMARK INTRA:                  -1.034
REMARK UNBOUND:                -1.484
REMARK  Name = 
REMARK  11 active torsions:
REMARK  status: ('A' for Active; 'I' for Inactive)
REMARK    1  A    between atoms: C_1  and  C_2
REMARK    2  A    between atoms: C_4  and  C_5
REMARK    3  A    between atoms: C_5  and  N_6
REMARK    4  A    between atoms: N_6  and  C_7
REMARK    5  A    between atoms: N_6  and  C_10
REMARK    6  A    between atoms: C_7  and  C_8
REMARK    7  A    between atoms: C_8  and  O_9
REMARK    8  A    between atoms: C_10  and  C_11
REMARK    9  A    between atoms: C_19  and  C_20
REMARK   10  A    between atoms: C_20  and  N_21
REMARK   11  A    between atoms: C_22  and  C_24
REMARK                            x       y       z     vdW  Elec       q    Type
REMARK                         _______ _______ _______ _____ _____    ______ ____
ROOT
ATOM      1  C   UNL     1      44.995   9.996  12.099  0.00  0.00    +0.000 C 
ATOM      2  C   UNL     1      45.594   8.620  12.023  0.00  0.00    +0.000 A 
ATOM      3  C   UNL     1      44.758   7.571  11.612  0.00  0.00    +0.000 A 
ATOM      4  C   UNL     1      45.274   6.310  11.290  0.00  0.00    +0.000 A 
ATOM      5  C   UNL     1      46.630   6.059  11.512  0.00  0.00    +0.000 A 
ATOM      6  C   UNL     1      47.457   7.073  12.009  0.00  0.00    +0.000 A 
ATOM      7  C   UNL     1      46.957   8.364  12.268  0.00  0.00    +0.000 A 
ENDROOT
BRANCH   4   8
ATOM      8  C   UNL     1      44.369   5.300  10.611  0.00  0.00    +0.000 C 
BRANCH   8   9
ATOM      9  N   UNL     1      45.028   3.967  10.443  0.00  0.00    +0.000 NA
BRANCH   9  10
ATOM     10  C   UNL     1      44.796   3.133  11.650  0.00  0.00    +0.000 C 
BRANCH  10  11
ATOM     11  C   UNL     1      43.327   2.826  12.003  0.00  0.00    +0.000 C 
BRANCH  11  12
ATOM     12  O   UNL     1      42.979   1.470  11.745  0.00  0.00    +0.000 OA
ATOM     13  H   UNL     1      43.127   0.987  12.578  0.00  0.00    +0.000 HD
ENDBRANCH  11  12
ENDBRANCH  10  11
ENDBRANCH   9  10
BRANCH   9  14
ATOM     14  C   UNL     1      44.511   3.310   9.221  0.00  0.00    +0.000 C 
BRANCH  14  15
ATOM     15  C   UNL     1      45.587   2.698   8.341  0.00  0.00    +0.000 A 
ATOM     16  C   UNL     1      46.228   3.468   7.372  0.00  0.00    +0.000 A 
ATOM     17  C   UNL     1      47.184   2.865   6.559  0.00  0.00    +0.000 A 
ATOM     18  C   UNL     1      47.482   1.523   6.740  0.00  0.00    +0.000 A 
ATOM     19  C   UNL     1      46.802   0.827   7.733  0.00  0.00    +0.000 A 
ATOM     20  N   UNL     1      45.867   1.384   8.533  0.00  0.00    +0.000 NA
ENDBRANCH  14  15
ENDBRANCH   9  14
ENDBRANCH   8   9
ENDBRANCH   4   8
BRANCH   7  21
ATOM     21  C   UNL     1      47.916   9.447  12.714  0.00  0.00    +0.000 C 
BRANCH  21  22
ATOM     22  N   UNL     1      49.272   9.099  12.375  0.00  0.00    +0.000 N 
ATOM     23  C   UNL     1      50.093   9.956  11.688  0.00  0.00    +0.000 C 
ATOM     24  O   UNL     1      49.741  11.086  11.364  0.00  0.00    +0.000 OA
ATOM     25  H   UNL     1      49.497   8.109  12.395  0.00  0.00    +0.000 HD
BRANCH  23  26
ATOM     26  C   UNL     1      51.467   9.479  11.450  0.00  0.00    +0.000 A 
ATOM     27  C   UNL     1      52.066   9.679  10.212  0.00  0.00    +0.000 A 
ATOM     28  S   UNL     1      53.698   9.181  10.156  0.00  0.00    +0.000 S 
ATOM     29  C   UNL     1      53.647   8.637  11.768  0.00  0.00    +0.000 A 
ATOM     30  N   UNL     1      54.749   8.112  12.370  0.00  0.00    +0.000 NA
ATOM     31  C   UNL     1      54.557   7.717  13.583  0.00  0.00    +0.000 A 
ATOM     32  N   UNL     1      53.359   7.780  14.246  0.00  0.00    +0.000 N 
ATOM     33  C   UNL     1      52.220   8.292  13.675  0.00  0.00    +0.000 A 
ATOM     34  O   UNL     1      51.154   8.305  14.281  0.00  0.00    +0.000 OA
ATOM     35  C   UNL     1      52.392   8.800  12.326  0.00  0.00    +0.000 A 
ATOM     36  H   UNL     1      53.267   7.431  15.189  0.00  0.00    +0.000 HD
ENDBRANCH  23  26
ENDBRANCH  21  22
ENDBRANCH   7  21
TORSDOF 10
ENDMDL
MODEL 6
REMARK VINA RESULT:    -6.028      3.249      6.147
REMARK INTER + INTRA:         -10.860
REMARK INTER:                  -9.339
REMARK INTRA:                  -1.522
REMARK UNBOUND:                -1.484
REMARK  Name = 
REMARK  11 active torsions:
REMARK  status: ('A' for Active; 'I' for Inactive)
REMARK    1  A    between atoms: C_1  and  C_2
REMARK    2  A    between atoms: C_4  and  C_5
REMARK    3  A    between atoms: C_5  and  N_6
REMARK    4  A    between atoms: N_6  and  C_7
REMARK    5  A    between atoms: N_6  and  C_10
REMARK    6  A    between atoms: C_7  and  C_8
REMARK    7  A    between atoms: C_8  and  O_9
REMARK    8  A    between atoms: C_10  and  C_11
REMARK    9  A    between atoms: C_19  and  C_20
REMARK   10  A    between atoms: C_20  and  N_21
REMARK   11  A    between atoms: C_22  and  C_24
REMARK                            x       y       z     vdW  Elec       q    Type
REMARK                         _______ _______ _______ _____ _____    ______ ____
ROOT
ATOM      1  C   UNL     1      47.325   3.324  17.318  0.00  0.00    +0.000 C 
ATOM      2  C   UNL     1      47.618   4.301  16.215  0.00  0.00    +0.000 A 
ATOM      3  C   UNL     1      46.929   4.138  15.005  0.00  0.00    +0.000 A 
ATOM      4  C   UNL     1      46.958   5.121  14.009  0.00  0.00    +0.000 A 
ATOM      5  C   UNL     1      47.800   6.223  14.175  0.00  0.00    +0.000 A 
ATOM      6  C   UNL     1      48.564   6.352  15.341  0.00  0.00    +0.000 A 
ATOM      7  C   UNL     1      48.485   5.400  16.376  0.00  0.00    +0.000 A 
ENDROOT
BRANCH   4   8
ATOM      8  C   UNL     1      45.997   5.011  12.841  0.00  0.00    +0.000 C 
BRANCH   8   9
ATOM      9  N   UNL     1      46.030   6.220  11.960  0.00  0.00    +0.000 NA
BRANCH   9  10
ATOM     10  C   UNL     1      45.738   5.830  10.556  0.00  0.00    +0.000 C 
BRANCH  10  11
ATOM     11  C   UNL     1      44.687   4.721  10.355  0.00  0.00    +0.000 C 
BRANCH  11  12
ATOM     12  O   UNL     1      43.421   5.238   9.959  0.00  0.00    +0.000 OA
ATOM     13  H   UNL     1      43.031   5.643  10.755  0.00  0.00    +0.000 HD
ENDBRANCH  11  12
ENDBRANCH  10  11
ENDBRANCH   9  10
BRANCH   9  14
ATOM     14  C   UNL     1      45.061   7.223  12.458  0.00  0.00    +0.000 C 
BRANCH  14  15
ATOM     15  C   UNL     1      45.402   8.656  12.086  0.00  0.00    +0.000 A 
ATOM     16  C   UNL     1      44.470   9.451  11.420  0.00  0.00    +0.000 A 
ATOM     17  C   UNL     1      44.828  10.747  11.063  0.00  0.00    +0.000 A 
ATOM     18  C   UNL     1      46.091  11.218  11.387  0.00  0.00    +0.000 A 
ATOM     19  C   UNL     1      46.959  10.364  12.058  0.00  0.00    +0.000 A 
ATOM     20  N   UNL     1      46.641   9.100  12.413  0.00  0.00    +0.000 NA
ENDBRANCH  14  15
ENDBRANCH   9  14
ENDBRANCH   8   9
ENDBRANCH   4   8
BRANCH   7  21
ATOM     21  C   UNL     1      49.261   5.638  17.653  0.00  0.00    +0.000 C 
BRANCH  21  22
ATOM     22  N   UNL     1      48.886   6.893  18.252  0.00  0.00    +0.000 N 
ATOM     23  C   UNL     1      47.798   7.008  19.079  0.00  0.00    +0.000 C 
ATOM     24  O   UNL     1      47.109   6.044  19.398  0.00  0.00    +0.000 OA
ATOM     25  H   UNL     1      49.263   7.727  17.813  0.00  0.00    +0.000 HD
BRANCH  23  26
ATOM     26  C   UNL     1      47.562   8.345  19.651  0.00  0.00    +0.000 A 
ATOM     27  C   UNL     1      47.282   8.483  21.004  0.00  0.00    +0.000 A 
ATOM     28  S   UNL     1      47.166  10.107  21.516  0.00  0.00    +0.000 S 
ATOM     29  C   UNL     1      47.440  10.683  19.938  0.00  0.00    +0.000 A 
ATOM     30  N   UNL     1      47.499  12.017  19.676  0.00  0.00    +0.000 NA
ATOM     31  C   UNL     1      47.685  12.309  18.433  0.00  0.00    +0.000 A 
ATOM     32  N   UNL     1      47.799  11.389  17.422  0.00  0.00    +0.000 N 
ATOM     33  C   UNL     1      47.737  10.035  17.640  0.00  0.00    +0.000 A 
ATOM     34  O   UNL     1      47.809   9.237  16.712  0.00  0.00    +0.000 OA
ATOM     35  C   UNL     1      47.580   9.650  19.030  0.00  0.00    +0.000 A 
ATOM     36  H   UNL     1      47.921  11.682  16.464  0.00  0.00    +0.000 HD
ENDBRANCH  23  26
ENDBRANCH  21  22
ENDBRANCH   7  21
TORSDOF 10
ENDMDL
MODEL 7
REMARK VINA RESULT:    -5.943      3.947      6.274
REMARK INTER + INTRA:         -10.728
REMARK INTER:                  -9.187
REMARK INTRA:                  -1.541
REMARK UNBOUND:                -1.484
REMARK  Name = 
REMARK  11 active torsions:
REMARK  status: ('A' for Active; 'I' for Inactive)
REMARK    1  A    between atoms: C_1  and  C_2
REMARK    2  A    between atoms: C_4  and  C_5
REMARK    3  A    between atoms: C_5  and  N_6
REMARK    4  A    between atoms: N_6  and  C_7
REMARK    5  A    between atoms: N_6  and  C_10
REMARK    6  A    between atoms: C_7  and  C_8
REMARK    7  A    between atoms: C_8  and  O_9
REMARK    8  A    between atoms: C_10  and  C_11
REMARK    9  A    between atoms: C_19  and  C_20
REMARK   10  A    between atoms: C_20  and  N_21
REMARK   11  A    between atoms: C_22  and  C_24
REMARK                            x       y       z     vdW  Elec       q    Type
REMARK                         _______ _______ _______ _____ _____    ______ ____
ROOT
ATOM      1  C   UNL     1      43.645   5.392  11.523  0.00  0.00    +0.000 C 
ATOM      2  C   UNL     1      44.532   6.571  11.809  0.00  0.00    +0.000 A 
ATOM      3  C   UNL     1      44.098   7.830  11.369  0.00  0.00    +0.000 A 
ATOM      4  C   UNL     1      44.732   9.006  11.785  0.00  0.00    +0.000 A 
ATOM      5  C   UNL     1      45.899   8.911  12.545  0.00  0.00    +0.000 A 
ATOM      6  C   UNL     1      46.394   7.655  12.915  0.00  0.00    +0.000 A 
ATOM      7  C   UNL     1      45.721   6.470  12.558  0.00  0.00    +0.000 A 
ENDROOT
BRANCH   4   8
ATOM      8  C   UNL     1      44.070  10.339  11.489  0.00  0.00    +0.000 C 
BRANCH   8   9
ATOM      9  N   UNL     1      44.326  10.805  10.090  0.00  0.00    +0.000 NA
BRANCH   9  10
ATOM     10  C   UNL     1      43.051  10.839   9.328  0.00  0.00    +0.000 C 
BRANCH  10  11
ATOM     11  C   UNL     1      41.761  10.599  10.135  0.00  0.00    +0.000 C 
BRANCH  11  12
ATOM     12  O   UNL     1      40.691  11.438   9.711  0.00  0.00    +0.000 OA
ATOM     13  H   UNL     1      39.869  10.973   9.950  0.00  0.00    +0.000 HD
ENDBRANCH  11  12
ENDBRANCH  10  11
ENDBRANCH   9  10
BRANCH   9  14
ATOM     14  C   UNL     1      44.977  12.134  10.122  0.00  0.00    +0.000 C 
BRANCH  14  15
ATOM     15  C   UNL     1      46.441  12.120   9.717  0.00  0.00    +0.000 A 
ATOM     16  C   UNL     1      47.423  11.756  10.638  0.00  0.00    +0.000 A 
ATOM     17  C   UNL     1      48.757  11.790  10.243  0.00  0.00    +0.000 A 
ATOM     18  C   UNL     1      49.075  12.171   8.949  0.00  0.00    +0.000 A 
ATOM     19  C   UNL     1      48.036  12.513   8.090  0.00  0.00    +0.000 A 
ATOM     20  N   UNL     1      46.733  12.494   8.446  0.00  0.00    +0.000 NA
ENDBRANCH  14  15
ENDBRANCH   9  14
ENDBRANCH   8   9
ENDBRANCH   4   8
BRANCH   7  21
ATOM     21  C   UNL     1      46.248   5.145  13.064  0.00  0.00    +0.000 C 
BRANCH  21  22
ATOM     22  N   UNL     1      46.812   5.291  14.381  0.00  0.00    +0.000 N 
ATOM     23  C   UNL     1      47.355   4.230  15.062  0.00  0.00    +0.000 C 
ATOM     24  O   UNL     1      47.436   3.107  14.573  0.00  0.00    +0.000 OA
ATOM     25  H   UNL     1      46.531   6.117  14.899  0.00  0.00    +0.000 HD
BRANCH  23  26
ATOM     26  C   UNL     1      47.931   4.539  16.382  0.00  0.00    +0.000 A 
ATOM     27  C   UNL     1      47.511   3.837  17.505  0.00  0.00    +0.000 A 
ATOM     28  S   UNL     1      48.376   4.235  18.922  0.00  0.00    +0.000 S 
ATOM     29  C   UNL     1      49.310   5.393  18.095  0.00  0.00    +0.000 A 
ATOM     30  N   UNL     1      50.286   6.096  18.731  0.00  0.00    +0.000 NA
ATOM     31  C   UNL     1      50.894   6.958  17.988  0.00  0.00    +0.000 A 
ATOM     32  N   UNL     1      50.603   7.197  16.670  0.00  0.00    +0.000 N 
ATOM     33  C   UNL     1      49.621   6.519  15.991  0.00  0.00    +0.000 A 
ATOM     34  O   UNL     1      49.361   6.777  14.820  0.00  0.00    +0.000 OA
ATOM     35  C   UNL     1      48.940   5.499  16.767  0.00  0.00    +0.000 A 
ATOM     36  H   UNL     1      51.101   7.903  16.147  0.00  0.00    +0.000 HD
ENDBRANCH  23  26
ENDBRANCH  21  22
ENDBRANCH   7  21
TORSDOF 10
ENDMDL
MODEL 8
REMARK VINA RESULT:    -5.930      5.117      7.485
REMARK INTER + INTRA:         -10.707
REMARK INTER:                  -9.356
REMARK INTRA:                  -1.352
REMARK UNBOUND:                -1.484
REMARK  Name = 
REMARK  11 active torsions:
REMARK  status: ('A' for Active; 'I' for Inactive)
REMARK    1  A    between atoms: C_1  and  C_2
REMARK    2  A    between atoms: C_4  and  C_5
REMARK    3  A    between atoms: C_5  and  N_6
REMARK    4  A    between atoms: N_6  and  C_7
REMARK    5  A    between atoms: N_6  and  C_10
REMARK    6  A    between atoms: C_7  and  C_8
REMARK    7  A    between atoms: C_8  and  O_9
REMARK    8  A    between atoms: C_10  and  C_11
REMARK    9  A    between atoms: C_19  and  C_20
REMARK   10  A    between atoms: C_20  and  N_21
REMARK   11  A    between atoms: C_22  and  C_24
REMARK                            x       y       z     vdW  Elec       q    Type
REMARK                         _______ _______ _______ _____ _____    ______ ____
ROOT
ATOM      1  C   UNL     1      50.450  10.506  13.610  0.00  0.00    +0.000 C 
ATOM      2  C   UNL     1      49.924   9.281  12.918  0.00  0.00    +0.000 A 
ATOM      3  C   UNL     1      48.698   8.763  13.359  0.00  0.00    +0.000 A 
ATOM      4  C   UNL     1      48.019   7.776  12.636  0.00  0.00    +0.000 A 
ATOM      5  C   UNL     1      48.644   7.205  11.525  0.00  0.00    +0.000 A 
ATOM      6  C   UNL     1      49.910   7.650  11.127  0.00  0.00    +0.000 A 
ATOM      7  C   UNL     1      50.566   8.692  11.811  0.00  0.00    +0.000 A 
ENDROOT
BRANCH   4   8
ATOM      8  C   UNL     1      46.589   7.442  13.017  0.00  0.00    +0.000 C 
BRANCH   8   9
ATOM      9  N   UNL     1      46.185   6.073  12.566  0.00  0.00    +0.000 NA
BRANCH   9  10
ATOM     10  C   UNL     1      45.820   5.242  13.742  0.00  0.00    +0.000 C 
BRANCH  10  11
ATOM     11  C   UNL     1      46.944   4.382  14.352  0.00  0.00    +0.000 C 
BRANCH  11  12
ATOM     12  O   UNL     1      46.985   3.070  13.800  0.00  0.00    +0.000 OA
ATOM     13  H   UNL     1      46.077   2.721  13.857  0.00  0.00    +0.000 HD
ENDBRANCH  11  12
ENDBRANCH  10  11
ENDBRANCH   9  10
BRANCH   9  14
ATOM     14  C   UNL     1      45.064   6.179  11.605  0.00  0.00    +0.000 C 
BRANCH  14  15
ATOM     15  C   UNL     1      45.047   5.089  10.547  0.00  0.00    +0.000 A 
ATOM     16  C   UNL     1      45.739   5.260   9.348  0.00  0.00    +0.000 A 
ATOM     17  C   UNL     1      45.672   4.257   8.386  0.00  0.00    +0.000 A 
ATOM     18  C   UNL     1      44.932   3.114   8.646  0.00  0.00    +0.000 A 
ATOM     19  C   UNL     1      44.275   3.018   9.868  0.00  0.00    +0.000 A 
ATOM     20  N   UNL     1      44.319   3.977  10.818  0.00  0.00    +0.000 NA
ENDBRANCH  14  15
ENDBRANCH   9  14
ENDBRANCH   8   9
ENDBRANCH   4   8
BRANCH   7  21
ATOM     21  C   UNL     1      51.891   9.197  11.281  0.00  0.00    +0.000 C 
BRANCH  21  22
ATOM     22  N   UNL     1      52.159   8.652   9.975  0.00  0.00    +0.000 N 
ATOM     23  C   UNL     1      53.312   8.938   9.290  0.00  0.00    +0.000 C 
ATOM     24  O   UNL     1      54.205   9.633   9.765  0.00  0.00    +0.000 OA
ATOM     25  H   UNL     1      51.354   8.303   9.464  0.00  0.00    +0.000 HD
BRANCH  23  26
ATOM     26  C   UNL     1      53.466   8.275   7.983  0.00  0.00    +0.000 A 
ATOM     27  C   UNL     1      53.510   9.034   6.820  0.00  0.00    +0.000 A 
ATOM     28  S   UNL     1      53.822   8.114   5.416  0.00  0.00    +0.000 S 
ATOM     29  C   UNL     1      53.862   6.664   6.306  0.00  0.00    +0.000 A 
ATOM     30  N   UNL     1      54.121   5.473   5.701  0.00  0.00    +0.000 NA
ATOM     31  C   UNL     1      54.093   4.454   6.492  0.00  0.00    +0.000 A 
ATOM     32  N   UNL     1      53.810   4.514   7.833  0.00  0.00    +0.000 N 
ATOM     33  C   UNL     1      53.534   5.691   8.483  0.00  0.00    +0.000 A 
ATOM     34  O   UNL     1      53.253   5.710   9.676  0.00  0.00    +0.000 OA
ATOM     35  C   UNL     1      53.604   6.877   7.648  0.00  0.00    +0.000 A 
ATOM     36  H   UNL     1      53.780   3.676   8.396  0.00  0.00    +0.000 HD
ENDBRANCH  23  26
ENDBRANCH  21  22
ENDBRANCH   7  21
TORSDOF 10
ENDMDL
MODEL 9
REMARK VINA RESULT:    -5.424      4.209      6.517
REMARK INTER + INTRA:          -9.921
REMARK INTER:                  -8.468
REMARK INTRA:                  -1.453
REMARK UNBOUND:                -1.484
REMARK  Name = 
REMARK  11 active torsions:
REMARK  status: ('A' for Active; 'I' for Inactive)
REMARK    1  A    between atoms: C_1  and  C_2
REMARK    2  A    between atoms: C_4  and  C_5
REMARK    3  A    between atoms: C_5  and  N_6
REMARK    4  A    between atoms: N_6  and  C_7
REMARK    5  A    between atoms: N_6  and  C_10
REMARK    6  A    between atoms: C_7  and  C_8
REMARK    7  A    between atoms: C_8  and  O_9
REMARK    8  A    between atoms: C_10  and  C_11
REMARK    9  A    between atoms: C_19  and  C_20
REMARK   10  A    between atoms: C_20  and  N_21
REMARK   11  A    between atoms: C_22  and  C_24
REMARK                            x       y       z     vdW  Elec       q    Type
REMARK                         _______ _______ _______ _____ _____    ______ ____
ROOT
ATOM      1  C   UNL     1      45.201   6.227  12.766  0.00  0.00    +0.000 C 
ATOM      2  C   UNL     1      46.606   6.757  12.805  0.00  0.00    +0.000 A 
ATOM      3  C   UNL     1      46.907   7.857  11.989  0.00  0.00    +0.000 A 
ATOM      4  C   UNL     1      48.108   8.560  12.125  0.00  0.00    +0.000 A 
ATOM      5  C   UNL     1      49.080   8.072  13.002  0.00  0.00    +0.000 A 
ATOM      6  C   UNL     1      48.827   6.921  13.757  0.00  0.00    +0.000 A 
ATOM      7  C   UNL     1      47.592   6.250  13.675  0.00  0.00    +0.000 A 
ENDROOT
BRANCH   4   8
ATOM      8  C   UNL     1      48.269   9.884  11.402  0.00  0.00    +0.000 C 
BRANCH   8   9
ATOM      9  N   UNL     1      47.780  11.041  12.216  0.00  0.00    +0.000 NA
BRANCH   9  10
ATOM     10  C   UNL     1      48.931  11.736  12.848  0.00  0.00    +0.000 C 
BRANCH  10  11
ATOM     11  C   UNL     1      49.071  11.584  14.376  0.00  0.00    +0.000 C 
BRANCH  11  12
ATOM     12  O   UNL     1      48.298  12.544  15.089  0.00  0.00    +0.000 OA
ATOM     13  H   UNL     1      47.421  12.558  14.665  0.00  0.00    +0.000 HD
ENDBRANCH  11  12
ENDBRANCH  10  11
ENDBRANCH   9  10
BRANCH   9  14
ATOM     14  C   UNL     1      46.999  11.957  11.354  0.00  0.00    +0.000 C 
BRANCH  14  15
ATOM     15  C   UNL     1      45.631  11.426  10.961  0.00  0.00    +0.000 A 
ATOM     16  C   UNL     1      45.192  11.519   9.641  0.00  0.00    +0.000 A 
ATOM     17  C   UNL     1      43.919  11.055   9.323  0.00  0.00    +0.000 A 
ATOM     18  C   UNL     1      43.127  10.505  10.319  0.00  0.00    +0.000 A 
ATOM     19  C   UNL     1      43.641  10.444  11.610  0.00  0.00    +0.000 A 
ATOM     20  N   UNL     1      44.870  10.890  11.948  0.00  0.00    +0.000 NA
ENDBRANCH  14  15
ENDBRANCH   9  14
ENDBRANCH   8   9
ENDBRANCH   4   8
BRANCH   7  21
ATOM     21  C   UNL     1      47.337   5.066  14.582  0.00  0.00    +0.000 C 
BRANCH  21  22
ATOM     22  N   UNL     1      47.747   5.361  15.931  0.00  0.00    +0.000 N 
ATOM     23  C   UNL     1      47.345   4.597  16.998  0.00  0.00    +0.000 C 
ATOM     24  O   UNL     1      46.654   3.592  16.863  0.00  0.00    +0.000 OA
ATOM     25  H   UNL     1      48.087   6.302  16.099  0.00  0.00    +0.000 HD
BRANCH  23  26
ATOM     26  C   UNL     1      47.878   4.995  18.312  0.00  0.00    +0.000 A 
ATOM     27  C   UNL     1      47.053   5.630  19.232  0.00  0.00    +0.000 A 
ATOM     28  S   UNL     1      47.798   5.900  20.744  0.00  0.00    +0.000 S 
ATOM     29  C   UNL     1      49.263   5.222  20.207  0.00  0.00    +0.000 A 
ATOM     30  N   UNL     1      50.335   5.113  21.039  0.00  0.00    +0.000 NA
ATOM     31  C   UNL     1      51.387   4.604  20.490  0.00  0.00    +0.000 A 
ATOM     32  N   UNL     1      51.472   4.211  19.179  0.00  0.00    +0.000 N 
ATOM     33  C   UNL     1      50.420   4.311  18.303  0.00  0.00    +0.000 A 
ATOM     34  O   UNL     1      50.535   3.982  17.128  0.00  0.00    +0.000 OA
ATOM     35  C   UNL     1      49.194   4.830  18.883  0.00  0.00    +0.000 A 
ATOM     36  H   UNL     1      52.332   3.841  18.802  0.00  0.00    +0.000 HD
ENDBRANCH  23  26
ENDBRANCH  21  22
ENDBRANCH   7  21
TORSDOF 10
ENDMDL
