MODEL 1
REMARK VINA RESULT:    -7.595      0.000      0.000
REMARK INTER + INTRA:         -10.811
REMARK INTER:                  -9.815
REMARK INTRA:                  -0.995
REMARK UNBOUND:                -0.995
REMARK  Name = 
REMARK  6 active torsions:
REMARK  status: ('A' for Active; 'I' for Inactive)
REMARK    1  A    between atoms: C_1  and  O_2
REMARK    2  A    between atoms: O_2  and  C_3
REMARK    3  A    between atoms: C_7  and  N_8
REMARK    4  A    between atoms: N_8  and  C_9
REMARK    5  A    between atoms: C_9  and  C_10
REMARK    6  A    between atoms: C_14  and  C_15
REMARK                            x       y       z     vdW  Elec       q    Type
REMARK                         _______ _______ _______ _____ _____    ______ ____
ROOT
ATOM      1  C   UNL     1      43.763   5.042  11.524  0.00  0.00    +0.000 C 
ATOM      2  C   UNL     1      42.475   5.383  12.270  0.00  0.00    +0.000 C 
ATOM      3  C   UNL     1      42.963   6.289  11.195  0.00  0.00    +0.000 C 
ENDROOT
BRANCH   1   4
ATOM      4  C   UNL     1      45.097   5.268  12.233  0.00  0.00    +0.000 A 
ATOM      5  C   UNL     1      45.633   4.315  13.117  0.00  0.00    +0.000 A 
ATOM      6  C   UNL     1      46.887   4.482  13.697  0.00  0.00    +0.000 A 
ATOM      7  C   UNL     1      47.646   5.612  13.400  0.00  0.00    +0.000 A 
ATOM      8  C   UNL     1      47.163   6.601  12.528  0.00  0.00    +0.000 A 
ATOM      9  C   UNL     1      45.876   6.413  11.983  0.00  0.00    +0.000 A 
BRANCH   8  10
ATOM     10  C   UNL     1      47.985   7.769  12.146  0.00  0.00    +0.000 A 
ATOM     11  C   UNL     1      49.336   7.652  11.790  0.00  0.00    +0.000 A 
ATOM     12  C   UNL     1      50.093   8.783  11.485  0.00  0.00    +0.000 A 
ATOM     13  C   UNL     1      49.473  10.018  11.527  0.00  0.00    +0.000 A 
ATOM     14  N   UNL     1      48.177  10.190  11.852  0.00  0.00    +0.000 NA
ATOM     15  C   UNL     1      47.474   9.070  12.156  0.00  0.00    +0.000 A 
ENDBRANCH   8  10
ENDBRANCH   1   4
BRANCH   1  16
ATOM     16  N   UNL     1      43.675   3.795  10.738  0.00  0.00    +0.000 N 
ATOM     17  H   UNL     1      43.380   2.976  11.267  0.00  0.00    +0.000 HD
BRANCH  16  22
ATOM     18  C   UNL     1      45.879   1.919   8.381  0.00  0.00    +0.000 A 
ATOM     19  C   UNL     1      46.269   2.989   7.585  0.00  0.00    +0.000 A 
ATOM     20  N   UNL     1      45.839   4.256   7.764  0.00  0.00    +0.000 NA
ATOM     21  C   UNL     1      44.979   4.452   8.797  0.00  0.00    +0.000 A 
ATOM     22  C   UNL     1      44.511   3.455   9.660  0.00  0.00    +0.000 A 
ATOM     23  C   UNL     1      45.027   2.178   9.455  0.00  0.00    +0.000 A 
BRANCH  18  25
ATOM     24  C   UNL     1      47.398   0.712   7.065  0.00  0.00    +0.000 C 
ATOM     25  O   UNL     1      46.394   0.691   8.079  0.00  0.00    +0.000 OA
ENDBRANCH  18  25
ENDBRANCH  16  22
ENDBRANCH   1  16
TORSDOF 5
ENDMDL
MODEL 2
REMARK VINA RESULT:    -7.503      2.045      3.511
REMARK INTER + INTRA:         -10.692
REMARK INTER:                  -9.999
REMARK INTRA:                  -0.693
REMARK UNBOUND:                -0.995
REMARK  Name = 
REMARK  6 active torsions:
REMARK  status: ('A' for Active; 'I' for Inactive)
REMARK    1  A    between atoms: C_1  and  O_2
REMARK    2  A    between atoms: O_2  and  C_3
REMARK    3  A    between atoms: C_7  and  N_8
REMARK    4  A    between atoms: N_8  and  C_9
REMARK    5  A    between atoms: C_9  and  C_10
REMARK    6  A    between atoms: C_14  and  C_15
REMARK                            x       y       z     vdW  Elec       q    Type
REMARK                         _______ _______ _______ _____ _____    ______ ____
ROOT
ATOM      1  C   UNL     1      43.884   5.027  11.624  0.00  0.00    +0.000 C 
ATOM      2  C   UNL     1      42.698   5.275  12.554  0.00  0.00    +0.000 C 
ATOM      3  C   UNL     1      42.904   6.159  11.374  0.00  0.00    +0.000 C 
ENDROOT
BRANCH   1   4
ATOM      4  C   UNL     1      45.277   5.438  12.095  0.00  0.00    +0.000 A 
ATOM      5  C   UNL     1      46.036   6.396  11.401  0.00  0.00    +0.000 A 
ATOM      6  C   UNL     1      47.269   6.835  11.876  0.00  0.00    +0.000 A 
ATOM      7  C   UNL     1      47.775   6.326  13.070  0.00  0.00    +0.000 A 
ATOM      8  C   UNL     1      47.065   5.364  13.807  0.00  0.00    +0.000 A 
ATOM      9  C   UNL     1      45.834   4.922  13.279  0.00  0.00    +0.000 A 
BRANCH   8  10
ATOM     10  C   UNL     1      47.553   4.869  15.111  0.00  0.00    +0.000 A 
ATOM     11  C   UNL     1      47.362   3.545  15.532  0.00  0.00    +0.000 A 
ATOM     12  C   UNL     1      47.792   3.129  16.792  0.00  0.00    +0.000 A 
ATOM     13  C   UNL     1      48.425   4.049  17.607  0.00  0.00    +0.000 A 
ATOM     14  N   UNL     1      48.645   5.330  17.252  0.00  0.00    +0.000 NA
ATOM     15  C   UNL     1      48.202   5.704  16.025  0.00  0.00    +0.000 A 
ENDBRANCH   8  10
ENDBRANCH   1   4
BRANCH   1  16
ATOM     16  N   UNL     1      43.818   3.731  10.919  0.00  0.00    +0.000 N 
ATOM     17  H   UNL     1      43.667   2.923  11.522  0.00  0.00    +0.000 HD
BRANCH  16  22
ATOM     18  C   UNL     1      45.863   1.900   8.389  0.00  0.00    +0.000 A 
ATOM     19  C   UNL     1      46.081   2.955   7.513  0.00  0.00    +0.000 A 
ATOM     20  N   UNL     1      45.587   4.198   7.694  0.00  0.00    +0.000 NA
ATOM     21  C   UNL     1      44.840   4.383   8.814  0.00  0.00    +0.000 A 
ATOM     22  C   UNL     1      44.546   3.398   9.763  0.00  0.00    +0.000 A 
ATOM     23  C   UNL     1      45.124   2.150   9.546  0.00  0.00    +0.000 A 
BRANCH  18  25
ATOM     24  C   UNL     1      47.334   0.745   6.976  0.00  0.00    +0.000 C 
ATOM     25  O   UNL     1      46.425   0.695   8.074  0.00  0.00    +0.000 OA
ENDBRANCH  18  25
ENDBRANCH  16  22
ENDBRANCH   1  16
TORSDOF 5
ENDMDL
MODEL 3
REMARK VINA RESULT:    -7.079      2.810      6.804
REMARK INTER + INTRA:         -10.143
REMARK INTER:                  -9.138
REMARK INTRA:                  -1.006
REMARK UNBOUND:                -0.995
REMARK  Name = 
REMARK  6 active torsions:
REMARK  status: ('A' for Active; 'I' for Inactive)
REMARK    1  A    between atoms: C_1  and  O_2
REMARK    2  A    between atoms: O_2  and  C_3
REMARK    3  A    between atoms: C_7  and  N_8
REMARK    4  A    between atoms: N_8  and  C_9
REMARK    5  A    between atoms: C_9  and  C_10
REMARK    6  A    between atoms: C_14  and  C_15
REMARK                            x       y       z     vdW  Elec       q    Type
REMARK                         _______ _______ _______ _____ _____    ______ ____
ROOT
ATOM      1  C   UNL     1      46.291   7.395  12.368  0.00  0.00    +0.000 C 
ATOM      2  C   UNL     1      46.394   8.813  11.810  0.00  0.00    +0.000 C 
ATOM      3  C   UNL     1      45.626   8.570  13.062  0.00  0.00    +0.000 C 
ENDROOT
BRANCH   1   4
ATOM      4  C   UNL     1      45.352   6.408  11.676  0.00  0.00    +0.000 A 
ATOM      5  C   UNL     1      43.957   6.486  11.830  0.00  0.00    +0.000 A 
ATOM      6  C   UNL     1      43.098   5.641  11.134  0.00  0.00    +0.000 A 
ATOM      7  C   UNL     1      43.616   4.693  10.254  0.00  0.00    +0.000 A 
ATOM      8  C   UNL     1      45.001   4.564  10.060  0.00  0.00    +0.000 A 
ATOM      9  C   UNL     1      45.842   5.417  10.805  0.00  0.00    +0.000 A 
BRANCH   8  10
ATOM     10  C   UNL     1      45.563   3.615   9.077  0.00  0.00    +0.000 A 
ATOM     11  C   UNL     1      46.147   4.036   7.874  0.00  0.00    +0.000 A 
ATOM     12  C   UNL     1      46.621   3.108   6.948  0.00  0.00    +0.000 A 
ATOM     13  C   UNL     1      46.514   1.763   7.253  0.00  0.00    +0.000 A 
ATOM     14  N   UNL     1      45.971   1.300   8.396  0.00  0.00    +0.000 NA
ATOM     15  C   UNL     1      45.509   2.231   9.268  0.00  0.00    +0.000 A 
ENDBRANCH   8  10
ENDBRANCH   1   4
BRANCH   1  16
ATOM     16  N   UNL     1      47.588   6.833  12.793  0.00  0.00    +0.000 N 
ATOM     17  H   UNL     1      48.139   6.416  12.045  0.00  0.00    +0.000 HD
BRANCH  16  22
ATOM     18  C   UNL     1      47.463   4.561  15.752  0.00  0.00    +0.000 A 
ATOM     19  C   UNL     1      48.342   5.258  16.571  0.00  0.00    +0.000 A 
ATOM     20  N   UNL     1      48.974   6.393  16.203  0.00  0.00    +0.000 NA
ATOM     21  C   UNL     1      48.702   6.846  14.952  0.00  0.00    +0.000 A 
ATOM     22  C   UNL     1      47.842   6.228  14.037  0.00  0.00    +0.000 A 
ATOM     23  C   UNL     1      47.184   5.088  14.491  0.00  0.00    +0.000 A 
BRANCH  18  25
ATOM     24  C   UNL     1      47.405   3.041  17.536  0.00  0.00    +0.000 C 
ATOM     25  O   UNL     1      46.899   3.425  16.259  0.00  0.00    +0.000 OA
ENDBRANCH  18  25
ENDBRANCH  16  22
ENDBRANCH   1  16
TORSDOF 5
ENDMDL
MODEL 4
REMARK VINA RESULT:    -6.796      3.369      6.997
REMARK INTER + INTRA:          -9.777
REMARK INTER:                  -8.744
REMARK INTRA:                  -1.033
REMARK UNBOUND:                -0.995
REMARK  Name = 
REMARK  6 active torsions:
REMARK  status: ('A' for Active; 'I' for Inactive)
REMARK    1  A    between atoms: C_1  and  O_2
REMARK    2  A    between atoms: O_2  and  C_3
REMARK    3  A    between atoms: C_7  and  N_8
REMARK    4  A    between atoms: N_8  and  C_9
REMARK    5  A    between atoms: C_9  and  C_10
REMARK    6  A    between atoms: C_14  and  C_15
REMARK                            x       y       z     vdW  Elec       q    Type
REMARK                         _______ _______ _______ _____ _____    ______ ____
ROOT
ATOM      1  C   UNL     1      45.825   7.484  12.248  0.00  0.00    +0.000 C 
ATOM      2  C   UNL     1      46.886   7.163  13.297  0.00  0.00    +0.000 C 
ATOM      3  C   UNL     1      47.306   7.536  11.919  0.00  0.00    +0.000 C 
ENDROOT
BRANCH   1   4
ATOM      4  C   UNL     1      45.041   6.329  11.628  0.00  0.00    +0.000 A 
ATOM      5  C   UNL     1      43.679   6.127  11.913  0.00  0.00    +0.000 A 
ATOM      6  C   UNL     1      42.942   5.127  11.283  0.00  0.00    +0.000 A 
ATOM      7  C   UNL     1      43.553   4.303  10.340  0.00  0.00    +0.000 A 
ATOM      8  C   UNL     1      44.911   4.453  10.016  0.00  0.00    +0.000 A 
ATOM      9  C   UNL     1      45.633   5.457  10.696  0.00  0.00    +0.000 A 
BRANCH   8  10
ATOM     10  C   UNL     1      45.554   3.636   8.966  0.00  0.00    +0.000 A 
ATOM     11  C   UNL     1      46.092   4.199   7.800  0.00  0.00    +0.000 A 
ATOM     12  C   UNL     1      46.646   3.390   6.808  0.00  0.00    +0.000 A 
ATOM     13  C   UNL     1      46.666   2.022   7.012  0.00  0.00    +0.000 A 
ATOM     14  N   UNL     1      46.172   1.427   8.115  0.00  0.00    +0.000 NA
ATOM     15  C   UNL     1      45.630   2.243   9.053  0.00  0.00    +0.000 A 
ENDBRANCH   8  10
ENDBRANCH   1   4
BRANCH   1  16
ATOM     16  N   UNL     1      45.026   8.684  12.567  0.00  0.00    +0.000 N 
ATOM     17  H   UNL     1      44.245   8.521  13.201  0.00  0.00    +0.000 HD
BRANCH  16  22
ATOM     18  C   UNL     1      43.747  10.759   9.740  0.00  0.00    +0.000 A 
ATOM     19  C   UNL     1      44.522  11.890   9.962  0.00  0.00    +0.000 A 
ATOM     20  N   UNL     1      45.403  12.012  10.978  0.00  0.00    +0.000 NA
ATOM     21  C   UNL     1      45.508  10.940  11.805  0.00  0.00    +0.000 A 
ATOM     22  C   UNL     1      44.777   9.752  11.687  0.00  0.00    +0.000 A 
ATOM     23  C   UNL     1      43.920   9.668  10.593  0.00  0.00    +0.000 A 
BRANCH  18  25
ATOM     24  C   UNL     1      43.543  10.957   7.413  0.00  0.00    +0.000 C 
ATOM     25  O   UNL     1      42.896  10.780   8.672  0.00  0.00    +0.000 OA
ENDBRANCH  18  25
ENDBRANCH  16  22
ENDBRANCH   1  16
TORSDOF 5
ENDMDL
MODEL 5
REMARK VINA RESULT:    -6.762      1.416      2.034
REMARK INTER + INTRA:          -9.733
REMARK INTER:                  -8.976
REMARK INTRA:                  -0.758
REMARK UNBOUND:                -0.995
REMARK  Name = 
REMARK  6 active torsions:
REMARK  status: ('A' for Active; 'I' for Inactive)
REMARK    1  A    between atoms: C_1  and  O_2
REMARK    2  A    between atoms: O_2  and  C_3
REMARK    3  A    between atoms: C_7  and  N_8
REMARK    4  A    between atoms: N_8  and  C_9
REMARK    5  A    between atoms: C_9  and  C_10
REMARK    6  A    between atoms: C_14  and  C_15
REMARK                            x       y       z     vdW  Elec       q    Type
REMARK                         _______ _______ _______ _____ _____    ______ ____
ROOT
ATOM      1  C   UNL     1      44.030   4.992  11.962  0.00  0.00    +0.000 C 
ATOM      2  C   UNL     1      42.794   4.897  12.855  0.00  0.00    +0.000 C 
ATOM      3  C   UNL     1      42.747   5.728  11.621  0.00  0.00    +0.000 C 
ENDROOT
BRANCH   1   4
ATOM      4  C   UNL     1      45.198   5.861  12.426  0.00  0.00    +0.000 A 
ATOM      5  C   UNL     1      46.360   5.297  12.980  0.00  0.00    +0.000 A 
ATOM      6  C   UNL     1      47.459   6.080  13.324  0.00  0.00    +0.000 A 
ATOM      7  C   UNL     1      47.423   7.457  13.115  0.00  0.00    +0.000 A 
ATOM      8  C   UNL     1      46.289   8.079  12.569  0.00  0.00    +0.000 A 
ATOM      9  C   UNL     1      45.184   7.258  12.261  0.00  0.00    +0.000 A 
BRANCH   8  10
ATOM     10  C   UNL     1      46.264   9.527  12.273  0.00  0.00    +0.000 A 
ATOM     11  C   UNL     1      45.089  10.198  11.906  0.00  0.00    +0.000 A 
ATOM     12  C   UNL     1      45.114  11.555  11.585  0.00  0.00    +0.000 A 
ATOM     13  C   UNL     1      46.322  12.224  11.655  0.00  0.00    +0.000 A 
ATOM     14  N   UNL     1      47.480  11.634  12.011  0.00  0.00    +0.000 NA
ATOM     15  C   UNL     1      47.421  10.310  12.304  0.00  0.00    +0.000 A 
ENDBRANCH   8  10
ENDBRANCH   1   4
BRANCH   1  16
ATOM     16  N   UNL     1      44.412   3.706  11.346  0.00  0.00    +0.000 N 
ATOM     17  H   UNL     1      44.768   3.008  11.998  0.00  0.00    +0.000 HD
BRANCH  16  22
ATOM     18  C   UNL     1      45.959   2.263   8.270  0.00  0.00    +0.000 A 
ATOM     19  C   UNL     1      46.151   3.449   7.574  0.00  0.00    +0.000 A 
ATOM     20  N   UNL     1      45.788   4.663   8.040  0.00  0.00    +0.000 NA
ATOM     21  C   UNL     1      45.208   4.679   9.267  0.00  0.00    +0.000 A 
ATOM     22  C   UNL     1      44.957   3.553  10.059  0.00  0.00    +0.000 A 
ATOM     23  C   UNL     1      45.396   2.335   9.545  0.00  0.00    +0.000 A 
BRANCH  18  25
ATOM     24  C   UNL     1      47.575   1.243   6.913  0.00  0.00    +0.000 C 
ATOM     25  O   UNL     1      46.374   1.108   7.671  0.00  0.00    +0.000 OA
ENDBRANCH  18  25
ENDBRANCH  16  22
ENDBRANCH   1  16
TORSDOF 5
ENDMDL
MODEL 6
REMARK VINA RESULT:    -6.138      3.770      7.496
REMARK INTER + INTRA:          -8.927
REMARK INTER:                  -7.990
REMARK INTRA:                  -0.937
REMARK UNBOUND:                -0.995
REMARK  Name = 
REMARK  6 active torsions:
REMARK  status: ('A' for Active; 'I' for Inactive)
REMARK    1  A    between atoms: C_1  and  O_2
REMARK    2  A    between atoms: O_2  and  C_3
REMARK    3  A    between atoms: C_7  and  N_8
REMARK    4  A    between atoms: N_8  and  C_9
REMARK    5  A    between atoms: C_9  and  C_10
REMARK    6  A    between atoms: C_14  and  C_15
REMARK                            x       y       z     vdW  Elec       q    Type
REMARK                         _______ _______ _______ _____ _____    ______ ____
ROOT
ATOM      1  C   UNL     1      48.135   7.444  13.667  0.00  0.00    +0.000 C 
ATOM      2  C   UNL     1      49.258   8.330  13.132  0.00  0.00    +0.000 C 
ATOM      3  C   UNL     1      48.457   8.785  14.301  0.00  0.00    +0.000 C 
ENDROOT
BRANCH   1   4
ATOM      4  C   UNL     1      46.827   7.371  12.882  0.00  0.00    +0.000 A 
ATOM      5  C   UNL     1      45.928   8.451  12.847  0.00  0.00    +0.000 A 
ATOM      6  C   UNL     1      44.778   8.418  12.064  0.00  0.00    +0.000 A 
ATOM      7  C   UNL     1      44.499   7.297  11.285  0.00  0.00    +0.000 A 
ATOM      8  C   UNL     1      45.357   6.185  11.280  0.00  0.00    +0.000 A 
ATOM      9  C   UNL     1      46.497   6.243  12.109  0.00  0.00    +0.000 A 
BRANCH   8  10
ATOM     10  C   UNL     1      45.114   5.020  10.405  0.00  0.00    +0.000 A 
ATOM     11  C   UNL     1      45.605   4.950   9.093  0.00  0.00    +0.000 A 
ATOM     12  C   UNL     1      45.312   3.856   8.280  0.00  0.00    +0.000 A 
ATOM     13  C   UNL     1      44.541   2.836   8.804  0.00  0.00    +0.000 A 
ATOM     14  N   UNL     1      44.049   2.844  10.059  0.00  0.00    +0.000 NA
ATOM     15  C   UNL     1      44.343   3.930  10.818  0.00  0.00    +0.000 A 
ENDBRANCH   8  10
ENDBRANCH   1   4
BRANCH   1  16
ATOM     16  N   UNL     1      48.611   6.157  14.214  0.00  0.00    +0.000 N 
ATOM     17  H   UNL     1      48.867   5.464  13.512  0.00  0.00    +0.000 HD
BRANCH  16  22
ATOM     18  C   UNL     1      48.132   5.263  17.806  0.00  0.00    +0.000 A 
ATOM     19  C   UNL     1      47.277   4.184  17.626  0.00  0.00    +0.000 A 
ATOM     20  N   UNL     1      46.843   3.760  16.420  0.00  0.00    +0.000 NA
ATOM     21  C   UNL     1      47.298   4.456  15.347  0.00  0.00    +0.000 A 
ATOM     22  C   UNL     1      48.154   5.562  15.402  0.00  0.00    +0.000 A 
ATOM     23  C   UNL     1      48.605   5.921  16.670  0.00  0.00    +0.000 A 
BRANCH  18  25
ATOM     24  C   UNL     1      47.422   6.124  19.867  0.00  0.00    +0.000 C 
ATOM     25  O   UNL     1      48.484   5.579  19.087  0.00  0.00    +0.000 OA
ENDBRANCH  18  25
ENDBRANCH  16  22
ENDBRANCH   1  16
TORSDOF 5
ENDMDL
MODEL 7
REMARK VINA RESULT:    -6.041      3.102      7.203
REMARK INTER + INTRA:          -8.801
REMARK INTER:                  -7.944
REMARK INTRA:                  -0.857
REMARK UNBOUND:                -0.995
REMARK  Name = 
REMARK  6 active torsions:
REMARK  status: ('A' for Active; 'I' for Inactive)
REMARK    1  A    between atoms: C_1  and  O_2
REMARK    2  A    between atoms: O_2  and  C_3
REMARK    3  A    between atoms: C_7  and  N_8
REMARK    4  A    between atoms: N_8  and  C_9
REMARK    5  A    between atoms: C_9  and  C_10
REMARK    6  A    between atoms: C_14  and  C_15
REMARK                            x       y       z     vdW  Elec       q    Type
REMARK                         _______ _______ _______ _____ _____    ______ ____
ROOT
ATOM      1  C   UNL     1      46.354   6.849  12.677  0.00  0.00    +0.000 C 
ATOM      2  C   UNL     1      47.200   6.148  13.737  0.00  0.00    +0.000 C 
ATOM      3  C   UNL     1      47.835   6.590  12.465  0.00  0.00    +0.000 C 
ENDROOT
BRANCH   1   4
ATOM      4  C   UNL     1      45.400   6.007  11.833  0.00  0.00    +0.000 A 
ATOM      5  C   UNL     1      44.006   6.168  11.915  0.00  0.00    +0.000 A 
ATOM      6  C   UNL     1      43.139   5.462  11.086  0.00  0.00    +0.000 A 
ATOM      7  C   UNL     1      43.649   4.575  10.141  0.00  0.00    +0.000 A 
ATOM      8  C   UNL     1      45.032   4.368  10.013  0.00  0.00    +0.000 A 
ATOM      9  C   UNL     1      45.878   5.078  10.891  0.00  0.00    +0.000 A 
BRANCH   8  10
ATOM     10  C   UNL     1      45.592   3.486   8.968  0.00  0.00    +0.000 A 
ATOM     11  C   UNL     1      46.138   3.985   7.777  0.00  0.00    +0.000 A 
ATOM     12  C   UNL     1      46.611   3.119   6.791  0.00  0.00    +0.000 A 
ATOM     13  C   UNL     1      46.542   1.758   7.025  0.00  0.00    +0.000 A 
ATOM     14  N   UNL     1      46.037   1.222   8.153  0.00  0.00    +0.000 NA
ATOM     15  C   UNL     1      45.575   2.093   9.085  0.00  0.00    +0.000 A 
ENDBRANCH   8  10
ENDBRANCH   1   4
BRANCH   1  16
ATOM     16  N   UNL     1      45.817   8.152  13.119  0.00  0.00    +0.000 N 
ATOM     17  H   UNL     1      44.995   8.093  13.718  0.00  0.00    +0.000 HD
BRANCH  16  22
ATOM     18  C   UNL     1      46.906  11.313  11.459  0.00  0.00    +0.000 A 
ATOM     19  C   UNL     1      45.667  11.718  10.979  0.00  0.00    +0.000 A 
ATOM     20  N   UNL     1      44.527  11.014  11.148  0.00  0.00    +0.000 NA
ATOM     21  C   UNL     1      44.644   9.850  11.838  0.00  0.00    +0.000 A 
ATOM     22  C   UNL     1      45.836   9.337  12.362  0.00  0.00    +0.000 A 
ATOM     23  C   UNL     1      46.968  10.130  12.197  0.00  0.00    +0.000 A 
BRANCH  18  25
ATOM     24  C   UNL     1      48.624  11.872   9.965  0.00  0.00    +0.000 C 
ATOM     25  O   UNL     1      47.973  12.127  11.209  0.00  0.00    +0.000 OA
ENDBRANCH  18  25
ENDBRANCH  16  22
ENDBRANCH   1  16
TORSDOF 5
ENDMDL
MODEL 8
REMARK VINA RESULT:    -5.966      3.349      7.604
REMARK INTER + INTRA:          -8.705
REMARK INTER:                  -7.722
REMARK INTRA:                  -0.983
REMARK UNBOUND:                -0.995
REMARK  Name = 
REMARK  6 active torsions:
REMARK  status: ('A' for Active; 'I' for Inactive)
REMARK    1  A    between atoms: C_1  and  O_2
REMARK    2  A    between atoms: O_2  and  C_3
REMARK    3  A    between atoms: C_7  and  N_8
REMARK    4  A    between atoms: N_8  and  C_9
REMARK    5  A    between atoms: C_9  and  C_10
REMARK    6  A    between atoms: C_14  and  C_15
REMARK                            x       y       z     vdW  Elec       q    Type
REMARK                         _______ _______ _______ _____ _____    ______ ____
ROOT
ATOM      1  C   UNL     1      49.371   7.995  12.672  0.00  0.00    +0.000 C 
ATOM      2  C   UNL     1      50.265   8.048  11.435  0.00  0.00    +0.000 C 
ATOM      3  C   UNL     1      49.972   9.301  12.184  0.00  0.00    +0.000 C 
ENDROOT
BRANCH   1   4
ATOM      4  C   UNL     1      47.865   7.836  12.475  0.00  0.00    +0.000 A 
ATOM      5  C   UNL     1      46.963   8.850  12.842  0.00  0.00    +0.000 A 
ATOM      6  C   UNL     1      45.599   8.742  12.585  0.00  0.00    +0.000 A 
ATOM      7  C   UNL     1      45.100   7.610  11.944  0.00  0.00    +0.000 A 
ATOM      8  C   UNL     1      45.950   6.561  11.557  0.00  0.00    +0.000 A 
ATOM      9  C   UNL     1      47.322   6.693  11.861  0.00  0.00    +0.000 A 
BRANCH   8  10
ATOM     10  C   UNL     1      45.447   5.388  10.812  0.00  0.00    +0.000 A 
ATOM     11  C   UNL     1      45.623   5.245   9.429  0.00  0.00    +0.000 A 
ATOM     12  C   UNL     1      45.090   4.148   8.752  0.00  0.00    +0.000 A 
ATOM     13  C   UNL     1      44.399   3.199   9.482  0.00  0.00    +0.000 A 
ATOM     14  N   UNL     1      44.207   3.279  10.814  0.00  0.00    +0.000 NA
ATOM     15  C   UNL     1      44.728   4.366  11.437  0.00  0.00    +0.000 A 
ENDBRANCH   8  10
ENDBRANCH   1   4
BRANCH   1  16
ATOM     16  N   UNL     1      49.945   7.206  13.780  0.00  0.00    +0.000 N 
ATOM     17  H   UNL     1      50.250   6.268  13.523  0.00  0.00    +0.000 HD
BRANCH  16  22
ATOM     18  C   UNL     1      48.612   6.355  17.161  0.00  0.00    +0.000 A 
ATOM     19  C   UNL     1      48.642   7.631  17.709  0.00  0.00    +0.000 A 
ATOM     20  N   UNL     1      49.085   8.723  17.051  0.00  0.00    +0.000 NA
ATOM     21  C   UNL     1      49.515   8.516  15.780  0.00  0.00    +0.000 A 
ATOM     22  C   UNL     1      49.541   7.280  15.124  0.00  0.00    +0.000 A 
ATOM     23  C   UNL     1      49.026   6.200  15.838  0.00  0.00    +0.000 A 
BRANCH  18  25
ATOM     24  C   UNL     1      47.286   4.425  17.267  0.00  0.00    +0.000 C 
ATOM     25  O   UNL     1      48.139   5.344  17.948  0.00  0.00    +0.000 OA
ENDBRANCH  18  25
ENDBRANCH  16  22
ENDBRANCH   1  16
TORSDOF 5
ENDMDL
MODEL 9
REMARK VINA RESULT:    -5.719      3.458      5.657
REMARK INTER + INTRA:          -8.386
REMARK INTER:                  -7.695
REMARK INTRA:                  -0.691
REMARK UNBOUND:                -0.995
REMARK  Name = 
REMARK  6 active torsions:
REMARK  status: ('A' for Active; 'I' for Inactive)
REMARK    1  A    between atoms: C_1  and  O_2
REMARK    2  A    between atoms: O_2  and  C_3
REMARK    3  A    between atoms: C_7  and  N_8
REMARK    4  A    between atoms: N_8  and  C_9
REMARK    5  A    between atoms: C_9  and  C_10
REMARK    6  A    between atoms: C_14  and  C_15
REMARK                            x       y       z     vdW  Elec       q    Type
REMARK                         _______ _______ _______ _____ _____    ______ ____
ROOT
ATOM      1  C   UNL     1      47.555   7.864  12.744  0.00  0.00    +0.000 C 
ATOM      2  C   UNL     1      48.017   8.994  11.827  0.00  0.00    +0.000 C 
ATOM      3  C   UNL     1      48.596   7.633  11.664  0.00  0.00    +0.000 C 
ENDROOT
BRANCH   1   4
ATOM      4  C   UNL     1      48.066   7.840  14.183  0.00  0.00    +0.000 A 
ATOM      5  C   UNL     1      48.109   9.004  14.970  0.00  0.00    +0.000 A 
ATOM      6  C   UNL     1      48.494   8.968  16.307  0.00  0.00    +0.000 A 
ATOM      7  C   UNL     1      48.840   7.754  16.898  0.00  0.00    +0.000 A 
ATOM      8  C   UNL     1      48.820   6.558  16.164  0.00  0.00    +0.000 A 
ATOM      9  C   UNL     1      48.454   6.638  14.803  0.00  0.00    +0.000 A 
BRANCH   8  10
ATOM     10  C   UNL     1      49.114   5.254  16.795  0.00  0.00    +0.000 A 
ATOM     11  C   UNL     1      50.338   4.981  17.421  0.00  0.00    +0.000 A 
ATOM     12  C   UNL     1      50.597   3.722  17.961  0.00  0.00    +0.000 A 
ATOM     13  C   UNL     1      49.611   2.756  17.877  0.00  0.00    +0.000 A 
ATOM     14  N   UNL     1      48.413   2.964  17.296  0.00  0.00    +0.000 NA
ATOM     15  C   UNL     1      48.200   4.196  16.770  0.00  0.00    +0.000 A 
ENDBRANCH   8  10
ENDBRANCH   1   4
BRANCH   1  16
ATOM     16  N   UNL     1      46.129   7.518  12.579  0.00  0.00    +0.000 N 
ATOM     17  H   UNL     1      45.494   8.015  13.202  0.00  0.00    +0.000 HD
BRANCH  16  22
ATOM     18  C   UNL     1      44.516   4.694  10.746  0.00  0.00    +0.000 A 
ATOM     19  C   UNL     1      44.585   3.742  11.754  0.00  0.00    +0.000 A 
ATOM     20  N   UNL     1      45.139   3.967  12.965  0.00  0.00    +0.000 NA
ATOM     21  C   UNL     1      45.642   5.211  13.166  0.00  0.00    +0.000 A 
ATOM     22  C   UNL     1      45.637   6.249  12.227  0.00  0.00    +0.000 A 
ATOM     23  C   UNL     1      45.011   5.971  11.015  0.00  0.00    +0.000 A 
BRANCH  18  25
ATOM     24  C   UNL     1      44.851   3.929   8.555  0.00  0.00    +0.000 C 
ATOM     25  O   UNL     1      43.929   4.323   9.570  0.00  0.00    +0.000 OA
ENDBRANCH  18  25
ENDBRANCH  16  22
ENDBRANCH   1  16
TORSDOF 5
ENDMDL
