MODEL 1
REMARK VINA RESULT:    -8.222      0.000      0.000
REMARK INTER + INTRA:         -12.061
REMARK INTER:                 -11.347
REMARK INTRA:                  -0.714
REMARK UNBOUND:                -0.714
REMARK  Name = 
REMARK  7 active torsions:
REMARK  status: ('A' for Active; 'I' for Inactive)
REMARK    1  A    between atoms: C_2  and  C_20
REMARK    2  A    between atoms: N_3  and  C_4
REMARK    3  A    between atoms: C_4  and  C_5
REMARK    4  A    between atoms: C_8  and  C_9
REMARK    5  A    between atoms: C_9  and  C_10
REMARK    6  A    between atoms: C_10  and  N_11
REMARK    7  A    between atoms: C_14  and  O_15
REMARK                            x       y       z     vdW  Elec       q    Type
REMARK                         _______ _______ _______ _____ _____    ______ ____
ROOT
ATOM      1  C   UNL     1      46.427   7.431  12.898  0.00  0.00    +0.000 C 
ENDROOT
BRANCH   1   2
ATOM      2  C   UNL     1      45.899   6.310  12.044  0.00  0.00    +0.000 A 
ATOM      3  C   UNL     1      45.273   5.200  12.632  0.00  0.00    +0.000 A 
ATOM      4  C   UNL     1      44.730   4.186  11.840  0.00  0.00    +0.000 A 
ATOM      5  C   UNL     1      44.794   4.271  10.443  0.00  0.00    +0.000 A 
ATOM      6  C   UNL     1      45.415   5.383   9.861  0.00  0.00    +0.000 A 
ATOM      7  C   UNL     1      45.972   6.386  10.651  0.00  0.00    +0.000 A 
BRANCH   5   8
ATOM      8  C   UNL     1      44.274   3.172   9.543  0.00  0.00    +0.000 C 
BRANCH   8   9
ATOM      9  C   UNL     1      45.269   2.021   9.300  0.00  0.00    +0.000 C 
BRANCH   9  10
ATOM     10  N   UNL     1      45.779   1.914   7.915  0.00  0.00    +0.000 NA
ATOM     11  C   UNL     1      46.838   0.909   7.749  0.00  0.00    +0.000 C 
ATOM     12  C   UNL     1      47.257   0.782   6.283  0.00  0.00    +0.000 C 
ATOM     13  C   UNL     1      47.670   2.127   5.696  0.00  0.00    +0.000 C 
ATOM     14  C   UNL     1      46.606   3.187   5.959  0.00  0.00    +0.000 C 
ATOM     15  C   UNL     1      46.209   3.240   7.434  0.00  0.00    +0.000 C 
BRANCH  13  16
ATOM     16  O   UNL     1      48.930   2.538   6.227  0.00  0.00    +0.000 OA
ATOM     17  H   UNL     1      49.249   1.854   6.840  0.00  0.00    +0.000 HD
ENDBRANCH  13  16
ENDBRANCH   9  10
ENDBRANCH   8   9
ENDBRANCH   5   8
ENDBRANCH   1   2
BRANCH   1  20
ATOM     18  O   UNL     1      49.026   6.520  13.244  0.00  0.00    +0.000 OA
ATOM     19  C   UNL     1      48.279   6.578  14.230  0.00  0.00    +0.000 C 
ATOM     20  N   UNL     1      46.980   6.988  14.144  0.00  0.00    +0.000 N 
ATOM     21  H   UNL     1      46.463   7.237  14.989  0.00  0.00    +0.000 HD
BRANCH  19  22
ATOM     22  C   UNL     1      48.745   6.182  15.545  0.00  0.00    +0.000 A 
ATOM     23  C   UNL     1      49.660   6.930  16.268  0.00  0.00    +0.000 A 
ATOM     24  S   UNL     1      49.955   6.290  17.828  0.00  0.00    +0.000 S 
ATOM     25  C   UNL     1      48.871   5.002  17.563  0.00  0.00    +0.000 A 
ATOM     26  N   UNL     1      48.613   4.074  18.525  0.00  0.00    +0.000 NA
ATOM     27  C   UNL     1      47.752   3.179  18.179  0.00  0.00    +0.000 A 
ATOM     28  N   UNL     1      47.125   3.107  16.963  0.00  0.00    +0.000 N 
ATOM     29  C   UNL     1      47.413   3.960  15.937  0.00  0.00    +0.000 A 
ATOM     30  O   UNL     1      46.972   3.755  14.806  0.00  0.00    +0.000 OA
ATOM     31  C   UNL     1      48.326   5.035  16.296  0.00  0.00    +0.000 A 
ATOM     32  H   UNL     1      46.507   2.350  16.731  0.00  0.00    +0.000 HD
ENDBRANCH  19  22
ENDBRANCH   1  20
TORSDOF 7
ENDMDL
MODEL 2
REMARK VINA RESULT:    -7.601      1.877      2.543
REMARK INTER + INTRA:         -11.204
REMARK INTER:                 -10.339
REMARK INTRA:                  -0.865
REMARK UNBOUND:                -0.714
REMARK  Name = 
REMARK  7 active torsions:
REMARK  status: ('A' for Active; 'I' for Inactive)
REMARK    1  A    between atoms: C_2  and  C_20
REMARK    2  A    between atoms: N_3  and  C_4
REMARK    3  A    between atoms: C_4  and  C_5
REMARK    4  A    between atoms: C_8  and  C_9
REMARK    5  A    between atoms: C_9  and  C_10
REMARK    6  A    between atoms: C_10  and  N_11
REMARK    7  A    between atoms: C_14  and  O_15
REMARK                            x       y       z     vdW  Elec       q    Type
REMARK                         _______ _______ _______ _____ _____    ______ ____
ROOT
ATOM      1  C   UNL     1      47.227   6.450  13.568  0.00  0.00    +0.000 C 
ENDROOT
BRANCH   1   2
ATOM      2  C   UNL     1      46.447   5.618  12.586  0.00  0.00    +0.000 A 
ATOM      3  C   UNL     1      45.910   4.379  12.970  0.00  0.00    +0.000 A 
ATOM      4  C   UNL     1      45.137   3.631  12.080  0.00  0.00    +0.000 A 
ATOM      5  C   UNL     1      44.877   4.116  10.791  0.00  0.00    +0.000 A 
ATOM      6  C   UNL     1      45.411   5.355  10.414  0.00  0.00    +0.000 A 
ATOM      7  C   UNL     1      46.196   6.094  11.296  0.00  0.00    +0.000 A 
BRANCH   5   8
ATOM      8  C   UNL     1      44.096   3.319   9.770  0.00  0.00    +0.000 C 
BRANCH   8   9
ATOM      9  C   UNL     1      44.831   2.077   9.231  0.00  0.00    +0.000 C 
BRANCH   9  10
ATOM     10  N   UNL     1      45.971   2.364   8.333  0.00  0.00    +0.000 NA
ATOM     11  C   UNL     1      45.656   3.321   7.263  0.00  0.00    +0.000 C 
ATOM     12  C   UNL     1      46.896   3.646   6.427  0.00  0.00    +0.000 C 
ATOM     13  C   UNL     1      47.548   2.385   5.872  0.00  0.00    +0.000 C 
ATOM     14  C   UNL     1      47.782   1.360   6.975  0.00  0.00    +0.000 C 
ATOM     15  C   UNL     1      46.515   1.105   7.792  0.00  0.00    +0.000 C 
BRANCH  13  16
ATOM     16  O   UNL     1      46.747   1.827   4.829  0.00  0.00    +0.000 OA
ATOM     17  H   UNL     1      46.153   2.517   4.489  0.00  0.00    +0.000 HD
ENDBRANCH  13  16
ENDBRANCH   9  10
ENDBRANCH   8   9
ENDBRANCH   5   8
ENDBRANCH   1   2
BRANCH   1  20
ATOM     18  O   UNL     1      49.495   6.575  15.163  0.00  0.00    +0.000 OA
ATOM     19  C   UNL     1      48.500   5.972  15.589  0.00  0.00    +0.000 C 
ATOM     20  N   UNL     1      47.355   5.841  14.859  0.00  0.00    +0.000 N 
ATOM     21  H   UNL     1      46.490   5.540  15.311  0.00  0.00    +0.000 HD
BRANCH  19  22
ATOM     22  C   UNL     1      48.510   5.343  16.895  0.00  0.00    +0.000 A 
ATOM     23  C   UNL     1      48.538   3.967  17.059  0.00  0.00    +0.000 A 
ATOM     24  S   UNL     1      48.651   3.497  18.702  0.00  0.00    +0.000 S 
ATOM     25  C   UNL     1      48.658   5.121  19.221  0.00  0.00    +0.000 A 
ATOM     26  N   UNL     1      48.770   5.451  20.537  0.00  0.00    +0.000 NA
ATOM     27  C   UNL     1      48.785   6.721  20.764  0.00  0.00    +0.000 A 
ATOM     28  N   UNL     1      48.690   7.700  19.811  0.00  0.00    +0.000 N 
ATOM     29  C   UNL     1      48.489   7.421  18.489  0.00  0.00    +0.000 A 
ATOM     30  O   UNL     1      48.223   8.320  17.691  0.00  0.00    +0.000 OA
ATOM     31  C   UNL     1      48.535   6.003  18.167  0.00  0.00    +0.000 A 
ATOM     32  H   UNL     1      48.648   8.672  20.055  0.00  0.00    +0.000 HD
ENDBRANCH  19  22
ENDBRANCH   1  20
TORSDOF 7
ENDMDL
MODEL 3
REMARK VINA RESULT:    -7.168      2.709      4.495
REMARK INTER + INTRA:         -10.605
REMARK INTER:                  -9.444
REMARK INTRA:                  -1.161
REMARK UNBOUND:                -0.714
REMARK  Name = 
REMARK  7 active torsions:
REMARK  status: ('A' for Active; 'I' for Inactive)
REMARK    1  A    between atoms: C_2  and  C_20
REMARK    2  A    between atoms: N_3  and  C_4
REMARK    3  A    between atoms: C_4  and  C_5
REMARK    4  A    between atoms: C_8  and  C_9
REMARK    5  A    between atoms: C_9  and  C_10
REMARK    6  A    between atoms: C_10  and  N_11
REMARK    7  A    between atoms: C_14  and  O_15
REMARK                            x       y       z     vdW  Elec       q    Type
REMARK                         _______ _______ _______ _____ _____    ______ ____
ROOT
ATOM      1  C   UNL     1      47.483   5.519  14.414  0.00  0.00    +0.000 C 
ENDROOT
BRANCH   1   2
ATOM      2  C   UNL     1      46.627   5.007  13.286  0.00  0.00    +0.000 A 
ATOM      3  C   UNL     1      46.205   3.669  13.262  0.00  0.00    +0.000 A 
ATOM      4  C   UNL     1      45.364   3.205  12.250  0.00  0.00    +0.000 A 
ATOM      5  C   UNL     1      44.919   4.077  11.247  0.00  0.00    +0.000 A 
ATOM      6  C   UNL     1      45.339   5.413  11.278  0.00  0.00    +0.000 A 
ATOM      7  C   UNL     1      46.192   5.872  12.279  0.00  0.00    +0.000 A 
BRANCH   5   8
ATOM      8  C   UNL     1      44.055   3.611  10.096  0.00  0.00    +0.000 C 
BRANCH   8   9
ATOM      9  C   UNL     1      44.551   2.327   9.404  0.00  0.00    +0.000 C 
BRANCH   9  10
ATOM     10  N   UNL     1      45.791   2.480   8.612  0.00  0.00    +0.000 NA
ATOM     11  C   UNL     1      45.729   3.560   7.617  0.00  0.00    +0.000 C 
ATOM     12  C   UNL     1      47.068   3.728   6.897  0.00  0.00    +0.000 C 
ATOM     13  C   UNL     1      47.540   2.420   6.271  0.00  0.00    +0.000 C 
ATOM     14  C   UNL     1      47.508   1.286   7.288  0.00  0.00    +0.000 C 
ATOM     15  C   UNL     1      46.156   1.193   7.994  0.00  0.00    +0.000 C 
BRANCH  13  16
ATOM     16  O   UNL     1      46.742   2.096   5.131  0.00  0.00    +0.000 OA
ATOM     17  H   UNL     1      46.003   1.533   5.418  0.00  0.00    +0.000 HD
ENDBRANCH  13  16
ENDBRANCH   9  10
ENDBRANCH   8   9
ENDBRANCH   5   8
ENDBRANCH   1   2
BRANCH   1  20
ATOM     18  O   UNL     1      49.886   6.805  14.941  0.00  0.00    +0.000 OA
ATOM     19  C   UNL     1      48.899   7.488  14.635  0.00  0.00    +0.000 C 
ATOM     20  N   UNL     1      47.675   6.939  14.386  0.00  0.00    +0.000 N 
ATOM     21  H   UNL     1      46.949   7.491  13.926  0.00  0.00    +0.000 HD
BRANCH  19  22
ATOM     22  C   UNL     1      48.989   8.933  14.548  0.00  0.00    +0.000 A 
ATOM     23  C   UNL     1      49.092   9.742  15.669  0.00  0.00    +0.000 A 
ATOM     24  S   UNL     1      49.289  11.396  15.277  0.00  0.00    +0.000 S 
ATOM     25  C   UNL     1      49.235  11.062  13.606  0.00  0.00    +0.000 A 
ATOM     26  N   UNL     1      49.380  12.044  12.675  0.00  0.00    +0.000 NA
ATOM     27  C   UNL     1      49.341  11.625  11.455  0.00  0.00    +0.000 A 
ATOM     28  N   UNL     1      49.162  10.324  11.066  0.00  0.00    +0.000 N 
ATOM     29  C   UNL     1      48.925   9.318  11.958  0.00  0.00    +0.000 A 
ATOM     30  O   UNL     1      48.586   8.200  11.568  0.00  0.00    +0.000 OA
ATOM     31  C   UNL     1      49.029   9.721  13.352  0.00  0.00    +0.000 A 
ATOM     32  H   UNL     1      49.081  10.068  10.099  0.00  0.00    +0.000 HD
ENDBRANCH  19  22
ENDBRANCH   1  20
TORSDOF 7
ENDMDL
MODEL 4
REMARK VINA RESULT:    -7.122      3.920      7.897
REMARK INTER + INTRA:         -10.543
REMARK INTER:                  -9.119
REMARK INTRA:                  -1.423
REMARK UNBOUND:                -0.714
REMARK  Name = 
REMARK  7 active torsions:
REMARK  status: ('A' for Active; 'I' for Inactive)
REMARK    1  A    between atoms: C_2  and  C_20
REMARK    2  A    between atoms: N_3  and  C_4
REMARK    3  A    between atoms: C_4  and  C_5
REMARK    4  A    between atoms: C_8  and  C_9
REMARK    5  A    between atoms: C_9  and  C_10
REMARK    6  A    between atoms: C_10  and  N_11
REMARK    7  A    between atoms: C_14  and  O_15
REMARK                            x       y       z     vdW  Elec       q    Type
REMARK                         _______ _______ _______ _____ _____    ______ ____
ROOT
ATOM      1  C   UNL     1      47.697   8.996  13.897  0.00  0.00    +0.000 C 
ENDROOT
BRANCH   1   2
ATOM      2  C   UNL     1      48.447   8.355  15.034  0.00  0.00    +0.000 A 
ATOM      3  C   UNL     1      48.264   8.804  16.351  0.00  0.00    +0.000 A 
ATOM      4  C   UNL     1      48.913   8.174  17.415  0.00  0.00    +0.000 A 
ATOM      5  C   UNL     1      49.749   7.075  17.180  0.00  0.00    +0.000 A 
ATOM      6  C   UNL     1      49.925   6.627  15.865  0.00  0.00    +0.000 A 
ATOM      7  C   UNL     1      49.291   7.266  14.802  0.00  0.00    +0.000 A 
BRANCH   5   8
ATOM      8  C   UNL     1      50.521   6.396  18.290  0.00  0.00    +0.000 C 
BRANCH   8   9
ATOM      9  C   UNL     1      49.661   5.523  19.225  0.00  0.00    +0.000 C 
BRANCH   9  10
ATOM     10  N   UNL     1      49.273   4.207  18.673  0.00  0.00    +0.000 NA
ATOM     11  C   UNL     1      50.210   3.687  17.667  0.00  0.00    +0.000 C 
ATOM     12  C   UNL     1      49.804   2.287  17.202  0.00  0.00    +0.000 C 
ATOM     13  C   UNL     1      48.367   2.255  16.694  0.00  0.00    +0.000 C 
ATOM     14  C   UNL     1      47.416   2.886  17.705  0.00  0.00    +0.000 C 
ATOM     15  C   UNL     1      47.896   4.267  18.152  0.00  0.00    +0.000 C 
BRANCH  13  16
ATOM     16  O   UNL     1      48.269   2.918  15.432  0.00  0.00    +0.000 OA
ATOM     17  H   UNL     1      48.653   2.344  14.748  0.00  0.00    +0.000 HD
ENDBRANCH  13  16
ENDBRANCH   9  10
ENDBRANCH   8   9
ENDBRANCH   5   8
ENDBRANCH   1   2
BRANCH   1  20
ATOM     18  O   UNL     1      47.573   7.246  11.746  0.00  0.00    +0.000 OA
ATOM     19  C   UNL     1      46.561   7.407  12.443  0.00  0.00    +0.000 C 
ATOM     20  N   UNL     1      46.528   8.267  13.501  0.00  0.00    +0.000 N 
ATOM     21  H   UNL     1      45.768   8.214  14.182  0.00  0.00    +0.000 HD
BRANCH  19  22
ATOM     22  C   UNL     1      45.332   6.696  12.149  0.00  0.00    +0.000 A 
ATOM     23  C   UNL     1      44.224   7.320  11.597  0.00  0.00    +0.000 A 
ATOM     24  S   UNL     1      42.949   6.228  11.257  0.00  0.00    +0.000 S 
ATOM     25  C   UNL     1      43.852   4.907  11.846  0.00  0.00    +0.000 A 
ATOM     26  N   UNL     1      43.362   3.638  11.819  0.00  0.00    +0.000 NA
ATOM     27  C   UNL     1      44.176   2.747  12.277  0.00  0.00    +0.000 A 
ATOM     28  N   UNL     1      45.430   2.995  12.769  0.00  0.00    +0.000 N 
ATOM     29  C   UNL     1      45.932   4.258  12.897  0.00  0.00    +0.000 A 
ATOM     30  O   UNL     1      46.981   4.458  13.511  0.00  0.00    +0.000 OA
ATOM     31  C   UNL     1      45.084   5.296  12.330  0.00  0.00    +0.000 A 
ATOM     32  H   UNL     1      45.994   2.267  13.167  0.00  0.00    +0.000 HD
ENDBRANCH  19  22
ENDBRANCH   1  20
TORSDOF 7
ENDMDL
MODEL 5
REMARK VINA RESULT:    -7.054      3.021      8.711
REMARK INTER + INTRA:         -10.449
REMARK INTER:                  -9.223
REMARK INTRA:                  -1.226
REMARK UNBOUND:                -0.714
REMARK  Name = 
REMARK  7 active torsions:
REMARK  status: ('A' for Active; 'I' for Inactive)
REMARK    1  A    between atoms: C_2  and  C_20
REMARK    2  A    between atoms: N_3  and  C_4
REMARK    3  A    between atoms: C_4  and  C_5
REMARK    4  A    between atoms: C_8  and  C_9
REMARK    5  A    between atoms: C_9  and  C_10
REMARK    6  A    between atoms: C_10  and  N_11
REMARK    7  A    between atoms: C_14  and  O_15
REMARK                            x       y       z     vdW  Elec       q    Type
REMARK                         _______ _______ _______ _____ _____    ______ ____
ROOT
ATOM      1  C   UNL     1      47.542   7.882  11.962  0.00  0.00    +0.000 C 
ENDROOT
BRANCH   1   2
ATOM      2  C   UNL     1      48.280   8.049  13.263  0.00  0.00    +0.000 A 
ATOM      3  C   UNL     1      47.682   8.720  14.342  0.00  0.00    +0.000 A 
ATOM      4  C   UNL     1      48.340   8.826  15.568  0.00  0.00    +0.000 A 
ATOM      5  C   UNL     1      49.606   8.251  15.742  0.00  0.00    +0.000 A 
ATOM      6  C   UNL     1      50.197   7.579  14.665  0.00  0.00    +0.000 A 
ATOM      7  C   UNL     1      49.548   7.487  13.435  0.00  0.00    +0.000 A 
BRANCH   5   8
ATOM      8  C   UNL     1      50.386   8.389  17.031  0.00  0.00    +0.000 C 
BRANCH   8   9
ATOM      9  C   UNL     1      49.886   7.491  18.179  0.00  0.00    +0.000 C 
BRANCH   9  10
ATOM     10  N   UNL     1      49.362   6.172  17.761  0.00  0.00    +0.000 NA
ATOM     11  C   UNL     1      48.001   5.895  18.243  0.00  0.00    +0.000 C 
ATOM     12  C   UNL     1      47.483   4.561  17.702  0.00  0.00    +0.000 C 
ATOM     13  C   UNL     1      48.432   3.413  18.026  0.00  0.00    +0.000 C 
ATOM     14  C   UNL     1      49.859   3.752  17.610  0.00  0.00    +0.000 C 
ATOM     15  C   UNL     1      50.304   5.109  18.154  0.00  0.00    +0.000 C 
BRANCH  13  16
ATOM     16  O   UNL     1      48.377   3.098  19.418  0.00  0.00    +0.000 OA
ATOM     17  H   UNL     1      47.732   3.686  19.846  0.00  0.00    +0.000 HD
ENDBRANCH  13  16
ENDBRANCH   9  10
ENDBRANCH   8   9
ENDBRANCH   5   8
ENDBRANCH   1   2
BRANCH   1  20
ATOM     18  O   UNL     1      44.798   7.522  11.746  0.00  0.00    +0.000 OA
ATOM     19  C   UNL     1      45.534   6.527  11.709  0.00  0.00    +0.000 C 
ATOM     20  N   UNL     1      46.890   6.612  11.834  0.00  0.00    +0.000 N 
ATOM     21  H   UNL     1      47.480   5.818  11.580  0.00  0.00    +0.000 HD
BRANCH  19  22
ATOM     22  C   UNL     1      44.983   5.195  11.553  0.00  0.00    +0.000 A 
ATOM     23  C   UNL     1      44.333   4.532  12.582  0.00  0.00    +0.000 A 
ATOM     24  S   UNL     1      43.689   3.022  12.096  0.00  0.00    +0.000 S 
ATOM     25  C   UNL     1      44.271   3.225  10.506  0.00  0.00    +0.000 A 
ATOM     26  N   UNL     1      44.039   2.300   9.536  0.00  0.00    +0.000 NA
ATOM     27  C   UNL     1      44.522   2.612   8.381  0.00  0.00    +0.000 A 
ATOM     28  N   UNL     1      45.226   3.752   8.096  0.00  0.00    +0.000 N 
ATOM     29  C   UNL     1      45.559   4.668   9.053  0.00  0.00    +0.000 A 
ATOM     30  O   UNL     1      46.345   5.581   8.801  0.00  0.00    +0.000 OA
ATOM     31  C   UNL     1      44.978   4.401  10.359  0.00  0.00    +0.000 A 
ATOM     32  H   UNL     1      45.629   3.911   7.191  0.00  0.00    +0.000 HD
ENDBRANCH  19  22
ENDBRANCH   1  20
TORSDOF 7
ENDMDL
MODEL 6
REMARK VINA RESULT:    -6.950      4.732      7.331
REMARK INTER + INTRA:         -10.305
REMARK INTER:                  -9.285
REMARK INTRA:                  -1.020
REMARK UNBOUND:                -0.714
REMARK  Name = 
REMARK  7 active torsions:
REMARK  status: ('A' for Active; 'I' for Inactive)
REMARK    1  A    between atoms: C_2  and  C_20
REMARK    2  A    between atoms: N_3  and  C_4
REMARK    3  A    between atoms: C_4  and  C_5
REMARK    4  A    between atoms: C_8  and  C_9
REMARK    5  A    between atoms: C_9  and  C_10
REMARK    6  A    between atoms: C_10  and  N_11
REMARK    7  A    between atoms: C_14  and  O_15
REMARK                            x       y       z     vdW  Elec       q    Type
REMARK                         _______ _______ _______ _____ _____    ______ ____
ROOT
ATOM      1  C   UNL     1      46.430   8.252  12.847  0.00  0.00    +0.000 C 
ENDROOT
BRANCH   1   2
ATOM      2  C   UNL     1      47.794   8.524  12.270  0.00  0.00    +0.000 A 
ATOM      3  C   UNL     1      48.180   9.831  11.936  0.00  0.00    +0.000 A 
ATOM      4  C   UNL     1      49.464  10.095  11.456  0.00  0.00    +0.000 A 
ATOM      5  C   UNL     1      50.391   9.054  11.313  0.00  0.00    +0.000 A 
ATOM      6  C   UNL     1      50.003   7.752  11.652  0.00  0.00    +0.000 A 
ATOM      7  C   UNL     1      48.717   7.486  12.116  0.00  0.00    +0.000 A 
BRANCH   5   8
ATOM      8  C   UNL     1      51.774   9.277  10.742  0.00  0.00    +0.000 C 
BRANCH   8   9
ATOM      9  C   UNL     1      52.752   8.107  10.961  0.00  0.00    +0.000 C 
BRANCH   9  10
ATOM     10  N   UNL     1      53.341   7.543   9.727  0.00  0.00    +0.000 NA
ATOM     11  C   UNL     1      52.885   8.206   8.496  0.00  0.00    +0.000 C 
ATOM     12  C   UNL     1      53.598   7.641   7.266  0.00  0.00    +0.000 C 
ATOM     13  C   UNL     1      53.446   6.126   7.172  0.00  0.00    +0.000 C 
ATOM     14  C   UNL     1      53.830   5.457   8.487  0.00  0.00    +0.000 C 
ATOM     15  C   UNL     1      53.110   6.089   9.678  0.00  0.00    +0.000 C 
BRANCH  13  16
ATOM     16  O   UNL     1      52.110   5.780   6.804  0.00  0.00    +0.000 OA
ATOM     17  H   UNL     1      51.506   6.461   7.145  0.00  0.00    +0.000 HD
ENDBRANCH  13  16
ENDBRANCH   9  10
ENDBRANCH   8   9
ENDBRANCH   5   8
ENDBRANCH   1   2
BRANCH   1  20
ATOM     18  O   UNL     1      44.227   7.540  11.315  0.00  0.00    +0.000 OA
ATOM     19  C   UNL     1      44.897   6.645  11.848  0.00  0.00    +0.000 C 
ATOM     20  N   UNL     1      45.978   6.908  12.637  0.00  0.00    +0.000 N 
ATOM     21  H   UNL     1      46.634   6.162  12.876  0.00  0.00    +0.000 HD
BRANCH  19  22
ATOM     22  C   UNL     1      44.547   5.248  11.678  0.00  0.00    +0.000 A 
ATOM     23  C   UNL     1      43.889   4.520  12.657  0.00  0.00    +0.000 A 
ATOM     24  S   UNL     1      43.505   2.929  12.154  0.00  0.00    +0.000 S 
ATOM     25  C   UNL     1      44.215   3.184  10.625  0.00  0.00    +0.000 A 
ATOM     26  N   UNL     1      44.208   2.220   9.664  0.00  0.00    +0.000 NA
ATOM     27  C   UNL     1      44.761   2.576   8.554  0.00  0.00    +0.000 A 
ATOM     28  N   UNL     1      45.332   3.796   8.307  0.00  0.00    +0.000 N 
ATOM     29  C   UNL     1      45.441   4.763   9.264  0.00  0.00    +0.000 A 
ATOM     30  O   UNL     1      46.120   5.771   9.064  0.00  0.00    +0.000 OA
ATOM     31  C   UNL     1      44.770   4.442  10.514  0.00  0.00    +0.000 A 
ATOM     32  H   UNL     1      45.801   3.993   7.441  0.00  0.00    +0.000 HD
ENDBRANCH  19  22
ENDBRANCH   1  20
TORSDOF 7
ENDMDL
MODEL 7
REMARK VINA RESULT:    -6.919      3.603      5.571
REMARK INTER + INTRA:         -10.262
REMARK INTER:                  -9.503
REMARK INTRA:                  -0.759
REMARK UNBOUND:                -0.714
REMARK  Name = 
REMARK  7 active torsions:
REMARK  status: ('A' for Active; 'I' for Inactive)
REMARK    1  A    between atoms: C_2  and  C_20
REMARK    2  A    between atoms: N_3  and  C_4
REMARK    3  A    between atoms: C_4  and  C_5
REMARK    4  A    between atoms: C_8  and  C_9
REMARK    5  A    between atoms: C_9  and  C_10
REMARK    6  A    between atoms: C_10  and  N_11
REMARK    7  A    between atoms: C_14  and  O_15
REMARK                            x       y       z     vdW  Elec       q    Type
REMARK                         _______ _______ _______ _____ _____    ______ ____
ROOT
ATOM      1  C   UNL     1      48.518   5.169  17.208  0.00  0.00    +0.000 C 
ENDROOT
BRANCH   1   2
ATOM      2  C   UNL     1      48.145   5.493  15.786  0.00  0.00    +0.000 A 
ATOM      3  C   UNL     1      47.357   4.606  15.036  0.00  0.00    +0.000 A 
ATOM      4  C   UNL     1      46.960   4.930  13.737  0.00  0.00    +0.000 A 
ATOM      5  C   UNL     1      47.336   6.154  13.169  0.00  0.00    +0.000 A 
ATOM      6  C   UNL     1      48.119   7.038  13.923  0.00  0.00    +0.000 A 
ATOM      7  C   UNL     1      48.529   6.708  15.213  0.00  0.00    +0.000 A 
BRANCH   5   8
ATOM      8  C   UNL     1      46.983   6.526  11.746  0.00  0.00    +0.000 C 
BRANCH   8   9
ATOM      9  C   UNL     1      45.555   7.075  11.565  0.00  0.00    +0.000 C 
BRANCH   9  10
ATOM     10  N   UNL     1      44.498   6.046  11.447  0.00  0.00    +0.000 NA
ATOM     11  C   UNL     1      43.921   5.640  12.737  0.00  0.00    +0.000 C 
ATOM     12  C   UNL     1      42.775   4.645  12.542  0.00  0.00    +0.000 C 
ATOM     13  C   UNL     1      43.210   3.436  11.721  0.00  0.00    +0.000 C 
ATOM     14  C   UNL     1      43.895   3.871  10.431  0.00  0.00    +0.000 C 
ATOM     15  C   UNL     1      45.006   4.887  10.691  0.00  0.00    +0.000 C 
BRANCH  13  16
ATOM     16  O   UNL     1      44.073   2.596  12.489  0.00  0.00    +0.000 OA
ATOM     17  H   UNL     1      44.667   3.157  13.016  0.00  0.00    +0.000 HD
ENDBRANCH  13  16
ENDBRANCH   9  10
ENDBRANCH   8   9
ENDBRANCH   5   8
ENDBRANCH   1   2
BRANCH   1  20
ATOM     18  O   UNL     1      49.755   4.626  19.633  0.00  0.00    +0.000 OA
ATOM     19  C   UNL     1      50.387   4.434  18.585  0.00  0.00    +0.000 C 
ATOM     20  N   UNL     1      49.864   4.699  17.353  0.00  0.00    +0.000 N 
ATOM     21  H   UNL     1      50.313   4.328  16.514  0.00  0.00    +0.000 HD
BRANCH  19  22
ATOM     22  C   UNL     1      51.748   3.932  18.615  0.00  0.00    +0.000 A 
ATOM     23  C   UNL     1      52.793   4.645  19.180  0.00  0.00    +0.000 A 
ATOM     24  S   UNL     1      54.268   3.777  19.173  0.00  0.00    +0.000 S 
ATOM     25  C   UNL     1      53.539   2.438  18.411  0.00  0.00    +0.000 A 
ATOM     26  N   UNL     1      54.238   1.304  18.133  0.00  0.00    +0.000 NA
ATOM     27  C   UNL     1      53.538   0.373  17.579  0.00  0.00    +0.000 A 
ATOM     28  N   UNL     1      52.208   0.460  17.263  0.00  0.00    +0.000 N 
ATOM     29  C   UNL     1      51.484   1.605  17.442  0.00  0.00    +0.000 A 
ATOM     30  O   UNL     1      50.348   1.708  16.980  0.00  0.00    +0.000 OA
ATOM     31  C   UNL     1      52.207   2.663  18.130  0.00  0.00    +0.000 A 
ATOM     32  H   UNL     1      51.731  -0.277  16.778  0.00  0.00    +0.000 HD
ENDBRANCH  19  22
ENDBRANCH   1  20
TORSDOF 7
ENDMDL
MODEL 8
REMARK VINA RESULT:    -6.580      4.166     10.156
REMARK INTER + INTRA:          -9.795
REMARK INTER:                  -8.764
REMARK INTRA:                  -1.031
REMARK UNBOUND:                -0.714
REMARK  Name = 
REMARK  7 active torsions:
REMARK  status: ('A' for Active; 'I' for Inactive)
REMARK    1  A    between atoms: C_2  and  C_20
REMARK    2  A    between atoms: N_3  and  C_4
REMARK    3  A    between atoms: C_4  and  C_5
REMARK    4  A    between atoms: C_8  and  C_9
REMARK    5  A    between atoms: C_9  and  C_10
REMARK    6  A    between atoms: C_10  and  N_11
REMARK    7  A    between atoms: C_14  and  O_15
REMARK                            x       y       z     vdW  Elec       q    Type
REMARK                         _______ _______ _______ _____ _____    ______ ____
ROOT
ATOM      1  C   UNL     1      47.904   4.281  16.081  0.00  0.00    +0.000 C 
ENDROOT
BRANCH   1   2
ATOM      2  C   UNL     1      48.095   5.208  17.251  0.00  0.00    +0.000 A 
ATOM      3  C   UNL     1      49.128   6.157  17.248  0.00  0.00    +0.000 A 
ATOM      4  C   UNL     1      49.273   7.058  18.304  0.00  0.00    +0.000 A 
ATOM      5  C   UNL     1      48.376   7.032  19.380  0.00  0.00    +0.000 A 
ATOM      6  C   UNL     1      47.343   6.087  19.378  0.00  0.00    +0.000 A 
ATOM      7  C   UNL     1      47.208   5.177  18.331  0.00  0.00    +0.000 A 
BRANCH   5   8
ATOM      8  C   UNL     1      48.524   7.946  20.577  0.00  0.00    +0.000 C 
BRANCH   8   9
ATOM      9  C   UNL     1      47.238   8.698  20.970  0.00  0.00    +0.000 C 
BRANCH   9  10
ATOM     10  N   UNL     1      47.256  10.153  20.704  0.00  0.00    +0.000 NA
ATOM     11  C   UNL     1      46.017  10.660  20.097  0.00  0.00    +0.000 C 
ATOM     12  C   UNL     1      46.063  12.180  19.932  0.00  0.00    +0.000 C 
ATOM     13  C   UNL     1      47.291  12.626  19.146  0.00  0.00    +0.000 C 
ATOM     14  C   UNL     1      48.561  12.016  19.726  0.00  0.00    +0.000 C 
ATOM     15  C   UNL     1      48.438  10.502  19.896  0.00  0.00    +0.000 C 
BRANCH  13  16
ATOM     16  O   UNL     1      47.153  12.281  17.767  0.00  0.00    +0.000 OA
ATOM     17  H   UNL     1      47.973  11.853  17.468  0.00  0.00    +0.000 HD
ENDBRANCH  13  16
ENDBRANCH   9  10
ENDBRANCH   8   9
ENDBRANCH   5   8
ENDBRANCH   1   2
BRANCH   1  20
ATOM     18  O   UNL     1      48.476   5.757  13.801  0.00  0.00    +0.000 OA
ATOM     19  C   UNL     1      47.300   5.444  14.028  0.00  0.00    +0.000 C 
ATOM     20  N   UNL     1      46.928   4.744  15.138  0.00  0.00    +0.000 N 
ATOM     21  H   UNL     1      46.003   4.313  15.188  0.00  0.00    +0.000 HD
BRANCH  19  22
ATOM     22  C   UNL     1      46.235   5.836  13.125  0.00  0.00    +0.000 A 
ATOM     23  C   UNL     1      45.921   7.162  12.873  0.00  0.00    +0.000 A 
ATOM     24  S   UNL     1      44.696   7.340  11.690  0.00  0.00    +0.000 S 
ATOM     25  C   UNL     1      44.561   5.651  11.499  0.00  0.00    +0.000 A 
ATOM     26  N   UNL     1      43.701   5.100  10.599  0.00  0.00    +0.000 NA
ATOM     27  C   UNL     1      43.735   3.811  10.557  0.00  0.00    +0.000 A 
ATOM     28  N   UNL     1      44.534   3.011  11.331  0.00  0.00    +0.000 N 
ATOM     29  C   UNL     1      45.348   3.511  12.307  0.00  0.00    +0.000 A 
ATOM     30  O   UNL     1      45.908   2.758  13.103  0.00  0.00    +0.000 OA
ATOM     31  C   UNL     1      45.402   4.964  12.349  0.00  0.00    +0.000 A 
ATOM     32  H   UNL     1      44.472   2.010  11.294  0.00  0.00    +0.000 HD
ENDBRANCH  19  22
ENDBRANCH   1  20
TORSDOF 7
ENDMDL
MODEL 9
REMARK VINA RESULT:    -6.318      4.095      8.941
REMARK INTER + INTRA:          -9.434
REMARK INTER:                  -8.176
REMARK INTRA:                  -1.257
REMARK UNBOUND:                -0.714
REMARK  Name = 
REMARK  7 active torsions:
REMARK  status: ('A' for Active; 'I' for Inactive)
REMARK    1  A    between atoms: C_2  and  C_20
REMARK    2  A    between atoms: N_3  and  C_4
REMARK    3  A    between atoms: C_4  and  C_5
REMARK    4  A    between atoms: C_8  and  C_9
REMARK    5  A    between atoms: C_9  and  C_10
REMARK    6  A    between atoms: C_10  and  N_11
REMARK    7  A    between atoms: C_14  and  O_15
REMARK                            x       y       z     vdW  Elec       q    Type
REMARK                         _______ _______ _______ _____ _____    ______ ____
ROOT
ATOM      1  C   UNL     1      47.854   9.022  14.022  0.00  0.00    +0.000 C 
ENDROOT
BRANCH   1   2
ATOM      2  C   UNL     1      48.637   8.841  15.295  0.00  0.00    +0.000 A 
ATOM      3  C   UNL     1      49.914   8.260  15.270  0.00  0.00    +0.000 A 
ATOM      4  C   UNL     1      50.667   8.143  16.439  0.00  0.00    +0.000 A 
ATOM      5  C   UNL     1      50.160   8.619  17.656  0.00  0.00    +0.000 A 
ATOM      6  C   UNL     1      48.887   9.203  17.676  0.00  0.00    +0.000 A 
ATOM      7  C   UNL     1      48.128   9.304  16.512  0.00  0.00    +0.000 A 
BRANCH   5   8
ATOM      8  C   UNL     1      50.910   8.464  18.960  0.00  0.00    +0.000 C 
BRANCH   8   9
ATOM      9  C   UNL     1      50.554   7.193  19.755  0.00  0.00    +0.000 C 
BRANCH   9  10
ATOM     10  N   UNL     1      49.822   6.159  18.991  0.00  0.00    +0.000 NA
ATOM     11  C   UNL     1      48.432   5.970  19.432  0.00  0.00    +0.000 C 
ATOM     12  C   UNL     1      47.703   4.958  18.546  0.00  0.00    +0.000 C 
ATOM     13  C   UNL     1      48.450   3.631  18.472  0.00  0.00    +0.000 C 
ATOM     14  C   UNL     1      49.914   3.848  18.109  0.00  0.00    +0.000 C 
ATOM     15  C   UNL     1      50.575   4.893  19.009  0.00  0.00    +0.000 C 
BRANCH  13  16
ATOM     16  O   UNL     1      48.339   2.927  19.710  0.00  0.00    +0.000 OA
ATOM     17  H   UNL     1      48.372   3.569  20.439  0.00  0.00    +0.000 HD
ENDBRANCH  13  16
ENDBRANCH   9  10
ENDBRANCH   8   9
ENDBRANCH   5   8
ENDBRANCH   1   2
BRANCH   1  20
ATOM     18  O   UNL     1      48.477   6.948  12.287  0.00  0.00    +0.000 OA
ATOM     19  C   UNL     1      47.386   6.927  12.873  0.00  0.00    +0.000 C 
ATOM     20  N   UNL     1      46.990   7.919  13.721  0.00  0.00    +0.000 N 
ATOM     21  H   UNL     1      46.200   7.770  14.352  0.00  0.00    +0.000 HD
BRANCH  19  22
ATOM     22  C   UNL     1      46.447   5.842  12.664  0.00  0.00    +0.000 A 
ATOM     23  C   UNL     1      46.731   4.532  13.017  0.00  0.00    +0.000 A 
ATOM     24  S   UNL     1      45.410   3.474  12.758  0.00  0.00    +0.000 S 
ATOM     25  C   UNL     1      44.440   4.745  12.166  0.00  0.00    +0.000 A 
ATOM     26  N   UNL     1      43.149   4.541  11.787  0.00  0.00    +0.000 NA
ATOM     27  C   UNL     1      42.541   5.607  11.387  0.00  0.00    +0.000 A 
ATOM     28  N   UNL     1      43.094   6.858  11.316  0.00  0.00    +0.000 N 
ATOM     29  C   UNL     1      44.408   7.097  11.602  0.00  0.00    +0.000 A 
ATOM     30  O   UNL     1      44.916   8.190  11.352  0.00  0.00    +0.000 OA
ATOM     31  C   UNL     1      45.121   5.943  12.127  0.00  0.00    +0.000 A 
ATOM     32  H   UNL     1      42.588   7.638  10.939  0.00  0.00    +0.000 HD
ENDBRANCH  19  22
ENDBRANCH   1  20
TORSDOF 7
ENDMDL
