MODEL 1
REMARK VINA RESULT:    -8.140      0.000      0.000
REMARK INTER + INTRA:         -12.140
REMARK INTER:                 -11.471
REMARK INTRA:                  -0.669
REMARK UNBOUND:                -0.669
REMARK  Name = 
REMARK  9 active torsions:
REMARK  status: ('A' for Active; 'I' for Inactive)
REMARK    1  A    between atoms: C_1  and  C_2
REMARK    2  A    between atoms: C_5  and  N_6
REMARK    3  A    between atoms: N_6  and  C_7
REMARK    4  A    between atoms: C_7  and  C_8
REMARK    5  A    between atoms: C_8  and  C_9
REMARK    6  A    between atoms: C_13  and  N_14
REMARK    7  A    between atoms: N_14  and  C_15
REMARK    8  A    between atoms: N_17  and  C_18
REMARK    9  A    between atoms: C_22  and  C_23
REMARK                            x       y       z     vdW  Elec       q    Type
REMARK                         _______ _______ _______ _____ _____    ______ ____
ROOT
ATOM      1  C   UNL     1      43.569   4.710  10.519  0.00  0.00    +0.000 C 
ENDROOT
BRANCH   1   2
ATOM      2  N   UNL     1      44.050   4.662   9.159  0.00  0.00    +0.000 N 
ATOM      3  H   UNL     1      43.950   5.434   8.516  0.00  0.00    +0.000 HD
BRANCH   2   8
ATOM      4  C   UNL     1      46.943   0.103   7.503  0.00  0.00    +0.000 C 
ATOM      5  C   UNL     1      46.214   1.359   7.866  0.00  0.00    +0.000 A 
ATOM      6  C   UNL     1      45.273   1.343   8.888  0.00  0.00    +0.000 A 
ATOM      7  N   UNL     1      44.551   2.416   9.294  0.00  0.00    +0.000 NA
ATOM      8  C   UNL     1      44.777   3.592   8.691  0.00  0.00    +0.000 A 
ATOM      9  C   UNL     1      45.706   3.705   7.664  0.00  0.00    +0.000 A 
ATOM     10  C   UNL     1      46.415   2.584   7.227  0.00  0.00    +0.000 A 
BRANCH  10  11
ATOM     11  C   UNL     1      47.391   2.742   6.107  0.00  0.00    +0.000 C 
ATOM     12  N   UNL     1      48.716   2.832   6.431  0.00  0.00    +0.000 N 
ATOM     13  O   UNL     1      47.046   2.807   4.935  0.00  0.00    +0.000 OA
ATOM     14  H   UNL     1      49.061   2.989   7.368  0.00  0.00    +0.000 HD
ATOM     15  H   UNL     1      49.351   3.027   5.662  0.00  0.00    +0.000 HD
ENDBRANCH  10  11
ENDBRANCH   2   8
ENDBRANCH   1   2
BRANCH   1  16
ATOM     16  C   UNL     1      43.881   6.008  11.261  0.00  0.00    +0.000 C 
BRANCH  16  17
ATOM     17  C   UNL     1      45.190   5.956  12.033  0.00  0.00    +0.000 A 
ATOM     18  C   UNL     1      46.280   6.704  11.578  0.00  0.00    +0.000 A 
ATOM     19  C   UNL     1      47.496   6.675  12.271  0.00  0.00    +0.000 A 
ATOM     20  C   UNL     1      47.642   5.894  13.424  0.00  0.00    +0.000 A 
ATOM     21  C   UNL     1      46.572   5.148  13.905  0.00  0.00    +0.000 A 
ATOM     22  C   UNL     1      45.361   5.193  13.205  0.00  0.00    +0.000 A 
BRANCH  21  23
ATOM     23  N   UNL     1      46.621   4.354  15.070  0.00  0.00    +0.000 N 
ATOM     24  H   UNL     1      45.688   4.257  15.468  0.00  0.00    +0.000 HD
BRANCH  23  25
ATOM     25  C   UNL     1      47.667   4.350  16.055  0.00  0.00    +0.000 C 
ATOM     26  C   UNL     1      48.062   2.919  16.508  0.00  0.00    +0.000 C 
ATOM     27  N   UNL     1      48.050   3.375  17.920  0.00  0.00    +0.000 NA
ATOM     28  C   UNL     1      49.395   3.792  18.325  0.00  0.00    +0.000 C 
ATOM     29  C   UNL     1      47.232   4.549  17.520  0.00  0.00    +0.000 C 
ENDBRANCH  23  25
ENDBRANCH  21  23
ENDBRANCH  16  17
ENDBRANCH   1  16
TORSDOF 7
ENDMDL
MODEL 2
REMARK VINA RESULT:    -7.341      1.998      3.395
REMARK INTER + INTRA:         -11.013
REMARK INTER:                 -10.155
REMARK INTRA:                  -0.859
REMARK UNBOUND:                -0.669
REMARK  Name = 
REMARK  9 active torsions:
REMARK  status: ('A' for Active; 'I' for Inactive)
REMARK    1  A    between atoms: C_1  and  C_2
REMARK    2  A    between atoms: C_5  and  N_6
REMARK    3  A    between atoms: N_6  and  C_7
REMARK    4  A    between atoms: C_7  and  C_8
REMARK    5  A    between atoms: C_8  and  C_9
REMARK    6  A    between atoms: C_13  and  N_14
REMARK    7  A    between atoms: N_14  and  C_15
REMARK    8  A    between atoms: N_17  and  C_18
REMARK    9  A    between atoms: C_22  and  C_23
REMARK                            x       y       z     vdW  Elec       q    Type
REMARK                         _______ _______ _______ _____ _____    ______ ____
ROOT
ATOM      1  C   UNL     1      43.484   4.672  10.383  0.00  0.00    +0.000 C 
ENDROOT
BRANCH   1   2
ATOM      2  N   UNL     1      44.240   4.726   9.155  0.00  0.00    +0.000 N 
ATOM      3  H   UNL     1      44.377   5.582   8.635  0.00  0.00    +0.000 HD
BRANCH   2   8
ATOM      4  C   UNL     1      46.920   0.053   7.461  0.00  0.00    +0.000 C 
ATOM      5  C   UNL     1      46.249   1.338   7.834  0.00  0.00    +0.000 A 
ATOM      6  C   UNL     1      45.319   1.360   8.866  0.00  0.00    +0.000 A 
ATOM      7  N   UNL     1      44.647   2.461   9.281  0.00  0.00    +0.000 NA
ATOM      8  C   UNL     1      44.916   3.628   8.677  0.00  0.00    +0.000 A 
ATOM      9  C   UNL     1      45.838   3.704   7.641  0.00  0.00    +0.000 A 
ATOM     10  C   UNL     1      46.495   2.555   7.194  0.00  0.00    +0.000 A 
BRANCH  10  11
ATOM     11  C   UNL     1      47.464   2.674   6.064  0.00  0.00    +0.000 C 
ATOM     12  N   UNL     1      48.788   2.806   6.377  0.00  0.00    +0.000 N 
ATOM     13  O   UNL     1      47.114   2.672   4.892  0.00  0.00    +0.000 OA
ATOM     14  H   UNL     1      49.133   3.017   7.304  0.00  0.00    +0.000 HD
ATOM     15  H   UNL     1      49.417   2.973   5.597  0.00  0.00    +0.000 HD
ENDBRANCH  10  11
ENDBRANCH   2   8
ENDBRANCH   1   2
BRANCH   1  16
ATOM     16  C   UNL     1      43.819   5.772  11.388  0.00  0.00    +0.000 C 
BRANCH  16  17
ATOM     17  C   UNL     1      45.010   5.435  12.272  0.00  0.00    +0.000 A 
ATOM     18  C   UNL     1      45.320   4.094  12.515  0.00  0.00    +0.000 A 
ATOM     19  C   UNL     1      46.412   3.756  13.324  0.00  0.00    +0.000 A 
ATOM     20  C   UNL     1      47.205   4.753  13.906  0.00  0.00    +0.000 A 
ATOM     21  C   UNL     1      46.926   6.095  13.672  0.00  0.00    +0.000 A 
ATOM     22  C   UNL     1      45.834   6.416  12.856  0.00  0.00    +0.000 A 
BRANCH  21  23
ATOM     23  N   UNL     1      47.684   7.164  14.195  0.00  0.00    +0.000 N 
ATOM     24  H   UNL     1      47.076   7.817  14.688  0.00  0.00    +0.000 HD
BRANCH  23  25
ATOM     25  C   UNL     1      48.813   7.794  13.569  0.00  0.00    +0.000 C 
ATOM     26  C   UNL     1      48.441   9.115  12.844  0.00  0.00    +0.000 C 
ATOM     27  N   UNL     1      49.249   8.687  11.675  0.00  0.00    +0.000 NA
ATOM     28  C   UNL     1      50.610   9.219  11.783  0.00  0.00    +0.000 C 
ATOM     29  C   UNL     1      49.190   7.286  12.163  0.00  0.00    +0.000 C 
ENDBRANCH  23  25
ENDBRANCH  21  23
ENDBRANCH  16  17
ENDBRANCH   1  16
TORSDOF 7
ENDMDL
MODEL 3
REMARK VINA RESULT:    -6.773      3.011      8.547
REMARK INTER + INTRA:         -10.214
REMARK INTER:                  -9.522
REMARK INTRA:                  -0.691
REMARK UNBOUND:                -0.669
REMARK  Name = 
REMARK  9 active torsions:
REMARK  status: ('A' for Active; 'I' for Inactive)
REMARK    1  A    between atoms: C_1  and  C_2
REMARK    2  A    between atoms: C_5  and  N_6
REMARK    3  A    between atoms: N_6  and  C_7
REMARK    4  A    between atoms: C_7  and  C_8
REMARK    5  A    between atoms: C_8  and  C_9
REMARK    6  A    between atoms: C_13  and  N_14
REMARK    7  A    between atoms: N_14  and  C_15
REMARK    8  A    between atoms: N_17  and  C_18
REMARK    9  A    between atoms: C_22  and  C_23
REMARK                            x       y       z     vdW  Elec       q    Type
REMARK                         _______ _______ _______ _____ _____    ______ ____
ROOT
ATOM      1  C   UNL     1      47.966   6.463  12.776  0.00  0.00    +0.000 C 
ENDROOT
BRANCH   1   2
ATOM      2  N   UNL     1      48.308   7.214  13.961  0.00  0.00    +0.000 N 
ATOM      3  H   UNL     1      48.416   8.218  13.959  0.00  0.00    +0.000 HD
BRANCH   2   8
ATOM      4  C   UNL     1      48.885   4.983  19.116  0.00  0.00    +0.000 C 
ATOM      5  C   UNL     1      48.682   5.495  17.724  0.00  0.00    +0.000 A 
ATOM      6  C   UNL     1      49.066   6.789  17.400  0.00  0.00    +0.000 A 
ATOM      7  N   UNL     1      48.922   7.357  16.177  0.00  0.00    +0.000 NA
ATOM      8  C   UNL     1      48.400   6.611  15.193  0.00  0.00    +0.000 A 
ATOM      9  C   UNL     1      47.995   5.302  15.423  0.00  0.00    +0.000 A 
ATOM     10  C   UNL     1      48.110   4.740  16.697  0.00  0.00    +0.000 A 
BRANCH  10  11
ATOM     11  C   UNL     1      47.646   3.337  16.910  0.00  0.00    +0.000 C 
ATOM     12  N   UNL     1      48.522   2.329  16.617  0.00  0.00    +0.000 N 
ATOM     13  O   UNL     1      46.523   3.068  17.314  0.00  0.00    +0.000 OA
ATOM     14  H   UNL     1      49.379   2.457  16.096  0.00  0.00    +0.000 HD
ATOM     15  H   UNL     1      48.155   1.385  16.685  0.00  0.00    +0.000 HD
ENDBRANCH  10  11
ENDBRANCH   2   8
ENDBRANCH   1   2
BRANCH   1  16
ATOM     16  C   UNL     1      46.626   6.840  12.147  0.00  0.00    +0.000 C 
BRANCH  16  17
ATOM     17  C   UNL     1      45.813   5.635  11.701  0.00  0.00    +0.000 A 
ATOM     18  C   UNL     1      45.369   4.720  12.660  0.00  0.00    +0.000 A 
ATOM     19  C   UNL     1      44.618   3.602  12.277  0.00  0.00    +0.000 A 
ATOM     20  C   UNL     1      44.305   3.381  10.930  0.00  0.00    +0.000 A 
ATOM     21  C   UNL     1      44.724   4.280   9.956  0.00  0.00    +0.000 A 
ATOM     22  C   UNL     1      45.469   5.396  10.357  0.00  0.00    +0.000 A 
BRANCH  21  23
ATOM     23  N   UNL     1      44.435   4.151   8.581  0.00  0.00    +0.000 N 
ATOM     24  H   UNL     1      43.427   4.159   8.432  0.00  0.00    +0.000 HD
BRANCH  23  25
ATOM     25  C   UNL     1      45.147   3.339   7.634  0.00  0.00    +0.000 C 
ATOM     26  C   UNL     1      45.907   2.161   8.300  0.00  0.00    +0.000 C 
ATOM     27  N   UNL     1      47.098   2.477   7.474  0.00  0.00    +0.000 NA
ATOM     28  C   UNL     1      47.086   1.675   6.248  0.00  0.00    +0.000 C 
ATOM     29  C   UNL     1      46.548   3.834   7.222  0.00  0.00    +0.000 C 
ENDBRANCH  23  25
ENDBRANCH  21  23
ENDBRANCH  16  17
ENDBRANCH   1  16
TORSDOF 7
ENDMDL
MODEL 4
REMARK VINA RESULT:    -6.731      3.416      7.823
REMARK INTER + INTRA:         -10.154
REMARK INTER:                  -9.299
REMARK INTRA:                  -0.856
REMARK UNBOUND:                -0.669
REMARK  Name = 
REMARK  9 active torsions:
REMARK  status: ('A' for Active; 'I' for Inactive)
REMARK    1  A    between atoms: C_1  and  C_2
REMARK    2  A    between atoms: C_5  and  N_6
REMARK    3  A    between atoms: N_6  and  C_7
REMARK    4  A    between atoms: C_7  and  C_8
REMARK    5  A    between atoms: C_8  and  C_9
REMARK    6  A    between atoms: C_13  and  N_14
REMARK    7  A    between atoms: N_14  and  C_15
REMARK    8  A    between atoms: N_17  and  C_18
REMARK    9  A    between atoms: C_22  and  C_23
REMARK                            x       y       z     vdW  Elec       q    Type
REMARK                         _______ _______ _______ _____ _____    ______ ____
ROOT
ATOM      1  C   UNL     1      47.316   5.876  13.473  0.00  0.00    +0.000 C 
ENDROOT
BRANCH   1   2
ATOM      2  N   UNL     1      46.960   6.455  12.200  0.00  0.00    +0.000 N 
ATOM      3  H   UNL     1      46.782   5.897  11.376  0.00  0.00    +0.000 HD
BRANCH   2   8
ATOM      4  C   UNL     1      46.319  12.050  11.782  0.00  0.00    +0.000 C 
ATOM      5  C   UNL     1      46.400  10.557  11.856  0.00  0.00    +0.000 A 
ATOM      6  C   UNL     1      47.599   9.944  12.196  0.00  0.00    +0.000 A 
ATOM      7  N   UNL     1      47.787   8.605  12.285  0.00  0.00    +0.000 NA
ATOM      8  C   UNL     1      46.734   7.804  12.062  0.00  0.00    +0.000 A 
ATOM      9  C   UNL     1      45.493   8.329  11.725  0.00  0.00    +0.000 A 
ATOM     10  C   UNL     1      45.321   9.710  11.596  0.00  0.00    +0.000 A 
BRANCH  10  11
ATOM     11  C   UNL     1      43.976  10.234  11.213  0.00  0.00    +0.000 C 
ATOM     12  N   UNL     1      43.125  10.590  12.222  0.00  0.00    +0.000 N 
ATOM     13  O   UNL     1      43.616  10.338  10.049  0.00  0.00    +0.000 OA
ATOM     14  H   UNL     1      43.266  10.348  13.194  0.00  0.00    +0.000 HD
ATOM     15  H   UNL     1      42.187  10.860  11.940  0.00  0.00    +0.000 HD
ENDBRANCH  10  11
ENDBRANCH   2   8
ENDBRANCH   1   2
BRANCH   1  16
ATOM     16  C   UNL     1      46.471   4.672  13.885  0.00  0.00    +0.000 C 
BRANCH  16  17
ATOM     17  C   UNL     1      45.274   4.441  12.978  0.00  0.00    +0.000 A 
ATOM     18  C   UNL     1      44.115   5.199  13.172  0.00  0.00    +0.000 A 
ATOM     19  C   UNL     1      42.998   5.007  12.350  0.00  0.00    +0.000 A 
ATOM     20  C   UNL     1      43.021   4.051  11.327  0.00  0.00    +0.000 A 
ATOM     21  C   UNL     1      44.163   3.290  11.104  0.00  0.00    +0.000 A 
ATOM     22  C   UNL     1      45.274   3.499  11.931  0.00  0.00    +0.000 A 
BRANCH  21  23
ATOM     23  N   UNL     1      44.285   2.324  10.083  0.00  0.00    +0.000 N 
ATOM     24  H   UNL     1      44.631   1.447  10.469  0.00  0.00    +0.000 HD
BRANCH  23  25
ATOM     25  C   UNL     1      44.708   2.562   8.731  0.00  0.00    +0.000 C 
ATOM     26  C   UNL     1      46.063   1.885   8.396  0.00  0.00    +0.000 C 
ATOM     27  N   UNL     1      46.514   3.137   7.740  0.00  0.00    +0.000 NA
ATOM     28  C   UNL     1      46.221   3.087   6.306  0.00  0.00    +0.000 C 
ATOM     29  C   UNL     1      45.456   3.884   8.469  0.00  0.00    +0.000 C 
ENDBRANCH  23  25
ENDBRANCH  21  23
ENDBRANCH  16  17
ENDBRANCH   1  16
TORSDOF 7
ENDMDL
MODEL 5
REMARK VINA RESULT:    -6.704      3.597      9.484
REMARK INTER + INTRA:         -10.117
REMARK INTER:                  -9.517
REMARK INTRA:                  -0.599
REMARK UNBOUND:                -0.669
REMARK  Name = 
REMARK  9 active torsions:
REMARK  status: ('A' for Active; 'I' for Inactive)
REMARK    1  A    between atoms: C_1  and  C_2
REMARK    2  A    between atoms: C_5  and  N_6
REMARK    3  A    between atoms: N_6  and  C_7
REMARK    4  A    between atoms: C_7  and  C_8
REMARK    5  A    between atoms: C_8  and  C_9
REMARK    6  A    between atoms: C_13  and  N_14
REMARK    7  A    between atoms: N_14  and  C_15
REMARK    8  A    between atoms: N_17  and  C_18
REMARK    9  A    between atoms: C_22  and  C_23
REMARK                            x       y       z     vdW  Elec       q    Type
REMARK                         _______ _______ _______ _____ _____    ______ ____
ROOT
ATOM      1  C   UNL     1      47.057   4.007  14.529  0.00  0.00    +0.000 C 
ENDROOT
BRANCH   1   2
ATOM      2  N   UNL     1      46.729   3.903  15.931  0.00  0.00    +0.000 N 
ATOM      3  H   UNL     1      45.867   3.493  16.262  0.00  0.00    +0.000 HD
BRANCH   2   8
ATOM      4  C   UNL     1      50.641   5.178  19.800  0.00  0.00    +0.000 C 
ATOM      5  C   UNL     1      49.540   4.891  18.826  0.00  0.00    +0.000 A 
ATOM      6  C   UNL     1      49.824   4.246  17.630  0.00  0.00    +0.000 A 
ATOM      7  N   UNL     1      48.910   3.945  16.675  0.00  0.00    +0.000 NA
ATOM      8  C   UNL     1      47.628   4.261  16.908  0.00  0.00    +0.000 A 
ATOM      9  C   UNL     1      47.249   4.901  18.082  0.00  0.00    +0.000 A 
ATOM     10  C   UNL     1      48.206   5.243  19.040  0.00  0.00    +0.000 A 
BRANCH  10  11
ATOM     11  C   UNL     1      47.761   5.948  20.280  0.00  0.00    +0.000 C 
ATOM     12  N   UNL     1      47.277   5.182  21.304  0.00  0.00    +0.000 N 
ATOM     13  O   UNL     1      47.803   7.165  20.398  0.00  0.00    +0.000 OA
ATOM     14  H   UNL     1      47.023   4.208  21.212  0.00  0.00    +0.000 HD
ATOM     15  H   UNL     1      46.900   5.688  22.100  0.00  0.00    +0.000 HD
ENDBRANCH  10  11
ENDBRANCH   2   8
ENDBRANCH   1   2
BRANCH   1  16
ATOM     16  C   UNL     1      46.441   5.209  13.816  0.00  0.00    +0.000 C 
BRANCH  16  17
ATOM     17  C   UNL     1      45.286   4.836  12.901  0.00  0.00    +0.000 A 
ATOM     18  C   UNL     1      44.086   5.548  12.993  0.00  0.00    +0.000 A 
ATOM     19  C   UNL     1      43.007   5.225  12.161  0.00  0.00    +0.000 A 
ATOM     20  C   UNL     1      43.110   4.184  11.231  0.00  0.00    +0.000 A 
ATOM     21  C   UNL     1      44.294   3.466  11.111  0.00  0.00    +0.000 A 
ATOM     22  C   UNL     1      45.366   3.805  11.945  0.00  0.00    +0.000 A 
BRANCH  21  23
ATOM     23  N   UNL     1      44.495   2.419  10.186  0.00  0.00    +0.000 N 
ATOM     24  H   UNL     1      44.976   1.641  10.636  0.00  0.00    +0.000 HD
BRANCH  23  25
ATOM     25  C   UNL     1      44.816   2.563   8.793  0.00  0.00    +0.000 C 
ATOM     26  C   UNL     1      46.096   1.786   8.386  0.00  0.00    +0.000 C 
ATOM     27  N   UNL     1      46.562   2.974   7.629  0.00  0.00    +0.000 NA
ATOM     28  C   UNL     1      46.147   2.872   6.227  0.00  0.00    +0.000 C 
ATOM     29  C   UNL     1      45.616   3.821   8.399  0.00  0.00    +0.000 C 
ENDBRANCH  23  25
ENDBRANCH  21  23
ENDBRANCH  16  17
ENDBRANCH   1  16
TORSDOF 7
ENDMDL
MODEL 6
REMARK VINA RESULT:    -6.626      3.105      8.943
REMARK INTER + INTRA:         -10.007
REMARK INTER:                  -9.465
REMARK INTRA:                  -0.542
REMARK UNBOUND:                -0.669
REMARK  Name = 
REMARK  9 active torsions:
REMARK  status: ('A' for Active; 'I' for Inactive)
REMARK    1  A    between atoms: C_1  and  C_2
REMARK    2  A    between atoms: C_5  and  N_6
REMARK    3  A    between atoms: N_6  and  C_7
REMARK    4  A    between atoms: C_7  and  C_8
REMARK    5  A    between atoms: C_8  and  C_9
REMARK    6  A    between atoms: C_13  and  N_14
REMARK    7  A    between atoms: N_14  and  C_15
REMARK    8  A    between atoms: N_17  and  C_18
REMARK    9  A    between atoms: C_22  and  C_23
REMARK                            x       y       z     vdW  Elec       q    Type
REMARK                         _______ _______ _______ _____ _____    ______ ____
ROOT
ATOM      1  C   UNL     1      47.145   4.186  14.298  0.00  0.00    +0.000 C 
ENDROOT
BRANCH   1   2
ATOM      2  N   UNL     1      46.747   3.808  15.633  0.00  0.00    +0.000 N 
ATOM      3  H   UNL     1      45.898   3.296  15.827  0.00  0.00    +0.000 HD
BRANCH   2   8
ATOM      4  C   UNL     1      49.870   4.918  20.206  0.00  0.00    +0.000 C 
ATOM      5  C   UNL     1      49.117   4.575  18.958  0.00  0.00    +0.000 A 
ATOM      6  C   UNL     1      47.768   4.886  18.854  0.00  0.00    +0.000 A 
ATOM      7  N   UNL     1      46.990   4.615  17.778  0.00  0.00    +0.000 NA
ATOM      8  C   UNL     1      47.564   4.030  16.717  0.00  0.00    +0.000 A 
ATOM      9  C   UNL     1      48.912   3.690  16.727  0.00  0.00    +0.000 A 
ATOM     10  C   UNL     1      49.694   3.938  17.857  0.00  0.00    +0.000 A 
BRANCH  10  11
ATOM     11  C   UNL     1      51.134   3.540  17.836  0.00  0.00    +0.000 C 
ATOM     12  N   UNL     1      51.436   2.241  18.139  0.00  0.00    +0.000 N 
ATOM     13  O   UNL     1      52.032   4.328  17.577  0.00  0.00    +0.000 OA
ATOM     14  H   UNL     1      50.783   1.590  18.555  0.00  0.00    +0.000 HD
ATOM     15  H   UNL     1      52.424   2.017  18.205  0.00  0.00    +0.000 HD
ENDBRANCH  10  11
ENDBRANCH   2   8
ENDBRANCH   1   2
BRANCH   1  16
ATOM     16  C   UNL     1      46.362   5.357  13.707  0.00  0.00    +0.000 C 
BRANCH  16  17
ATOM     17  C   UNL     1      45.183   4.918  12.851  0.00  0.00    +0.000 A 
ATOM     18  C   UNL     1      43.951   5.559  13.009  0.00  0.00    +0.000 A 
ATOM     19  C   UNL     1      42.850   5.175  12.234  0.00  0.00    +0.000 A 
ATOM     20  C   UNL     1      42.964   4.143  11.295  0.00  0.00    +0.000 A 
ATOM     21  C   UNL     1      44.180   3.495  11.110  0.00  0.00    +0.000 A 
ATOM     22  C   UNL     1      45.273   3.895  11.888  0.00  0.00    +0.000 A 
BRANCH  21  23
ATOM     23  N   UNL     1      44.393   2.462  10.171  0.00  0.00    +0.000 N 
ATOM     24  H   UNL     1      44.847   1.668  10.620  0.00  0.00    +0.000 HD
BRANCH  23  25
ATOM     25  C   UNL     1      44.758   2.628   8.792  0.00  0.00    +0.000 C 
ATOM     26  C   UNL     1      46.070   1.884   8.423  0.00  0.00    +0.000 C 
ATOM     27  N   UNL     1      46.534   3.090   7.694  0.00  0.00    +0.000 NA
ATOM     28  C   UNL     1      46.171   2.992   6.278  0.00  0.00    +0.000 C 
ATOM     29  C   UNL     1      45.542   3.907   8.438  0.00  0.00    +0.000 C 
ENDBRANCH  23  25
ENDBRANCH  21  23
ENDBRANCH  16  17
ENDBRANCH   1  16
TORSDOF 7
ENDMDL
MODEL 7
REMARK VINA RESULT:    -6.539      4.040      8.170
REMARK INTER + INTRA:          -9.884
REMARK INTER:                  -8.779
REMARK INTRA:                  -1.105
REMARK UNBOUND:                -0.669
REMARK  Name = 
REMARK  9 active torsions:
REMARK  status: ('A' for Active; 'I' for Inactive)
REMARK    1  A    between atoms: C_1  and  C_2
REMARK    2  A    between atoms: C_5  and  N_6
REMARK    3  A    between atoms: N_6  and  C_7
REMARK    4  A    between atoms: C_7  and  C_8
REMARK    5  A    between atoms: C_8  and  C_9
REMARK    6  A    between atoms: C_13  and  N_14
REMARK    7  A    between atoms: N_14  and  C_15
REMARK    8  A    between atoms: N_17  and  C_18
REMARK    9  A    between atoms: C_22  and  C_23
REMARK                            x       y       z     vdW  Elec       q    Type
REMARK                         _______ _______ _______ _____ _____    ______ ____
ROOT
ATOM      1  C   UNL     1      49.602   8.242  16.402  0.00  0.00    +0.000 C 
ENDROOT
BRANCH   1   2
ATOM      2  N   UNL     1      50.037   7.458  17.533  0.00  0.00    +0.000 N 
ATOM      3  H   UNL     1      50.248   7.866  18.433  0.00  0.00    +0.000 HD
BRANCH   2   8
ATOM      4  C   UNL     1      50.561   1.838  17.342  0.00  0.00    +0.000 C 
ATOM      5  C   UNL     1      50.327   3.316  17.375  0.00  0.00    +0.000 A 
ATOM      6  C   UNL     1      51.353   4.171  17.758  0.00  0.00    +0.000 A 
ATOM      7  N   UNL     1      51.250   5.521  17.831  0.00  0.00    +0.000 NA
ATOM      8  C   UNL     1      50.085   6.084  17.480  0.00  0.00    +0.000 A 
ATOM      9  C   UNL     1      49.006   5.308  17.076  0.00  0.00    +0.000 A 
ATOM     10  C   UNL     1      49.110   3.916  17.043  0.00  0.00    +0.000 A 
BRANCH  10  11
ATOM     11  C   UNL     1      47.922   3.115  16.621  0.00  0.00    +0.000 C 
ATOM     12  N   UNL     1      46.995   2.807  17.578  0.00  0.00    +0.000 N 
ATOM     13  O   UNL     1      47.765   2.722  15.474  0.00  0.00    +0.000 OA
ATOM     14  H   UNL     1      47.148   2.916  18.572  0.00  0.00    +0.000 HD
ATOM     15  H   UNL     1      46.243   2.189  17.288  0.00  0.00    +0.000 HD
ENDBRANCH  10  11
ENDBRANCH   2   8
ENDBRANCH   1   2
BRANCH   1  16
ATOM     16  C   UNL     1      50.318   7.924  15.091  0.00  0.00    +0.000 C 
BRANCH  16  17
ATOM     17  C   UNL     1      49.366   7.655  13.937  0.00  0.00    +0.000 A 
ATOM     18  C   UNL     1      49.758   7.987  12.638  0.00  0.00    +0.000 A 
ATOM     19  C   UNL     1      48.900   7.749  11.557  0.00  0.00    +0.000 A 
ATOM     20  C   UNL     1      47.637   7.182  11.761  0.00  0.00    +0.000 A 
ATOM     21  C   UNL     1      47.224   6.831  13.041  0.00  0.00    +0.000 A 
ATOM     22  C   UNL     1      48.096   7.070  14.110  0.00  0.00    +0.000 A 
BRANCH  21  23
ATOM     23  N   UNL     1      45.981   6.233  13.337  0.00  0.00    +0.000 N 
ATOM     24  H   UNL     1      45.903   6.061  14.338  0.00  0.00    +0.000 HD
BRANCH  23  25
ATOM     25  C   UNL     1      45.291   5.262  12.534  0.00  0.00    +0.000 C 
ATOM     26  C   UNL     1      43.860   4.957  13.053  0.00  0.00    +0.000 C 
ATOM     27  N   UNL     1      44.117   3.507  12.873  0.00  0.00    +0.000 NA
ATOM     28  C   UNL     1      43.647   3.073  11.555  0.00  0.00    +0.000 C 
ATOM     29  C   UNL     1      45.576   3.781  12.850  0.00  0.00    +0.000 C 
ENDBRANCH  23  25
ENDBRANCH  21  23
ENDBRANCH  16  17
ENDBRANCH   1  16
TORSDOF 7
ENDMDL
MODEL 8
REMARK VINA RESULT:    -6.351      4.201      8.345
REMARK INTER + INTRA:          -9.619
REMARK INTER:                  -8.650
REMARK INTRA:                  -0.969
REMARK UNBOUND:                -0.669
REMARK  Name = 
REMARK  9 active torsions:
REMARK  status: ('A' for Active; 'I' for Inactive)
REMARK    1  A    between atoms: C_1  and  C_2
REMARK    2  A    between atoms: C_5  and  N_6
REMARK    3  A    between atoms: N_6  and  C_7
REMARK    4  A    between atoms: C_7  and  C_8
REMARK    5  A    between atoms: C_8  and  C_9
REMARK    6  A    between atoms: C_13  and  N_14
REMARK    7  A    between atoms: N_14  and  C_15
REMARK    8  A    between atoms: N_17  and  C_18
REMARK    9  A    between atoms: C_22  and  C_23
REMARK                            x       y       z     vdW  Elec       q    Type
REMARK                         _______ _______ _______ _____ _____    ______ ____
ROOT
ATOM      1  C   UNL     1      49.996   7.659  14.306  0.00  0.00    +0.000 C 
ENDROOT
BRANCH   1   2
ATOM      2  N   UNL     1      49.018   7.827  15.355  0.00  0.00    +0.000 N 
ATOM      3  H   UNL     1      48.320   8.557  15.339  0.00  0.00    +0.000 HD
BRANCH   2   8
ATOM      4  C   UNL     1      48.782   4.321  19.776  0.00  0.00    +0.000 C 
ATOM      5  C   UNL     1      48.791   5.187  18.554  0.00  0.00    +0.000 A 
ATOM      6  C   UNL     1      49.322   6.468  18.617  0.00  0.00    +0.000 A 
ATOM      7  N   UNL     1      49.374   7.338  17.579  0.00  0.00    +0.000 NA
ATOM      8  C   UNL     1      48.911   6.927  16.389  0.00  0.00    +0.000 A 
ATOM      9  C   UNL     1      48.370   5.657  16.230  0.00  0.00    +0.000 A 
ATOM     10  C   UNL     1      48.283   4.785  17.317  0.00  0.00    +0.000 A 
BRANCH  10  11
ATOM     11  C   UNL     1      47.677   3.435  17.110  0.00  0.00    +0.000 C 
ATOM     12  N   UNL     1      48.491   2.441  16.643  0.00  0.00    +0.000 N 
ATOM     13  O   UNL     1      46.496   3.203  17.326  0.00  0.00    +0.000 OA
ATOM     14  H   UNL     1      49.411   2.598  16.254  0.00  0.00    +0.000 HD
ATOM     15  H   UNL     1      48.038   1.558  16.427  0.00  0.00    +0.000 HD
ENDBRANCH  10  11
ENDBRANCH   2   8
ENDBRANCH   1   2
BRANCH   1  16
ATOM     16  C   UNL     1      49.412   7.313  12.938  0.00  0.00    +0.000 C 
BRANCH  16  17
ATOM     17  C   UNL     1      48.053   7.947  12.689  0.00  0.00    +0.000 A 
ATOM     18  C   UNL     1      47.986   9.296  12.328  0.00  0.00    +0.000 A 
ATOM     19  C   UNL     1      46.748   9.905  12.092  0.00  0.00    +0.000 A 
ATOM     20  C   UNL     1      45.559   9.176  12.218  0.00  0.00    +0.000 A 
ATOM     21  C   UNL     1      45.596   7.830  12.566  0.00  0.00    +0.000 A 
ATOM     22  C   UNL     1      46.843   7.235  12.792  0.00  0.00    +0.000 A 
BRANCH  21  23
ATOM     23  N   UNL     1      44.452   7.013  12.692  0.00  0.00    +0.000 N 
ATOM     24  H   UNL     1      43.895   7.309  13.492  0.00  0.00    +0.000 HD
BRANCH  23  25
ATOM     25  C   UNL     1      44.382   5.601  12.435  0.00  0.00    +0.000 C 
ATOM     26  C   UNL     1      43.759   5.270  11.053  0.00  0.00    +0.000 C 
ATOM     27  N   UNL     1      42.927   4.221  11.692  0.00  0.00    +0.000 NA
ATOM     28  C   UNL     1      43.605   2.924  11.611  0.00  0.00    +0.000 C 
ATOM     29  C   UNL     1      43.162   4.858  13.013  0.00  0.00    +0.000 C 
ENDBRANCH  23  25
ENDBRANCH  21  23
ENDBRANCH  16  17
ENDBRANCH   1  16
TORSDOF 7
ENDMDL
MODEL 9
REMARK VINA RESULT:    -6.307      4.453      8.152
REMARK INTER + INTRA:          -9.557
REMARK INTER:                  -8.745
REMARK INTRA:                  -0.812
REMARK UNBOUND:                -0.669
REMARK  Name = 
REMARK  9 active torsions:
REMARK  status: ('A' for Active; 'I' for Inactive)
REMARK    1  A    between atoms: C_1  and  C_2
REMARK    2  A    between atoms: C_5  and  N_6
REMARK    3  A    between atoms: N_6  and  C_7
REMARK    4  A    between atoms: C_7  and  C_8
REMARK    5  A    between atoms: C_8  and  C_9
REMARK    6  A    between atoms: C_13  and  N_14
REMARK    7  A    between atoms: N_14  and  C_15
REMARK    8  A    between atoms: N_17  and  C_18
REMARK    9  A    between atoms: C_22  and  C_23
REMARK                            x       y       z     vdW  Elec       q    Type
REMARK                         _______ _______ _______ _____ _____    ______ ____
ROOT
ATOM      1  C   UNL     1      48.852   6.855  13.016  0.00  0.00    +0.000 C 
ENDROOT
BRANCH   1   2
ATOM      2  N   UNL     1      48.719   7.062  14.438  0.00  0.00    +0.000 N 
ATOM      3  H   UNL     1      48.774   7.976  14.866  0.00  0.00    +0.000 HD
BRANCH   2   8
ATOM      4  C   UNL     1      47.166   2.734  17.717  0.00  0.00    +0.000 C 
ATOM      5  C   UNL     1      47.639   3.909  16.918  0.00  0.00    +0.000 A 
ATOM      6  C   UNL     1      47.229   4.060  15.600  0.00  0.00    +0.000 A 
ATOM      7  N   UNL     1      47.601   5.076  14.784  0.00  0.00    +0.000 NA
ATOM      8  C   UNL     1      48.398   6.029  15.288  0.00  0.00    +0.000 A 
ATOM      9  C   UNL     1      48.850   5.966  16.601  0.00  0.00    +0.000 A 
ATOM     10  C   UNL     1      48.494   4.892  17.420  0.00  0.00    +0.000 A 
BRANCH  10  11
ATOM     11  C   UNL     1      49.016   4.850  18.819  0.00  0.00    +0.000 C 
ATOM     12  N   UNL     1      50.189   4.183  19.036  0.00  0.00    +0.000 N 
ATOM     13  O   UNL     1      48.429   5.370  19.757  0.00  0.00    +0.000 OA
ATOM     14  H   UNL     1      50.623   3.565  18.363  0.00  0.00    +0.000 HD
ATOM     15  H   UNL     1      50.478   4.092  20.006  0.00  0.00    +0.000 HD
ENDBRANCH  10  11
ENDBRANCH   2   8
ENDBRANCH   1   2
BRANCH   1  16
ATOM     16  C   UNL     1      48.735   8.123  12.173  0.00  0.00    +0.000 C 
BRANCH  16  17
ATOM     17  C   UNL     1      47.301   8.598  12.000  0.00  0.00    +0.000 A 
ATOM     18  C   UNL     1      47.029   9.969  12.021  0.00  0.00    +0.000 A 
ATOM     19  C   UNL     1      45.718  10.433  11.864  0.00  0.00    +0.000 A 
ATOM     20  C   UNL     1      44.659   9.533  11.689  0.00  0.00    +0.000 A 
ATOM     21  C   UNL     1      44.901   8.164  11.654  0.00  0.00    +0.000 A 
ATOM     22  C   UNL     1      46.219   7.717  11.807  0.00  0.00    +0.000 A 
BRANCH  21  23
ATOM     23  N   UNL     1      43.902   7.188  11.458  0.00  0.00    +0.000 N 
ATOM     24  H   UNL     1      42.983   7.579  11.663  0.00  0.00    +0.000 HD
BRANCH  23  25
ATOM     25  C   UNL     1      44.009   5.787  11.760  0.00  0.00    +0.000 C 
ATOM     26  C   UNL     1      43.673   4.881  10.546  0.00  0.00    +0.000 C 
ATOM     27  N   UNL     1      42.842   4.026  11.428  0.00  0.00    +0.000 NA
ATOM     28  C   UNL     1      43.640   2.910  11.943  0.00  0.00    +0.000 C 
ATOM     29  C   UNL     1      42.780   5.131  12.419  0.00  0.00    +0.000 C 
ENDBRANCH  23  25
ENDBRANCH  21  23
ENDBRANCH  16  17
ENDBRANCH   1  16
TORSDOF 7
ENDMDL
