MODEL 1
REMARK VINA RESULT:    -7.044      0.000      0.000
REMARK INTER + INTRA:         -11.448
REMARK INTER:                  -9.926
REMARK INTRA:                  -1.522
REMARK UNBOUND:                -1.522
REMARK  Name = 
REMARK  8 active torsions:
REMARK  status: ('A' for Active; 'I' for Inactive)
REMARK    1  A    between atoms: C_1  and  N_2
REMARK    2  A    between atoms: N_2  and  C_3
REMARK    3  A    between atoms: N_2  and  C_24
REMARK    4  A    between atoms: C_3  and  C_4
REMARK    5  A    between atoms: C_7  and  C_8
REMARK    6  A    between atoms: C_8  and  N_9
REMARK    7  A    between atoms: C_10  and  C_12
REMARK    8  A    between atoms: C_24  and  C_25
REMARK                            x       y       z     vdW  Elec       q    Type
REMARK                         _______ _______ _______ _____ _____    ______ ____
ROOT
ATOM      1  C   UNL     1      48.953   7.888  16.181  0.00  0.00    +0.000 A 
ATOM      2  C   UNL     1      48.231   8.937  15.600  0.00  0.00    +0.000 A 
ATOM      3  C   UNL     1      48.019   8.961  14.226  0.00  0.00    +0.000 A 
ATOM      4  C   UNL     1      48.562   7.946  13.446  0.00  0.00    +0.000 A 
ATOM      5  N   UNL     1      49.241   6.899  13.985  0.00  0.00    +0.000 NA
ATOM      6  C   UNL     1      49.407   6.889  15.330  0.00  0.00    +0.000 A 
ENDROOT
BRANCH   1   7
ATOM      7  C   UNL     1      49.208   7.835  17.670  0.00  0.00    +0.000 C 
BRANCH   7   9
ATOM      8  C   UNL     1      47.582   8.217  19.441  0.00  0.00    +0.000 C 
ATOM      9  N   UNL     1      48.101   7.256  18.456  0.00  0.00    +0.000 NA
BRANCH   9  10
ATOM     10  C   UNL     1      48.561   6.030  19.153  0.00  0.00    +0.000 C 
BRANCH  10  11
ATOM     11  C   UNL     1      48.598   4.818  18.247  0.00  0.00    +0.000 A 
ATOM     12  C   UNL     1      47.401   4.201  17.855  0.00  0.00    +0.000 A 
ATOM     13  C   UNL     1      47.430   3.042  17.083  0.00  0.00    +0.000 A 
ATOM     14  C   UNL     1      48.662   2.534  16.713  0.00  0.00    +0.000 A 
ATOM     15  N   UNL     1      49.837   3.099  17.052  0.00  0.00    +0.000 NA
ATOM     16  C   UNL     1      49.778   4.222  17.807  0.00  0.00    +0.000 A 
ATOM     17 CL   UNL     1      51.344   4.817  18.202  0.00  0.00    +0.000 Cl
ENDBRANCH  10  11
ENDBRANCH   9  10
ENDBRANCH   7   9
ENDBRANCH   1   7
BRANCH   4  18
ATOM     18  C   UNL     1      48.406   7.984  11.947  0.00  0.00    +0.000 C 
BRANCH  18  19
ATOM     19  N   UNL     1      47.603   6.895  11.452  0.00  0.00    +0.000 N 
ATOM     20  C   UNL     1      46.237   6.923  11.398  0.00  0.00    +0.000 C 
ATOM     21  O   UNL     1      45.577   7.891  11.768  0.00  0.00    +0.000 OA
ATOM     22  H   UNL     1      48.080   6.000  11.433  0.00  0.00    +0.000 HD
BRANCH  20  23
ATOM     23  C   UNL     1      45.612   5.749  10.777  0.00  0.00    +0.000 A 
ATOM     24  C   UNL     1      45.776   5.500   9.421  0.00  0.00    +0.000 A 
ATOM     25  S   UNL     1      45.055   4.039   8.907  0.00  0.00    +0.000 S 
ATOM     26  C   UNL     1      44.452   3.719  10.466  0.00  0.00    +0.000 A 
ATOM     27  N   UNL     1      43.718   2.603  10.728  0.00  0.00    +0.000 NA
ATOM     28  C   UNL     1      43.314   2.503  11.947  0.00  0.00    +0.000 A 
ATOM     29  N   UNL     1      43.573   3.412  12.936  0.00  0.00    +0.000 N 
ATOM     30  C   UNL     1      44.340   4.530  12.731  0.00  0.00    +0.000 A 
ATOM     31  O   UNL     1      44.610   5.289  13.657  0.00  0.00    +0.000 OA
ATOM     32  C   UNL     1      44.811   4.703  11.370  0.00  0.00    +0.000 A 
ATOM     33  H   UNL     1      43.242   3.271  13.878  0.00  0.00    +0.000 HD
ENDBRANCH  20  23
ENDBRANCH  18  19
ENDBRANCH   4  18
TORSDOF 7
ENDMDL
MODEL 2
REMARK VINA RESULT:    -6.966      1.353      1.980
REMARK INTER + INTRA:         -11.339
REMARK INTER:                  -9.836
REMARK INTRA:                  -1.503
REMARK UNBOUND:                -1.522
REMARK  Name = 
REMARK  8 active torsions:
REMARK  status: ('A' for Active; 'I' for Inactive)
REMARK    1  A    between atoms: C_1  and  N_2
REMARK    2  A    between atoms: N_2  and  C_3
REMARK    3  A    between atoms: N_2  and  C_24
REMARK    4  A    between atoms: C_3  and  C_4
REMARK    5  A    between atoms: C_7  and  C_8
REMARK    6  A    between atoms: C_8  and  N_9
REMARK    7  A    between atoms: C_10  and  C_12
REMARK    8  A    between atoms: C_24  and  C_25
REMARK                            x       y       z     vdW  Elec       q    Type
REMARK                         _______ _______ _______ _____ _____    ______ ____
ROOT
ATOM      1  C   UNL     1      49.250   8.031  16.218  0.00  0.00    +0.000 A 
ATOM      2  C   UNL     1      48.271   8.913  15.746  0.00  0.00    +0.000 A 
ATOM      3  C   UNL     1      47.776   8.778  14.453  0.00  0.00    +0.000 A 
ATOM      4  C   UNL     1      48.294   7.779  13.638  0.00  0.00    +0.000 A 
ATOM      5  N   UNL     1      49.223   6.889  14.078  0.00  0.00    +0.000 NA
ATOM      6  C   UNL     1      49.665   7.028  15.352  0.00  0.00    +0.000 A 
ENDROOT
BRANCH   1   7
ATOM      7  C   UNL     1      49.815   8.154  17.615  0.00  0.00    +0.000 C 
BRANCH   7   9
ATOM      8  C   UNL     1      48.904   8.229  19.871  0.00  0.00    +0.000 C 
ATOM      9  N   UNL     1      49.048   7.427  18.646  0.00  0.00    +0.000 NA
BRANCH   9  10
ATOM     10  C   UNL     1      49.719   6.144  18.968  0.00  0.00    +0.000 C 
BRANCH  10  11
ATOM     11  C   UNL     1      49.174   4.979  18.172  0.00  0.00    +0.000 A 
ATOM     12  C   UNL     1      47.788   4.804  18.047  0.00  0.00    +0.000 A 
ATOM     13  C   UNL     1      47.279   3.694  17.378  0.00  0.00    +0.000 A 
ATOM     14  C   UNL     1      48.174   2.788  16.840  0.00  0.00    +0.000 A 
ATOM     15  N   UNL     1      49.512   2.921  16.920  0.00  0.00    +0.000 NA
ATOM     16  C   UNL     1      49.979   4.007  17.580  0.00  0.00    +0.000 A 
ATOM     17 CL   UNL     1      51.699   4.035  17.643  0.00  0.00    +0.000 Cl
ENDBRANCH  10  11
ENDBRANCH   9  10
ENDBRANCH   7   9
ENDBRANCH   1   7
BRANCH   4  18
ATOM     18  C   UNL     1      47.825   7.654  12.210  0.00  0.00    +0.000 C 
BRANCH  18  19
ATOM     19  N   UNL     1      47.036   6.468  11.994  0.00  0.00    +0.000 N 
ATOM     20  C   UNL     1      45.680   6.417  12.160  0.00  0.00    +0.000 C 
ATOM     21  O   UNL     1      45.017   7.391  12.508  0.00  0.00    +0.000 OA
ATOM     22  H   UNL     1      47.569   5.605  12.011  0.00  0.00    +0.000 HD
BRANCH  20  23
ATOM     23  C   UNL     1      45.054   5.139  11.802  0.00  0.00    +0.000 A 
ATOM     24  C   UNL     1      44.355   4.408  12.753  0.00  0.00    +0.000 A 
ATOM     25  S   UNL     1      43.621   3.000  12.121  0.00  0.00    +0.000 S 
ATOM     26  C   UNL     1      44.260   3.291  10.571  0.00  0.00    +0.000 A 
ATOM     27  N   UNL     1      44.019   2.443   9.533  0.00  0.00    +0.000 NA
ATOM     28  C   UNL     1      44.582   2.781   8.426  0.00  0.00    +0.000 A 
ATOM     29  N   UNL     1      45.366   3.888   8.249  0.00  0.00    +0.000 N 
ATOM     30  C   UNL     1      45.606   4.792   9.253  0.00  0.00    +0.000 A 
ATOM     31  O   UNL     1      46.257   5.810   9.044  0.00  0.00    +0.000 OA
ATOM     32  C   UNL     1      45.008   4.454  10.531  0.00  0.00    +0.000 A 
ATOM     33  H   UNL     1      45.769   4.110   7.353  0.00  0.00    +0.000 HD
ENDBRANCH  20  23
ENDBRANCH  18  19
ENDBRANCH   4  18
TORSDOF 7
ENDMDL
MODEL 3
REMARK VINA RESULT:    -6.754      1.888      2.459
REMARK INTER + INTRA:         -11.041
REMARK INTER:                 -10.309
REMARK INTRA:                  -0.731
REMARK UNBOUND:                -1.522
REMARK  Name = 
REMARK  8 active torsions:
REMARK  status: ('A' for Active; 'I' for Inactive)
REMARK    1  A    between atoms: C_1  and  N_2
REMARK    2  A    between atoms: N_2  and  C_3
REMARK    3  A    between atoms: N_2  and  C_24
REMARK    4  A    between atoms: C_3  and  C_4
REMARK    5  A    between atoms: C_7  and  C_8
REMARK    6  A    between atoms: C_8  and  N_9
REMARK    7  A    between atoms: C_10  and  C_12
REMARK    8  A    between atoms: C_24  and  C_25
REMARK                            x       y       z     vdW  Elec       q    Type
REMARK                         _______ _______ _______ _____ _____    ______ ____
ROOT
ATOM      1  C   UNL     1      48.962   6.372  16.995  0.00  0.00    +0.000 A 
ATOM      2  C   UNL     1      49.460   7.587  16.513  0.00  0.00    +0.000 A 
ATOM      3  C   UNL     1      49.298   7.925  15.174  0.00  0.00    +0.000 A 
ATOM      4  C   UNL     1      48.666   7.023  14.326  0.00  0.00    +0.000 A 
ATOM      5  N   UNL     1      48.145   5.849  14.772  0.00  0.00    +0.000 NA
ATOM      6  C   UNL     1      48.293   5.560  16.088  0.00  0.00    +0.000 A 
ENDROOT
BRANCH   1   7
ATOM      7  C   UNL     1      49.126   5.970  18.443  0.00  0.00    +0.000 C 
BRANCH   7   9
ATOM      8  C   UNL     1      51.340   6.251  19.416  0.00  0.00    +0.000 C 
ATOM      9  N   UNL     1      50.416   5.320  18.750  0.00  0.00    +0.000 NA
BRANCH   9  10
ATOM     10  C   UNL     1      51.036   4.809  17.504  0.00  0.00    +0.000 C 
BRANCH  10  11
ATOM     11  C   UNL     1      51.560   3.397  17.644  0.00  0.00    +0.000 A 
ATOM     12  C   UNL     1      52.891   3.179  18.030  0.00  0.00    +0.000 A 
ATOM     13  C   UNL     1      53.401   1.885  18.089  0.00  0.00    +0.000 A 
ATOM     14  C   UNL     1      52.559   0.835  17.768  0.00  0.00    +0.000 A 
ATOM     15  N   UNL     1      51.271   0.994  17.406  0.00  0.00    +0.000 NA
ATOM     16  C   UNL     1      50.804   2.263  17.353  0.00  0.00    +0.000 A 
ATOM     17 CL   UNL     1      49.162   2.326  16.841  0.00  0.00    +0.000 Cl
ENDBRANCH  10  11
ENDBRANCH   9  10
ENDBRANCH   7   9
ENDBRANCH   1   7
BRANCH   4  18
ATOM     18  C   UNL     1      48.539   7.333  12.856  0.00  0.00    +0.000 C 
BRANCH  18  19
ATOM     19  N   UNL     1      47.661   6.415  12.176  0.00  0.00    +0.000 N 
ATOM     20  C   UNL     1      46.425   6.758  11.701  0.00  0.00    +0.000 C 
ATOM     21  O   UNL     1      45.961   7.889  11.813  0.00  0.00    +0.000 OA
ATOM     22  H   UNL     1      47.874   5.437  12.338  0.00  0.00    +0.000 HD
BRANCH  20  23
ATOM     23  C   UNL     1      45.727   5.701  10.959  0.00  0.00    +0.000 A 
ATOM     24  C   UNL     1      45.845   5.615   9.578  0.00  0.00    +0.000 A 
ATOM     25  S   UNL     1      45.037   4.266   8.911  0.00  0.00    +0.000 S 
ATOM     26  C   UNL     1      44.457   3.784  10.437  0.00  0.00    +0.000 A 
ATOM     27  N   UNL     1      43.672   2.681  10.581  0.00  0.00    +0.000 NA
ATOM     28  C   UNL     1      43.293   2.450  11.791  0.00  0.00    +0.000 A 
ATOM     29  N   UNL     1      43.621   3.215  12.876  0.00  0.00    +0.000 N 
ATOM     30  C   UNL     1      44.440   4.312  12.786  0.00  0.00    +0.000 A 
ATOM     31  O   UNL     1      44.771   4.937  13.789  0.00  0.00    +0.000 OA
ATOM     32  C   UNL     1      44.887   4.630  11.443  0.00  0.00    +0.000 A 
ATOM     33  H   UNL     1      43.307   2.976  13.803  0.00  0.00    +0.000 HD
ENDBRANCH  20  23
ENDBRANCH  18  19
ENDBRANCH   4  18
TORSDOF 7
ENDMDL
MODEL 4
REMARK VINA RESULT:    -6.591      2.060      2.802
REMARK INTER + INTRA:         -10.810
REMARK INTER:                  -9.165
REMARK INTRA:                  -1.645
REMARK UNBOUND:                -1.522
REMARK  Name = 
REMARK  8 active torsions:
REMARK  status: ('A' for Active; 'I' for Inactive)
REMARK    1  A    between atoms: C_1  and  N_2
REMARK    2  A    between atoms: N_2  and  C_3
REMARK    3  A    between atoms: N_2  and  C_24
REMARK    4  A    between atoms: C_3  and  C_4
REMARK    5  A    between atoms: C_7  and  C_8
REMARK    6  A    between atoms: C_8  and  N_9
REMARK    7  A    between atoms: C_10  and  C_12
REMARK    8  A    between atoms: C_24  and  C_25
REMARK                            x       y       z     vdW  Elec       q    Type
REMARK                         _______ _______ _______ _____ _____    ______ ____
ROOT
ATOM      1  C   UNL     1      50.230   7.161  17.927  0.00  0.00    +0.000 A 
ATOM      2  C   UNL     1      50.904   7.089  16.704  0.00  0.00    +0.000 A 
ATOM      3  C   UNL     1      50.306   7.577  15.547  0.00  0.00    +0.000 A 
ATOM      4  C   UNL     1      49.022   8.103  15.627  0.00  0.00    +0.000 A 
ATOM      5  N   UNL     1      48.354   8.214  16.806  0.00  0.00    +0.000 NA
ATOM      6  C   UNL     1      48.975   7.756  17.920  0.00  0.00    +0.000 A 
ENDROOT
BRANCH   1   7
ATOM      7  C   UNL     1      50.848   6.633  19.202  0.00  0.00    +0.000 C 
BRANCH   7   9
ATOM      8  C   UNL     1      50.257   5.376  21.201  0.00  0.00    +0.000 C 
ATOM      9  N   UNL     1      50.201   5.416  19.732  0.00  0.00    +0.000 NA
BRANCH   9  10
ATOM     10  C   UNL     1      50.859   4.209  19.175  0.00  0.00    +0.000 C 
BRANCH  10  11
ATOM     11  C   UNL     1      50.031   3.528  18.108  0.00  0.00    +0.000 A 
ATOM     12  C   UNL     1      48.699   3.918  17.899  0.00  0.00    +0.000 A 
ATOM     13  C   UNL     1      47.910   3.246  16.970  0.00  0.00    +0.000 A 
ATOM     14  C   UNL     1      48.477   2.202  16.262  0.00  0.00    +0.000 A 
ATOM     15  N   UNL     1      49.755   1.801  16.417  0.00  0.00    +0.000 NA
ATOM     16  C   UNL     1      50.497   2.470  17.330  0.00  0.00    +0.000 A 
ATOM     17 CL   UNL     1      52.092   1.834  17.455  0.00  0.00    +0.000 Cl
ENDBRANCH  10  11
ENDBRANCH   9  10
ENDBRANCH   7   9
ENDBRANCH   1   7
BRANCH   4  18
ATOM     18  C   UNL     1      48.323   8.575  14.377  0.00  0.00    +0.000 C 
BRANCH  18  19
ATOM     19  N   UNL     1      47.360   7.618  13.893  0.00  0.00    +0.000 N 
ATOM     20  C   UNL     1      47.684   6.547  13.107  0.00  0.00    +0.000 C 
ATOM     21  O   UNL     1      48.835   6.310  12.750  0.00  0.00    +0.000 OA
ATOM     22  H   UNL     1      46.401   7.947  13.909  0.00  0.00    +0.000 HD
BRANCH  20  23
ATOM     23  C   UNL     1      46.572   5.641  12.797  0.00  0.00    +0.000 A 
ATOM     24  C   UNL     1      46.669   4.285  13.078  0.00  0.00    +0.000 A 
ATOM     25  S   UNL     1      45.239   3.417  12.733  0.00  0.00    +0.000 S 
ATOM     26  C   UNL     1      44.463   4.812  12.144  0.00  0.00    +0.000 A 
ATOM     27  N   UNL     1      43.187   4.768  11.670  0.00  0.00    +0.000 NA
ATOM     28  C   UNL     1      42.738   5.896  11.240  0.00  0.00    +0.000 A 
ATOM     29  N   UNL     1      43.439   7.071  11.238  0.00  0.00    +0.000 N 
ATOM     30  C   UNL     1      44.711   7.173  11.740  0.00  0.00    +0.000 A 
ATOM     31  O   UNL     1      45.287   8.256  11.786  0.00  0.00    +0.000 OA
ATOM     32  C   UNL     1      45.276   5.928  12.225  0.00  0.00    +0.000 A 
ATOM     33  H   UNL     1      43.028   7.927  10.902  0.00  0.00    +0.000 HD
ENDBRANCH  20  23
ENDBRANCH  18  19
ENDBRANCH   4  18
TORSDOF 7
ENDMDL
MODEL 5
REMARK VINA RESULT:    -6.578      1.879      2.467
REMARK INTER + INTRA:         -10.791
REMARK INTER:                  -8.878
REMARK INTRA:                  -1.914
REMARK UNBOUND:                -1.522
REMARK  Name = 
REMARK  8 active torsions:
REMARK  status: ('A' for Active; 'I' for Inactive)
REMARK    1  A    between atoms: C_1  and  N_2
REMARK    2  A    between atoms: N_2  and  C_3
REMARK    3  A    between atoms: N_2  and  C_24
REMARK    4  A    between atoms: C_3  and  C_4
REMARK    5  A    between atoms: C_7  and  C_8
REMARK    6  A    between atoms: C_8  and  N_9
REMARK    7  A    between atoms: C_10  and  C_12
REMARK    8  A    between atoms: C_24  and  C_25
REMARK                            x       y       z     vdW  Elec       q    Type
REMARK                         _______ _______ _______ _____ _____    ______ ____
ROOT
ATOM      1  C   UNL     1      49.809   7.639  17.882  0.00  0.00    +0.000 A 
ATOM      2  C   UNL     1      50.192   7.271  16.588  0.00  0.00    +0.000 A 
ATOM      3  C   UNL     1      49.612   7.890  15.485  0.00  0.00    +0.000 A 
ATOM      4  C   UNL     1      48.629   8.850  15.696  0.00  0.00    +0.000 A 
ATOM      5  N   UNL     1      48.258   9.250  16.941  0.00  0.00    +0.000 NA
ATOM      6  C   UNL     1      48.861   8.648  17.995  0.00  0.00    +0.000 A 
ENDROOT
BRANCH   1   7
ATOM      7  C   UNL     1      50.413   6.981  19.101  0.00  0.00    +0.000 C 
BRANCH   7   9
ATOM      8  C   UNL     1      49.587   5.700  21.001  0.00  0.00    +0.000 C 
ATOM      9  N   UNL     1      49.718   5.753  19.536  0.00  0.00    +0.000 NA
BRANCH   9  10
ATOM     10  C   UNL     1      50.453   4.557  19.059  0.00  0.00    +0.000 C 
BRANCH  10  11
ATOM     11  C   UNL     1      49.700   3.788  17.997  0.00  0.00    +0.000 A 
ATOM     12  C   UNL     1      48.368   4.118  17.705  0.00  0.00    +0.000 A 
ATOM     13  C   UNL     1      47.645   3.368  16.782  0.00  0.00    +0.000 A 
ATOM     14  C   UNL     1      48.279   2.306  16.163  0.00  0.00    +0.000 A 
ATOM     15  N   UNL     1      49.560   1.959  16.398  0.00  0.00    +0.000 NA
ATOM     16  C   UNL     1      50.236   2.704  17.304  0.00  0.00    +0.000 A 
ATOM     17 CL   UNL     1      51.843   2.132  17.539  0.00  0.00    +0.000 Cl
ENDBRANCH  10  11
ENDBRANCH   9  10
ENDBRANCH   7   9
ENDBRANCH   1   7
BRANCH   4  18
ATOM     18  C   UNL     1      47.935   9.487  14.519  0.00  0.00    +0.000 C 
BRANCH  18  19
ATOM     19  N   UNL     1      46.930   8.629  13.945  0.00  0.00    +0.000 N 
ATOM     20  C   UNL     1      47.049   8.035  12.719  0.00  0.00    +0.000 C 
ATOM     21  O   UNL     1      48.034   8.185  12.001  0.00  0.00    +0.000 OA
ATOM     22  H   UNL     1      46.009   8.732  14.357  0.00  0.00    +0.000 HD
BRANCH  20  23
ATOM     23  C   UNL     1      45.955   7.126  12.357  0.00  0.00    +0.000 A 
ATOM     24  C   UNL     1      44.840   7.601  11.679  0.00  0.00    +0.000 A 
ATOM     25  S   UNL     1      43.724   6.376  11.265  0.00  0.00    +0.000 S 
ATOM     26  C   UNL     1      44.665   5.179  12.026  0.00  0.00    +0.000 A 
ATOM     27  N   UNL     1      44.271   3.876  12.051  0.00  0.00    +0.000 NA
ATOM     28  C   UNL     1      45.074   3.088  12.678  0.00  0.00    +0.000 A 
ATOM     29  N   UNL     1      46.237   3.473  13.286  0.00  0.00    +0.000 N 
ATOM     30  C   UNL     1      46.694   4.766  13.255  0.00  0.00    +0.000 A 
ATOM     31  O   UNL     1      47.776   5.065  13.751  0.00  0.00    +0.000 OA
ATOM     32  C   UNL     1      45.823   5.704  12.573  0.00  0.00    +0.000 A 
ATOM     33  H   UNL     1      46.833   2.807  13.750  0.00  0.00    +0.000 HD
ENDBRANCH  20  23
ENDBRANCH  18  19
ENDBRANCH   4  18
TORSDOF 7
ENDMDL
MODEL 6
REMARK VINA RESULT:    -6.568      4.150      8.642
REMARK INTER + INTRA:         -10.778
REMARK INTER:                 -10.195
REMARK INTRA:                  -0.583
REMARK UNBOUND:                -1.522
REMARK  Name = 
REMARK  8 active torsions:
REMARK  status: ('A' for Active; 'I' for Inactive)
REMARK    1  A    between atoms: C_1  and  N_2
REMARK    2  A    between atoms: N_2  and  C_3
REMARK    3  A    between atoms: N_2  and  C_24
REMARK    4  A    between atoms: C_3  and  C_4
REMARK    5  A    between atoms: C_7  and  C_8
REMARK    6  A    between atoms: C_8  and  N_9
REMARK    7  A    between atoms: C_10  and  C_12
REMARK    8  A    between atoms: C_24  and  C_25
REMARK                            x       y       z     vdW  Elec       q    Type
REMARK                         _______ _______ _______ _____ _____    ______ ____
ROOT
ATOM      1  C   UNL     1      46.071   4.268  12.748  0.00  0.00    +0.000 A 
ATOM      2  C   UNL     1      46.254   5.543  12.204  0.00  0.00    +0.000 A 
ATOM      3  C   UNL     1      47.097   6.455  12.831  0.00  0.00    +0.000 A 
ATOM      4  C   UNL     1      47.720   6.085  14.017  0.00  0.00    +0.000 A 
ATOM      5  N   UNL     1      47.585   4.843  14.553  0.00  0.00    +0.000 NA
ATOM      6  C   UNL     1      46.780   3.968  13.904  0.00  0.00    +0.000 A 
ENDROOT
BRANCH   1   7
ATOM      7  C   UNL     1      45.156   3.255  12.097  0.00  0.00    +0.000 C 
BRANCH   7   9
ATOM      8  C   UNL     1      43.213   4.348  11.119  0.00  0.00    +0.000 C 
ATOM      9  N   UNL     1      44.519   3.726  10.851  0.00  0.00    +0.000 NA
BRANCH   9  10
ATOM     10  C   UNL     1      44.346   2.593   9.910  0.00  0.00    +0.000 C 
BRANCH  10  11
ATOM     11  C   UNL     1      45.417   2.547   8.842  0.00  0.00    +0.000 A 
ATOM     12  C   UNL     1      45.888   1.310   8.376  0.00  0.00    +0.000 A 
ATOM     13  C   UNL     1      46.925   1.260   7.448  0.00  0.00    +0.000 A 
ATOM     14  C   UNL     1      47.460   2.454   6.999  0.00  0.00    +0.000 A 
ATOM     15  N   UNL     1      47.030   3.665   7.406  0.00  0.00    +0.000 NA
ATOM     16  C   UNL     1      46.025   3.683   8.312  0.00  0.00    +0.000 A 
ATOM     17 CL   UNL     1      45.600   5.286   8.773  0.00  0.00    +0.000 Cl
ENDBRANCH  10  11
ENDBRANCH   9  10
ENDBRANCH   7   9
ENDBRANCH   1   7
BRANCH   4  18
ATOM     18  C   UNL     1      48.584   7.077  14.754  0.00  0.00    +0.000 C 
BRANCH  18  19
ATOM     19  N   UNL     1      48.424   6.988  16.184  0.00  0.00    +0.000 N 
ATOM     20  C   UNL     1      48.901   7.921  17.061  0.00  0.00    +0.000 C 
ATOM     21  O   UNL     1      49.510   8.924  16.698  0.00  0.00    +0.000 OA
ATOM     22  H   UNL     1      48.210   6.055  16.521  0.00  0.00    +0.000 HD
BRANCH  20  23
ATOM     23  C   UNL     1      48.554   7.690  18.468  0.00  0.00    +0.000 A 
ATOM     24  C   UNL     1      47.964   8.697  19.221  0.00  0.00    +0.000 A 
ATOM     25  S   UNL     1      47.549   8.206  20.804  0.00  0.00    +0.000 S 
ATOM     26  C   UNL     1      48.194   6.650  20.554  0.00  0.00    +0.000 A 
ATOM     27  N   UNL     1      48.172   5.708  21.536  0.00  0.00    +0.000 NA
ATOM     28  C   UNL     1      48.712   4.585  21.209  0.00  0.00    +0.000 A 
ATOM     29  N   UNL     1      49.274   4.308  19.994  0.00  0.00    +0.000 N 
ATOM     30  C   UNL     1      49.285   5.212  18.962  0.00  0.00    +0.000 A 
ATOM     31  O   UNL     1      49.736   4.908  17.861  0.00  0.00    +0.000 OA
ATOM     32  C   UNL     1      48.703   6.502  19.276  0.00  0.00    +0.000 A 
ATOM     33  H   UNL     1      49.669   3.404  19.790  0.00  0.00    +0.000 HD
ENDBRANCH  20  23
ENDBRANCH  18  19
ENDBRANCH   4  18
TORSDOF 7
ENDMDL
MODEL 7
REMARK VINA RESULT:    -6.455      4.186      8.673
REMARK INTER + INTRA:         -10.619
REMARK INTER:                 -10.240
REMARK INTRA:                  -0.379
REMARK UNBOUND:                -1.522
REMARK  Name = 
REMARK  8 active torsions:
REMARK  status: ('A' for Active; 'I' for Inactive)
REMARK    1  A    between atoms: C_1  and  N_2
REMARK    2  A    between atoms: N_2  and  C_3
REMARK    3  A    between atoms: N_2  and  C_24
REMARK    4  A    between atoms: C_3  and  C_4
REMARK    5  A    between atoms: C_7  and  C_8
REMARK    6  A    between atoms: C_8  and  N_9
REMARK    7  A    between atoms: C_10  and  C_12
REMARK    8  A    between atoms: C_24  and  C_25
REMARK                            x       y       z     vdW  Elec       q    Type
REMARK                         _______ _______ _______ _____ _____    ______ ____
ROOT
ATOM      1  C   UNL     1      45.391   4.669  11.314  0.00  0.00    +0.000 A 
ATOM      2  C   UNL     1      45.700   5.883  10.692  0.00  0.00    +0.000 A 
ATOM      3  C   UNL     1      46.275   6.916  11.425  0.00  0.00    +0.000 A 
ATOM      4  C   UNL     1      46.503   6.728  12.783  0.00  0.00    +0.000 A 
ATOM      5  N   UNL     1      46.241   5.549  13.408  0.00  0.00    +0.000 NA
ATOM      6  C   UNL     1      45.707   4.552  12.661  0.00  0.00    +0.000 A 
ENDROOT
BRANCH   1   7
ATOM      7  C   UNL     1      44.758   3.528  10.549  0.00  0.00    +0.000 C 
BRANCH   7   9
ATOM      8  C   UNL     1      44.021   3.776   8.242  0.00  0.00    +0.000 C 
ATOM      9  N   UNL     1      45.152   3.459   9.127  0.00  0.00    +0.000 NA
BRANCH   9  10
ATOM     10  C   UNL     1      45.668   2.105   8.809  0.00  0.00    +0.000 C 
BRANCH  10  11
ATOM     11  C   UNL     1      46.452   2.064   7.516  0.00  0.00    +0.000 A 
ATOM     12  C   UNL     1      46.648   3.240   6.778  0.00  0.00    +0.000 A 
ATOM     13  C   UNL     1      47.304   3.197   5.551  0.00  0.00    +0.000 A 
ATOM     14  C   UNL     1      47.759   1.973   5.095  0.00  0.00    +0.000 A 
ATOM     15  N   UNL     1      47.608   0.819   5.775  0.00  0.00    +0.000 NA
ATOM     16  C   UNL     1      46.962   0.891   6.962  0.00  0.00    +0.000 A 
ATOM     17 CL   UNL     1      46.803  -0.654   7.705  0.00  0.00    +0.000 Cl
ENDBRANCH  10  11
ENDBRANCH   9  10
ENDBRANCH   7   9
ENDBRANCH   1   7
BRANCH   4  18
ATOM     18  C   UNL     1      47.061   7.854  13.615  0.00  0.00    +0.000 C 
BRANCH  18  19
ATOM     19  N   UNL     1      47.700   7.382  14.818  0.00  0.00    +0.000 N 
ATOM     20  C   UNL     1      48.994   6.944  14.869  0.00  0.00    +0.000 C 
ATOM     21  O   UNL     1      49.726   6.920  13.883  0.00  0.00    +0.000 OA
ATOM     22  H   UNL     1      47.055   7.106  15.551  0.00  0.00    +0.000 HD
BRANCH  20  23
ATOM     23  C   UNL     1      49.482   6.591  16.208  0.00  0.00    +0.000 A 
ATOM     24  C   UNL     1      50.543   7.284  16.775  0.00  0.00    +0.000 A 
ATOM     25  S   UNL     1      50.899   6.790  18.371  0.00  0.00    +0.000 S 
ATOM     26  C   UNL     1      49.686   5.597  18.336  0.00  0.00    +0.000 A 
ATOM     27  N   UNL     1      49.458   4.786  19.406  0.00  0.00    +0.000 NA
ATOM     28  C   UNL     1      48.522   3.919  19.228  0.00  0.00    +0.000 A 
ATOM     29  N   UNL     1      47.787   3.781  18.082  0.00  0.00    +0.000 N 
ATOM     30  C   UNL     1      47.954   4.598  16.994  0.00  0.00    +0.000 A 
ATOM     31  O   UNL     1      47.232   4.492  16.007  0.00  0.00    +0.000 OA
ATOM     32  C   UNL     1      49.007   5.587  17.131  0.00  0.00    +0.000 A 
ATOM     33  H   UNL     1      47.055   3.092  18.007  0.00  0.00    +0.000 HD
ENDBRANCH  20  23
ENDBRANCH  18  19
ENDBRANCH   4  18
TORSDOF 7
ENDMDL
MODEL 8
REMARK VINA RESULT:    -6.349      2.783      4.952
REMARK INTER + INTRA:         -10.469
REMARK INTER:                  -8.923
REMARK INTRA:                  -1.546
REMARK UNBOUND:                -1.522
REMARK  Name = 
REMARK  8 active torsions:
REMARK  status: ('A' for Active; 'I' for Inactive)
REMARK    1  A    between atoms: C_1  and  N_2
REMARK    2  A    between atoms: N_2  and  C_3
REMARK    3  A    between atoms: N_2  and  C_24
REMARK    4  A    between atoms: C_3  and  C_4
REMARK    5  A    between atoms: C_7  and  C_8
REMARK    6  A    between atoms: C_8  and  N_9
REMARK    7  A    between atoms: C_10  and  C_12
REMARK    8  A    between atoms: C_24  and  C_25
REMARK                            x       y       z     vdW  Elec       q    Type
REMARK                         _______ _______ _______ _____ _____    ______ ____
ROOT
ATOM      1  C   UNL     1      51.023   4.240  18.687  0.00  0.00    +0.000 A 
ATOM      2  C   UNL     1      49.867   4.639  19.366  0.00  0.00    +0.000 A 
ATOM      3  C   UNL     1      48.613   4.374  18.825  0.00  0.00    +0.000 A 
ATOM      4  C   UNL     1      48.536   3.740  17.591  0.00  0.00    +0.000 A 
ATOM      5  N   UNL     1      49.640   3.313  16.922  0.00  0.00    +0.000 NA
ATOM      6  C   UNL     1      50.847   3.560  17.488  0.00  0.00    +0.000 A 
ENDROOT
BRANCH   1   7
ATOM      7  C   UNL     1      52.401   4.519  19.242  0.00  0.00    +0.000 C 
BRANCH   7   9
ATOM      8  C   UNL     1      54.704   4.412  18.459  0.00  0.00    +0.000 C 
ATOM      9  N   UNL     1      53.373   5.001  18.241  0.00  0.00    +0.000 NA
BRANCH   9  10
ATOM     10  C   UNL     1      53.469   6.479  18.296  0.00  0.00    +0.000 C 
BRANCH  10  11
ATOM     11  C   UNL     1      52.561   7.165  17.299  0.00  0.00    +0.000 A 
ATOM     12  C   UNL     1      51.348   7.724  17.725  0.00  0.00    +0.000 A 
ATOM     13  C   UNL     1      50.474   8.291  16.801  0.00  0.00    +0.000 A 
ATOM     14  C   UNL     1      50.842   8.293  15.468  0.00  0.00    +0.000 A 
ATOM     15  N   UNL     1      52.003   7.782  15.013  0.00  0.00    +0.000 NA
ATOM     16  C   UNL     1      52.831   7.233  15.933  0.00  0.00    +0.000 A 
ATOM     17 CL   UNL     1      54.255   6.585  15.216  0.00  0.00    +0.000 Cl
ENDBRANCH  10  11
ENDBRANCH   9  10
ENDBRANCH   7   9
ENDBRANCH   1   7
BRANCH   4  18
ATOM     18  C   UNL     1      47.192   3.502  16.950  0.00  0.00    +0.000 C 
BRANCH  18  19
ATOM     19  N   UNL     1      46.893   4.475  15.929  0.00  0.00    +0.000 N 
ATOM     20  C   UNL     1      46.961   4.214  14.588  0.00  0.00    +0.000 C 
ATOM     21  O   UNL     1      47.283   3.116  14.141  0.00  0.00    +0.000 OA
ATOM     22  H   UNL     1      46.927   5.437  16.248  0.00  0.00    +0.000 HD
BRANCH  20  23
ATOM     23  C   UNL     1      46.529   5.312  13.716  0.00  0.00    +0.000 A 
ATOM     24  C   UNL     1      47.357   6.406  13.500  0.00  0.00    +0.000 A 
ATOM     25  S   UNL     1      46.718   7.530  12.383  0.00  0.00    +0.000 S 
ATOM     26  C   UNL     1      45.291   6.621  12.194  0.00  0.00    +0.000 A 
ATOM     27  N   UNL     1      44.293   7.033  11.365  0.00  0.00    +0.000 NA
ATOM     28  C   UNL     1      43.267   6.254  11.338  0.00  0.00    +0.000 A 
ATOM     29  N   UNL     1      43.139   5.099  12.059  0.00  0.00    +0.000 N 
ATOM     30  C   UNL     1      44.132   4.623  12.876  0.00  0.00    +0.000 A 
ATOM     31  O   UNL     1      44.013   3.548  13.455  0.00  0.00    +0.000 OA
ATOM     32  C   UNL     1      45.309   5.468  12.958  0.00  0.00    +0.000 A 
ATOM     33  H   UNL     1      42.317   4.521  11.984  0.00  0.00    +0.000 HD
ENDBRANCH  20  23
ENDBRANCH  18  19
ENDBRANCH   4  18
TORSDOF 7
ENDMDL
MODEL 9
REMARK VINA RESULT:    -6.347      4.037      8.371
REMARK INTER + INTRA:         -10.466
REMARK INTER:                  -9.060
REMARK INTRA:                  -1.406
REMARK UNBOUND:                -1.522
REMARK  Name = 
REMARK  8 active torsions:
REMARK  status: ('A' for Active; 'I' for Inactive)
REMARK    1  A    between atoms: C_1  and  N_2
REMARK    2  A    between atoms: N_2  and  C_3
REMARK    3  A    between atoms: N_2  and  C_24
REMARK    4  A    between atoms: C_3  and  C_4
REMARK    5  A    between atoms: C_7  and  C_8
REMARK    6  A    between atoms: C_8  and  N_9
REMARK    7  A    between atoms: C_10  and  C_12
REMARK    8  A    between atoms: C_24  and  C_25
REMARK                            x       y       z     vdW  Elec       q    Type
REMARK                         _______ _______ _______ _____ _____    ______ ____
ROOT
ATOM      1  C   UNL     1      45.707   5.234  13.274  0.00  0.00    +0.000 A 
ATOM      2  C   UNL     1      45.942   6.533  12.812  0.00  0.00    +0.000 A 
ATOM      3  C   UNL     1      47.132   7.182  13.127  0.00  0.00    +0.000 A 
ATOM      4  C   UNL     1      48.058   6.528  13.930  0.00  0.00    +0.000 A 
ATOM      5  N   UNL     1      47.872   5.255  14.369  0.00  0.00    +0.000 NA
ATOM      6  C   UNL     1      46.715   4.639  14.022  0.00  0.00    +0.000 A 
ENDROOT
BRANCH   1   7
ATOM      7  C   UNL     1      44.422   4.503  12.957  0.00  0.00    +0.000 C 
BRANCH   7   9
ATOM      8  C   UNL     1      42.450   5.427  11.868  0.00  0.00    +0.000 C 
ATOM      9  N   UNL     1      43.806   4.889  11.672  0.00  0.00    +0.000 NA
BRANCH   9  10
ATOM     10  C   UNL     1      43.749   3.717  10.765  0.00  0.00    +0.000 C 
BRANCH  10  11
ATOM     11  C   UNL     1      44.779   3.780   9.658  0.00  0.00    +0.000 A 
ATOM     12  C   UNL     1      45.448   4.985   9.392  0.00  0.00    +0.000 A 
ATOM     13  C   UNL     1      46.342   5.070   8.329  0.00  0.00    +0.000 A 
ATOM     14  C   UNL     1      46.554   3.939   7.560  0.00  0.00    +0.000 A 
ATOM     15  N   UNL     1      45.947   2.757   7.786  0.00  0.00    +0.000 NA
ATOM     16  C   UNL     1      45.080   2.706   8.824  0.00  0.00    +0.000 A 
ATOM     17 CL   UNL     1      44.348   1.155   8.977  0.00  0.00    +0.000 Cl
ENDBRANCH  10  11
ENDBRANCH   9  10
ENDBRANCH   7   9
ENDBRANCH   1   7
BRANCH   4  18
ATOM     18  C   UNL     1      49.326   7.234  14.344  0.00  0.00    +0.000 C 
BRANCH  18  19
ATOM     19  N   UNL     1      49.771   6.836  15.656  0.00  0.00    +0.000 N 
ATOM     20  C   UNL     1      50.002   7.714  16.678  0.00  0.00    +0.000 C 
ATOM     21  O   UNL     1      49.843   8.926  16.560  0.00  0.00    +0.000 OA
ATOM     22  H   UNL     1      50.194   5.915  15.690  0.00  0.00    +0.000 HD
BRANCH  20  23
ATOM     23  C   UNL     1      50.363   7.098  17.960  0.00  0.00    +0.000 A 
ATOM     24  C   UNL     1      51.551   7.438  18.594  0.00  0.00    +0.000 A 
ATOM     25  S   UNL     1      51.746   6.689  20.117  0.00  0.00    +0.000 S 
ATOM     26  C   UNL     1      50.277   5.843  19.955  0.00  0.00    +0.000 A 
ATOM     27  N   UNL     1      49.837   4.995  20.924  0.00  0.00    +0.000 NA
ATOM     28  C   UNL     1      48.721   4.411  20.656  0.00  0.00    +0.000 A 
ATOM     29  N   UNL     1      47.996   4.592  19.510  0.00  0.00    +0.000 N 
ATOM     30  C   UNL     1      48.378   5.465  18.523  0.00  0.00    +0.000 A 
ATOM     31  O   UNL     1      47.671   5.655  17.539  0.00  0.00    +0.000 OA
ATOM     32  C   UNL     1      49.639   6.141  18.764  0.00  0.00    +0.000 A 
ATOM     33  H   UNL     1      47.119   4.118  19.362  0.00  0.00    +0.000 HD
ENDBRANCH  20  23
ENDBRANCH  18  19
ENDBRANCH   4  18
TORSDOF 7
ENDMDL
