MODEL 1
REMARK VINA RESULT:    -7.488      0.000      0.000
REMARK INTER + INTRA:         -11.404
REMARK INTER:                 -10.552
REMARK INTRA:                  -0.852
REMARK UNBOUND:                -0.852
REMARK  Name = 
REMARK  9 active torsions:
REMARK  status: ('A' for Active; 'I' for Inactive)
REMARK    1  A    between atoms: C_1  and  C_2
REMARK    2  A    between atoms: C_6  and  C_7
REMARK    3  A    between atoms: C_7  and  C_8
REMARK    4  A    between atoms: C_8  and  O_9
REMARK    5  A    between atoms: O_9  and  C_10
REMARK    6  A    between atoms: C_13  and  C_14
REMARK    7  A    between atoms: C_20  and  N_21
REMARK    8  A    between atoms: N_21  and  C_22
REMARK    9  A    between atoms: N_24  and  C_25
REMARK                            x       y       z     vdW  Elec       q    Type
REMARK                         _______ _______ _______ _____ _____    ______ ____
ROOT
ATOM      1  C   UNL     1      48.098   8.270  13.704  0.00  0.00    +0.000 C 
ATOM      2  C   UNL     1      46.964   7.343  13.348  0.00  0.00    +0.000 A 
ATOM      3  C   UNL     1      45.915   7.745  12.498  0.00  0.00    +0.000 A 
ATOM      4 CL   UNL     1      45.848   9.317  11.774  0.00  0.00    +0.000 Cl
ATOM      5  C   UNL     1      44.857   6.881  12.199  0.00  0.00    +0.000 A 
ATOM      6  C   UNL     1      44.806   5.595  12.741  0.00  0.00    +0.000 A 
ATOM      7  C   UNL     1      45.837   5.201  13.608  0.00  0.00    +0.000 A 
ATOM      8  C   UNL     1      46.919   6.043  13.911  0.00  0.00    +0.000 A 
ENDROOT
BRANCH   8   9
ATOM      9  N   UNL     1      47.928   5.619  14.817  0.00  0.00    +0.000 N 
ATOM     10  H   UNL     1      48.743   5.260  14.319  0.00  0.00    +0.000 HD
BRANCH   9  11
ATOM     11  C   UNL     1      47.727   4.999  16.106  0.00  0.00    +0.000 C 
ATOM     12  C   UNL     1      49.017   4.988  16.954  0.00  0.00    +0.000 C 
ATOM     13  N   UNL     1      48.971   3.518  17.040  0.00  0.00    +0.000 NA
ATOM     14  C   UNL     1      48.599   3.104  18.393  0.00  0.00    +0.000 C 
ATOM     15  C   UNL     1      47.811   3.459  16.131  0.00  0.00    +0.000 C 
ENDBRANCH   9  11
ENDBRANCH   8   9
BRANCH   6  16
ATOM     16  C   UNL     1      43.646   4.704  12.354  0.00  0.00    +0.000 C 
BRANCH  16  17
ATOM     17  C   UNL     1      44.027   3.323  11.833  0.00  0.00    +0.000 C 
BRANCH  17  18
ATOM     18  O   UNL     1      43.452   3.119  10.537  0.00  0.00    +0.000 OA
BRANCH  18  19
ATOM     19  C   UNL     1      44.430   2.988   9.571  0.00  0.00    +0.000 A 
ATOM     20  C   UNL     1      44.864   4.152   8.957  0.00  0.00    +0.000 A 
ATOM     21  C   UNL     1      45.856   4.054   7.981  0.00  0.00    +0.000 A 
ATOM     22  C   UNL     1      46.375   2.802   7.659  0.00  0.00    +0.000 A 
ATOM     23  C   UNL     1      45.888   1.694   8.340  0.00  0.00    +0.000 A 
ATOM     24  N   UNL     1      44.919   1.760   9.278  0.00  0.00    +0.000 NA
BRANCH  22  25
ATOM     25  C   UNL     1      47.436   2.583   6.650  0.00  0.00    +0.000 C 
ATOM     26  N   UNL     1      47.313   3.236   5.454  0.00  0.00    +0.000 N 
ATOM     27  O   UNL     1      48.369   1.818   6.857  0.00  0.00    +0.000 OA
ATOM     28  H   UNL     1      46.456   3.675   5.155  0.00  0.00    +0.000 HD
ATOM     29  H   UNL     1      47.990   2.993   4.743  0.00  0.00    +0.000 HD
ENDBRANCH  22  25
ENDBRANCH  18  19
ENDBRANCH  17  18
ENDBRANCH  16  17
ENDBRANCH   6  16
TORSDOF 7
ENDMDL
MODEL 2
REMARK VINA RESULT:    -7.423      3.488      5.271
REMARK INTER + INTRA:         -11.313
REMARK INTER:                 -10.532
REMARK INTRA:                  -0.781
REMARK UNBOUND:                -0.852
REMARK  Name = 
REMARK  9 active torsions:
REMARK  status: ('A' for Active; 'I' for Inactive)
REMARK    1  A    between atoms: C_1  and  C_2
REMARK    2  A    between atoms: C_6  and  C_7
REMARK    3  A    between atoms: C_7  and  C_8
REMARK    4  A    between atoms: C_8  and  O_9
REMARK    5  A    between atoms: O_9  and  C_10
REMARK    6  A    between atoms: C_13  and  C_14
REMARK    7  A    between atoms: C_20  and  N_21
REMARK    8  A    between atoms: N_21  and  C_22
REMARK    9  A    between atoms: N_24  and  C_25
REMARK                            x       y       z     vdW  Elec       q    Type
REMARK                         _______ _______ _______ _____ _____    ______ ____
ROOT
ATOM      1  C   UNL     1      47.647  10.229  12.426  0.00  0.00    +0.000 C 
ATOM      2  C   UNL     1      46.945   8.910  12.233  0.00  0.00    +0.000 A 
ATOM      3  C   UNL     1      47.652   7.729  11.933  0.00  0.00    +0.000 A 
ATOM      4 CL   UNL     1      49.376   7.684  11.782  0.00  0.00    +0.000 Cl
ATOM      5  C   UNL     1      46.982   6.519  11.731  0.00  0.00    +0.000 A 
ATOM      6  C   UNL     1      45.589   6.447  11.816  0.00  0.00    +0.000 A 
ATOM      7  C   UNL     1      44.881   7.627  12.091  0.00  0.00    +0.000 A 
ATOM      8  C   UNL     1      45.531   8.852  12.314  0.00  0.00    +0.000 A 
ENDROOT
BRANCH   8   9
ATOM      9  N   UNL     1      44.778  10.031  12.560  0.00  0.00    +0.000 N 
ATOM     10  H   UNL     1      44.239   9.951  13.422  0.00  0.00    +0.000 HD
BRANCH   9  11
ATOM     11  C   UNL     1      44.151  10.877  11.572  0.00  0.00    +0.000 C 
ATOM     12  C   UNL     1      42.791  10.316  11.103  0.00  0.00    +0.000 C 
ATOM     13  N   UNL     1      43.271  10.265   9.710  0.00  0.00    +0.000 NA
ATOM     14  C   UNL     1      42.620  11.306   8.916  0.00  0.00    +0.000 C 
ATOM     15  C   UNL     1      44.626  10.679  10.118  0.00  0.00    +0.000 C 
ENDBRANCH   9  11
ENDBRANCH   8   9
BRANCH   6  16
ATOM     16  C   UNL     1      44.932   5.099  11.614  0.00  0.00    +0.000 C 
BRANCH  16  17
ATOM     17  C   UNL     1      43.918   5.029  10.478  0.00  0.00    +0.000 C 
BRANCH  17  18
ATOM     18  O   UNL     1      43.735   3.666  10.076  0.00  0.00    +0.000 OA
BRANCH  18  19
ATOM     19  C   UNL     1      44.683   3.286   9.146  0.00  0.00    +0.000 A 
ATOM     20  C   UNL     1      45.096   1.964   9.178  0.00  0.00    +0.000 A 
ATOM     21  C   UNL     1      46.049   1.547   8.248  0.00  0.00    +0.000 A 
ATOM     22  C   UNL     1      46.548   2.463   7.326  0.00  0.00    +0.000 A 
ATOM     23  C   UNL     1      46.061   3.764   7.361  0.00  0.00    +0.000 A 
ATOM     24  N   UNL     1      45.150   4.196   8.259  0.00  0.00    +0.000 NA
BRANCH  22  25
ATOM     25  C   UNL     1      47.549   2.127   6.288  0.00  0.00    +0.000 C 
ATOM     26  N   UNL     1      48.794   2.682   6.411  0.00  0.00    +0.000 N 
ATOM     27  O   UNL     1      47.269   1.415   5.333  0.00  0.00    +0.000 OA
ATOM     28  H   UNL     1      48.993   3.450   7.033  0.00  0.00    +0.000 HD
ATOM     29  H   UNL     1      49.429   2.525   5.640  0.00  0.00    +0.000 HD
ENDBRANCH  22  25
ENDBRANCH  18  19
ENDBRANCH  17  18
ENDBRANCH  16  17
ENDBRANCH   6  16
TORSDOF 7
ENDMDL
MODEL 3
REMARK VINA RESULT:    -7.408      1.432      1.673
REMARK INTER + INTRA:         -11.292
REMARK INTER:                 -10.412
REMARK INTRA:                  -0.880
REMARK UNBOUND:                -0.852
REMARK  Name = 
REMARK  9 active torsions:
REMARK  status: ('A' for Active; 'I' for Inactive)
REMARK    1  A    between atoms: C_1  and  C_2
REMARK    2  A    between atoms: C_6  and  C_7
REMARK    3  A    between atoms: C_7  and  C_8
REMARK    4  A    between atoms: C_8  and  O_9
REMARK    5  A    between atoms: O_9  and  C_10
REMARK    6  A    between atoms: C_13  and  C_14
REMARK    7  A    between atoms: C_20  and  N_21
REMARK    8  A    between atoms: N_21  and  C_22
REMARK    9  A    between atoms: N_24  and  C_25
REMARK                            x       y       z     vdW  Elec       q    Type
REMARK                         _______ _______ _______ _____ _____    ______ ____
ROOT
ATOM      1  C   UNL     1      47.026   9.082  12.148  0.00  0.00    +0.000 C 
ATOM      2  C   UNL     1      46.142   7.864  12.222  0.00  0.00    +0.000 A 
ATOM      3  C   UNL     1      44.830   7.867  11.710  0.00  0.00    +0.000 A 
ATOM      4 CL   UNL     1      44.130   9.249  10.937  0.00  0.00    +0.000 Cl
ATOM      5  C   UNL     1      44.014   6.736  11.810  0.00  0.00    +0.000 A 
ATOM      6  C   UNL     1      44.476   5.571  12.427  0.00  0.00    +0.000 A 
ATOM      7  C   UNL     1      45.774   5.574  12.960  0.00  0.00    +0.000 A 
ATOM      8  C   UNL     1      46.619   6.690  12.858  0.00  0.00    +0.000 A 
ENDROOT
BRANCH   8   9
ATOM      9  N   UNL     1      47.916   6.666  13.436  0.00  0.00    +0.000 N 
ATOM     10  H   UNL     1      48.463   5.881  13.082  0.00  0.00    +0.000 HD
BRANCH   9  11
ATOM     11  C   UNL     1      48.269   7.045  14.785  0.00  0.00    +0.000 C 
ATOM     12  C   UNL     1      49.787   7.267  14.949  0.00  0.00    +0.000 C 
ATOM     13  N   UNL     1      49.846   6.227  15.991  0.00  0.00    +0.000 NA
ATOM     14  C   UNL     1      50.057   6.840  17.302  0.00  0.00    +0.000 C 
ATOM     15  C   UNL     1      48.426   5.885  15.789  0.00  0.00    +0.000 C 
ENDBRANCH   9  11
ENDBRANCH   8   9
BRANCH   6  16
ATOM     16  C   UNL     1      43.549   4.375  12.477  0.00  0.00    +0.000 C 
BRANCH  16  17
ATOM     17  C   UNL     1      43.893   3.240  11.519  0.00  0.00    +0.000 C 
BRANCH  17  18
ATOM     18  O   UNL     1      43.618   3.643  10.172  0.00  0.00    +0.000 OA
BRANCH  18  19
ATOM     19  C   UNL     1      44.621   3.237   9.314  0.00  0.00    +0.000 A 
ATOM     20  C   UNL     1      45.293   4.231   8.621  0.00  0.00    +0.000 A 
ATOM     21  C   UNL     1      46.316   3.855   7.750  0.00  0.00    +0.000 A 
ATOM     22  C   UNL     1      46.626   2.504   7.608  0.00  0.00    +0.000 A 
ATOM     23  C   UNL     1      45.908   1.581   8.357  0.00  0.00    +0.000 A 
ATOM     24  N   UNL     1      44.905   1.919   9.195  0.00  0.00    +0.000 NA
BRANCH  22  25
ATOM     25  C   UNL     1      47.699   1.994   6.723  0.00  0.00    +0.000 C 
ATOM     26  N   UNL     1      48.545   2.912   6.164  0.00  0.00    +0.000 N 
ATOM     27  O   UNL     1      47.805   0.802   6.467  0.00  0.00    +0.000 OA
ATOM     28  H   UNL     1      48.350   3.901   6.153  0.00  0.00    +0.000 HD
ATOM     29  H   UNL     1      49.202   2.554   5.483  0.00  0.00    +0.000 HD
ENDBRANCH  22  25
ENDBRANCH  18  19
ENDBRANCH  17  18
ENDBRANCH  16  17
ENDBRANCH   6  16
TORSDOF 7
ENDMDL
MODEL 4
REMARK VINA RESULT:    -7.329      2.566      4.397
REMARK INTER + INTRA:         -11.180
REMARK INTER:                 -10.339
REMARK INTRA:                  -0.841
REMARK UNBOUND:                -0.852
REMARK  Name = 
REMARK  9 active torsions:
REMARK  status: ('A' for Active; 'I' for Inactive)
REMARK    1  A    between atoms: C_1  and  C_2
REMARK    2  A    between atoms: C_6  and  C_7
REMARK    3  A    between atoms: C_7  and  C_8
REMARK    4  A    between atoms: C_8  and  O_9
REMARK    5  A    between atoms: O_9  and  C_10
REMARK    6  A    between atoms: C_13  and  C_14
REMARK    7  A    between atoms: C_20  and  N_21
REMARK    8  A    between atoms: N_21  and  C_22
REMARK    9  A    between atoms: N_24  and  C_25
REMARK                            x       y       z     vdW  Elec       q    Type
REMARK                         _______ _______ _______ _____ _____    ______ ____
ROOT
ATOM      1  C   UNL     1      48.604   6.932  14.108  0.00  0.00    +0.000 C 
ATOM      2  C   UNL     1      47.321   6.293  13.642  0.00  0.00    +0.000 A 
ATOM      3  C   UNL     1      46.879   5.057  14.153  0.00  0.00    +0.000 A 
ATOM      4 CL   UNL     1      47.749   4.181  15.367  0.00  0.00    +0.000 Cl
ATOM      5  C   UNL     1      45.700   4.465  13.690  0.00  0.00    +0.000 A 
ATOM      6  C   UNL     1      44.929   5.081  12.701  0.00  0.00    +0.000 A 
ATOM      7  C   UNL     1      45.380   6.300  12.173  0.00  0.00    +0.000 A 
ATOM      8  C   UNL     1      46.552   6.923  12.632  0.00  0.00    +0.000 A 
ENDROOT
BRANCH   8   9
ATOM      9  N   UNL     1      46.992   8.143  12.053  0.00  0.00    +0.000 N 
ATOM     10  H   UNL     1      47.956   8.070  11.729  0.00  0.00    +0.000 HD
BRANCH   9  11
ATOM     11  C   UNL     1      46.629   9.478  12.470  0.00  0.00    +0.000 C 
ATOM     12  C   UNL     1      45.500  10.072  11.601  0.00  0.00    +0.000 C 
ATOM     13  N   UNL     1      46.364  11.201  11.215  0.00  0.00    +0.000 NA
ATOM     14  C   UNL     1      45.911  12.428  11.870  0.00  0.00    +0.000 C 
ATOM     15  C   UNL     1      47.516  10.616  11.926  0.00  0.00    +0.000 C 
ENDBRANCH   9  11
ENDBRANCH   8   9
BRANCH   6  16
ATOM     16  C   UNL     1      43.650   4.398  12.267  0.00  0.00    +0.000 C 
BRANCH  16  17
ATOM     17  C   UNL     1      43.827   3.222  11.313  0.00  0.00    +0.000 C 
BRANCH  17  18
ATOM     18  O   UNL     1      43.605   3.655   9.965  0.00  0.00    +0.000 OA
BRANCH  18  19
ATOM     19  C   UNL     1      44.618   3.228   9.129  0.00  0.00    +0.000 A 
ATOM     20  C   UNL     1      45.230   4.193   8.345  0.00  0.00    +0.000 A 
ATOM     21  C   UNL     1      46.262   3.796   7.494  0.00  0.00    +0.000 A 
ATOM     22  C   UNL     1      46.640   2.456   7.460  0.00  0.00    +0.000 A 
ATOM     23  C   UNL     1      45.979   1.565   8.295  0.00  0.00    +0.000 A 
ATOM     24  N   UNL     1      44.969   1.921   9.117  0.00  0.00    +0.000 NA
BRANCH  22  25
ATOM     25  C   UNL     1      47.728   1.927   6.606  0.00  0.00    +0.000 C 
ATOM     26  N   UNL     1      48.806   2.740   6.383  0.00  0.00    +0.000 N 
ATOM     27  O   UNL     1      47.654   0.823   6.083  0.00  0.00    +0.000 OA
ATOM     28  H   UNL     1      48.800   3.727   6.589  0.00  0.00    +0.000 HD
ATOM     29  H   UNL     1      49.487   2.403   5.715  0.00  0.00    +0.000 HD
ENDBRANCH  22  25
ENDBRANCH  18  19
ENDBRANCH  17  18
ENDBRANCH  16  17
ENDBRANCH   6  16
TORSDOF 7
ENDMDL
MODEL 5
REMARK VINA RESULT:    -7.186      2.549      3.874
REMARK INTER + INTRA:         -10.979
REMARK INTER:                 -10.145
REMARK INTRA:                  -0.834
REMARK UNBOUND:                -0.852
REMARK  Name = 
REMARK  9 active torsions:
REMARK  status: ('A' for Active; 'I' for Inactive)
REMARK    1  A    between atoms: C_1  and  C_2
REMARK    2  A    between atoms: C_6  and  C_7
REMARK    3  A    between atoms: C_7  and  C_8
REMARK    4  A    between atoms: C_8  and  O_9
REMARK    5  A    between atoms: O_9  and  C_10
REMARK    6  A    between atoms: C_13  and  C_14
REMARK    7  A    between atoms: C_20  and  N_21
REMARK    8  A    between atoms: N_21  and  C_22
REMARK    9  A    between atoms: N_24  and  C_25
REMARK                            x       y       z     vdW  Elec       q    Type
REMARK                         _______ _______ _______ _____ _____    ______ ____
ROOT
ATOM      1  C   UNL     1      48.688   6.508  14.880  0.00  0.00    +0.000 C 
ATOM      2  C   UNL     1      47.428   6.324  14.073  0.00  0.00    +0.000 A 
ATOM      3  C   UNL     1      46.755   5.087  14.020  0.00  0.00    +0.000 A 
ATOM      4 CL   UNL     1      47.296   3.689  14.887  0.00  0.00    +0.000 Cl
ATOM      5  C   UNL     1      45.603   4.926  13.244  0.00  0.00    +0.000 A 
ATOM      6  C   UNL     1      45.089   5.987  12.495  0.00  0.00    +0.000 A 
ATOM      7  C   UNL     1      45.771   7.213  12.527  0.00  0.00    +0.000 A 
ATOM      8  C   UNL     1      46.921   7.405  13.310  0.00  0.00    +0.000 A 
ENDROOT
BRANCH   8   9
ATOM      9  N   UNL     1      47.602   8.652  13.294  0.00  0.00    +0.000 N 
ATOM     10  H   UNL     1      47.004   9.403  13.638  0.00  0.00    +0.000 HD
BRANCH   9  11
ATOM     11  C   UNL     1      48.570   9.095  12.317  0.00  0.00    +0.000 C 
ATOM     12  C   UNL     1      49.227   7.913  11.572  0.00  0.00    +0.000 C 
ATOM     13  N   UNL     1      50.561   8.340  12.030  0.00  0.00    +0.000 NA
ATOM     14  C   UNL     1      51.321   8.900  10.913  0.00  0.00    +0.000 C 
ATOM     15  C   UNL     1      49.978   9.410  12.861  0.00  0.00    +0.000 C 
ENDBRANCH   9  11
ENDBRANCH   8   9
BRANCH   6  16
ATOM     16  C   UNL     1      43.823   5.750  11.700  0.00  0.00    +0.000 C 
BRANCH  16  17
ATOM     17  C   UNL     1      43.702   4.374  11.056  0.00  0.00    +0.000 C 
BRANCH  17  18
ATOM     18  O   UNL     1      43.551   4.515   9.638  0.00  0.00    +0.000 OA
BRANCH  18  19
ATOM     19  C   UNL     1      44.537   3.826   8.959  0.00  0.00    +0.000 A 
ATOM     20  C   UNL     1      44.629   2.465   9.201  0.00  0.00    +0.000 A 
ATOM     21  C   UNL     1      45.610   1.738   8.525  0.00  0.00    +0.000 A 
ATOM     22  C   UNL     1      46.456   2.398   7.637  0.00  0.00    +0.000 A 
ATOM     23  C   UNL     1      46.276   3.762   7.448  0.00  0.00    +0.000 A 
ATOM     24  N   UNL     1      45.344   4.490   8.099  0.00  0.00    +0.000 NA
BRANCH  22  25
ATOM     25  C   UNL     1      47.521   1.726   6.859  0.00  0.00    +0.000 C 
ATOM     26  N   UNL     1      48.622   2.467   6.526  0.00  0.00    +0.000 N 
ATOM     27  O   UNL     1      47.410   0.564   6.490  0.00  0.00    +0.000 OA
ATOM     28  H   UNL     1      48.647   3.473   6.597  0.00  0.00    +0.000 HD
ATOM     29  H   UNL     1      49.287   2.023   5.907  0.00  0.00    +0.000 HD
ENDBRANCH  22  25
ENDBRANCH  18  19
ENDBRANCH  17  18
ENDBRANCH  16  17
ENDBRANCH   6  16
TORSDOF 7
ENDMDL
MODEL 6
REMARK VINA RESULT:    -6.514      3.141      3.726
REMARK INTER + INTRA:         -10.031
REMARK INTER:                  -9.505
REMARK INTRA:                  -0.526
REMARK UNBOUND:                -0.852
REMARK  Name = 
REMARK  9 active torsions:
REMARK  status: ('A' for Active; 'I' for Inactive)
REMARK    1  A    between atoms: C_1  and  C_2
REMARK    2  A    between atoms: C_6  and  C_7
REMARK    3  A    between atoms: C_7  and  C_8
REMARK    4  A    between atoms: C_8  and  O_9
REMARK    5  A    between atoms: O_9  and  C_10
REMARK    6  A    between atoms: C_13  and  C_14
REMARK    7  A    between atoms: C_20  and  N_21
REMARK    8  A    between atoms: N_21  and  C_22
REMARK    9  A    between atoms: N_24  and  C_25
REMARK                            x       y       z     vdW  Elec       q    Type
REMARK                         _______ _______ _______ _____ _____    ______ ____
ROOT
ATOM      1  C   UNL     1      45.786  10.745  11.809  0.00  0.00    +0.000 C 
ATOM      2  C   UNL     1      45.601   9.250  11.780  0.00  0.00    +0.000 A 
ATOM      3  C   UNL     1      44.400   8.658  11.341  0.00  0.00    +0.000 A 
ATOM      4 CL   UNL     1      43.051   9.586  10.779  0.00  0.00    +0.000 Cl
ATOM      5  C   UNL     1      44.236   7.270  11.347  0.00  0.00    +0.000 A 
ATOM      6  C   UNL     1      45.258   6.428  11.794  0.00  0.00    +0.000 A 
ATOM      7  C   UNL     1      46.446   7.016  12.255  0.00  0.00    +0.000 A 
ATOM      8  C   UNL     1      46.642   8.407  12.245  0.00  0.00    +0.000 A 
ENDROOT
BRANCH   8   9
ATOM      9  N   UNL     1      47.847   8.967  12.746  0.00  0.00    +0.000 N 
ATOM     10  H   UNL     1      47.657   9.710  13.419  0.00  0.00    +0.000 HD
BRANCH   9  11
ATOM     11  C   UNL     1      49.079   9.160  12.017  0.00  0.00    +0.000 C 
ATOM     12  C   UNL     1      49.834   7.832  11.789  0.00  0.00    +0.000 C 
ATOM     13  N   UNL     1      51.012   8.357  12.502  0.00  0.00    +0.000 NA
ATOM     14  C   UNL     1      52.093   8.629  11.555  0.00  0.00    +0.000 C 
ATOM     15  C   UNL     1      50.296   9.597  12.857  0.00  0.00    +0.000 C 
ENDBRANCH   9  11
ENDBRANCH   8   9
BRANCH   6  16
ATOM     16  C   UNL     1      45.022   4.934  11.747  0.00  0.00    +0.000 C 
BRANCH  16  17
ATOM     17  C   UNL     1      43.636   4.504  11.280  0.00  0.00    +0.000 C 
BRANCH  17  18
ATOM     18  O   UNL     1      43.543   4.632   9.856  0.00  0.00    +0.000 OA
BRANCH  18  19
ATOM     19  C   UNL     1      44.437   3.793   9.219  0.00  0.00    +0.000 A 
ATOM     20  C   UNL     1      45.366   4.388   8.382  0.00  0.00    +0.000 A 
ATOM     21  C   UNL     1      46.287   3.569   7.728  0.00  0.00    +0.000 A 
ATOM     22  C   UNL     1      46.243   2.193   7.937  0.00  0.00    +0.000 A 
ATOM     23  C   UNL     1      45.285   1.689   8.808  0.00  0.00    +0.000 A 
ATOM     24  N   UNL     1      44.375   2.459   9.442  0.00  0.00    +0.000 NA
BRANCH  22  25
ATOM     25  C   UNL     1      47.178   1.233   7.306  0.00  0.00    +0.000 C 
ATOM     26  N   UNL     1      46.920  -0.101   7.475  0.00  0.00    +0.000 N 
ATOM     27  O   UNL     1      48.167   1.610   6.692  0.00  0.00    +0.000 OA
ATOM     28  H   UNL     1      46.270  -0.451   8.161  0.00  0.00    +0.000 HD
ATOM     29  H   UNL     1      47.625  -0.737   7.127  0.00  0.00    +0.000 HD
ENDBRANCH  22  25
ENDBRANCH  18  19
ENDBRANCH  17  18
ENDBRANCH  16  17
ENDBRANCH   6  16
TORSDOF 7
ENDMDL
MODEL 7
REMARK VINA RESULT:    -6.338      5.101      8.285
REMARK INTER + INTRA:          -9.784
REMARK INTER:                  -8.835
REMARK INTRA:                  -0.949
REMARK UNBOUND:                -0.852
REMARK  Name = 
REMARK  9 active torsions:
REMARK  status: ('A' for Active; 'I' for Inactive)
REMARK    1  A    between atoms: C_1  and  C_2
REMARK    2  A    between atoms: C_6  and  C_7
REMARK    3  A    between atoms: C_7  and  C_8
REMARK    4  A    between atoms: C_8  and  O_9
REMARK    5  A    between atoms: O_9  and  C_10
REMARK    6  A    between atoms: C_13  and  C_14
REMARK    7  A    between atoms: C_20  and  N_21
REMARK    8  A    between atoms: N_21  and  C_22
REMARK    9  A    between atoms: N_24  and  C_25
REMARK                            x       y       z     vdW  Elec       q    Type
REMARK                         _______ _______ _______ _____ _____    ______ ____
ROOT
ATOM      1  C   UNL     1      45.931   4.526  13.395  0.00  0.00    +0.000 C 
ATOM      2  C   UNL     1      45.845   5.965  12.953  0.00  0.00    +0.000 A 
ATOM      3  C   UNL     1      46.810   6.917  13.336  0.00  0.00    +0.000 A 
ATOM      4 CL   UNL     1      48.179   6.519  14.320  0.00  0.00    +0.000 Cl
ATOM      5  C   UNL     1      46.701   8.253  12.940  0.00  0.00    +0.000 A 
ATOM      6  C   UNL     1      45.627   8.684  12.157  0.00  0.00    +0.000 A 
ATOM      7  C   UNL     1      44.652   7.742  11.794  0.00  0.00    +0.000 A 
ATOM      8  C   UNL     1      44.747   6.391  12.165  0.00  0.00    +0.000 A 
ENDROOT
BRANCH   8   9
ATOM      9  N   UNL     1      43.725   5.473  11.804  0.00  0.00    +0.000 N 
ATOM     10  H   UNL     1      43.360   4.986  12.623  0.00  0.00    +0.000 HD
BRANCH   9  11
ATOM     11  C   UNL     1      43.660   4.684  10.596  0.00  0.00    +0.000 C 
ATOM     12  C   UNL     1      43.771   3.171  10.882  0.00  0.00    +0.000 C 
ATOM     13  N   UNL     1      44.966   3.078  10.024  0.00  0.00    +0.000 NA
ATOM     14  C   UNL     1      44.641   2.375   8.783  0.00  0.00    +0.000 C 
ATOM     15  C   UNL     1      44.983   4.538   9.817  0.00  0.00    +0.000 C 
ENDBRANCH   9  11
ENDBRANCH   8   9
BRANCH   6  16
ATOM     16  C   UNL     1      45.587  10.139  11.741  0.00  0.00    +0.000 C 
BRANCH  16  17
ATOM     17  C   UNL     1      44.379  10.548  10.907  0.00  0.00    +0.000 C 
BRANCH  17  18
ATOM     18  O   UNL     1      43.667  11.600  11.570  0.00  0.00    +0.000 OA
BRANCH  18  19
ATOM     19  C   UNL     1      42.321  11.308  11.670  0.00  0.00    +0.000 A 
ATOM     20  C   UNL     1      41.807  10.406  10.753  0.00  0.00    +0.000 A 
ATOM     21  C   UNL     1      40.451  10.084  10.831  0.00  0.00    +0.000 A 
ATOM     22  C   UNL     1      39.667  10.673  11.820  0.00  0.00    +0.000 A 
ATOM     23  C   UNL     1      40.276  11.554  12.705  0.00  0.00    +0.000 A 
ATOM     24  N   UNL     1      41.581  11.892  12.642  0.00  0.00    +0.000 NA
BRANCH  22  25
ATOM     25  C   UNL     1      38.224  10.395  12.003  0.00  0.00    +0.000 C 
ATOM     26  N   UNL     1      37.414  11.451  12.320  0.00  0.00    +0.000 N 
ATOM     27  O   UNL     1      37.774   9.261  11.917  0.00  0.00    +0.000 OA
ATOM     28  H   UNL     1      37.771  12.341  12.633  0.00  0.00    +0.000 HD
ATOM     29  H   UNL     1      36.454  11.225  12.542  0.00  0.00    +0.000 HD
ENDBRANCH  22  25
ENDBRANCH  18  19
ENDBRANCH  17  18
ENDBRANCH  16  17
ENDBRANCH   6  16
TORSDOF 7
ENDMDL
MODEL 8
REMARK VINA RESULT:    -6.305      4.147      6.581
REMARK INTER + INTRA:          -9.737
REMARK INTER:                  -9.066
REMARK INTRA:                  -0.671
REMARK UNBOUND:                -0.852
REMARK  Name = 
REMARK  9 active torsions:
REMARK  status: ('A' for Active; 'I' for Inactive)
REMARK    1  A    between atoms: C_1  and  C_2
REMARK    2  A    between atoms: C_6  and  C_7
REMARK    3  A    between atoms: C_7  and  C_8
REMARK    4  A    between atoms: C_8  and  O_9
REMARK    5  A    between atoms: O_9  and  C_10
REMARK    6  A    between atoms: C_13  and  C_14
REMARK    7  A    between atoms: C_20  and  N_21
REMARK    8  A    between atoms: N_21  and  C_22
REMARK    9  A    between atoms: N_24  and  C_25
REMARK                            x       y       z     vdW  Elec       q    Type
REMARK                         _______ _______ _______ _____ _____    ______ ____
ROOT
ATOM      1  C   UNL     1      53.341   3.753  18.765  0.00  0.00    +0.000 C 
ATOM      2  C   UNL     1      51.948   3.519  18.239  0.00  0.00    +0.000 A 
ATOM      3  C   UNL     1      51.569   2.292  17.660  0.00  0.00    +0.000 A 
ATOM      4 CL   UNL     1      52.652   0.948  17.524  0.00  0.00    +0.000 Cl
ATOM      5  C   UNL     1      50.281   2.102  17.152  0.00  0.00    +0.000 A 
ATOM      6  C   UNL     1      49.332   3.126  17.199  0.00  0.00    +0.000 A 
ATOM      7  C   UNL     1      49.715   4.358  17.753  0.00  0.00    +0.000 A 
ATOM      8  C   UNL     1      50.997   4.570  18.284  0.00  0.00    +0.000 A 
ENDROOT
BRANCH   8   9
ATOM      9  N   UNL     1      51.357   5.839  18.810  0.00  0.00    +0.000 N 
ATOM     10  H   UNL     1      50.833   6.049  19.659  0.00  0.00    +0.000 HD
BRANCH   9  11
ATOM     11  C   UNL     1      51.714   7.018  18.054  0.00  0.00    +0.000 C 
ATOM     12  C   UNL     1      50.476   7.727  17.464  0.00  0.00    +0.000 C 
ATOM     13  N   UNL     1      51.010   7.566  16.100  0.00  0.00    +0.000 NA
ATOM     14  C   UNL     1      51.457   8.858  15.579  0.00  0.00    +0.000 C 
ATOM     15  C   UNL     1      52.151   6.773  16.595  0.00  0.00    +0.000 C 
ENDBRANCH   9  11
ENDBRANCH   8   9
BRANCH   6  16
ATOM     16  C   UNL     1      47.949   2.842  16.656  0.00  0.00    +0.000 C 
BRANCH  16  17
ATOM     17  C   UNL     1      47.404   3.876  15.678  0.00  0.00    +0.000 C 
BRANCH  17  18
ATOM     18  O   UNL     1      47.466   3.360  14.343  0.00  0.00    +0.000 OA
BRANCH  18  19
ATOM     19  C   UNL     1      46.430   3.844  13.569  0.00  0.00    +0.000 A 
ATOM     20  C   UNL     1      46.219   5.213  13.593  0.00  0.00    +0.000 A 
ATOM     21  C   UNL     1      45.183   5.736  12.817  0.00  0.00    +0.000 A 
ATOM     22  C   UNL     1      44.404   4.874  12.051  0.00  0.00    +0.000 A 
ATOM     23  C   UNL     1      44.702   3.517  12.079  0.00  0.00    +0.000 A 
ATOM     24  N   UNL     1      45.689   2.985  12.831  0.00  0.00    +0.000 NA
BRANCH  22  25
ATOM     25  C   UNL     1      43.290   5.319  11.183  0.00  0.00    +0.000 C 
ATOM     26  N   UNL     1      42.246   5.970  11.782  0.00  0.00    +0.000 N 
ATOM     27  O   UNL     1      43.278   5.082   9.982  0.00  0.00    +0.000 OA
ATOM     28  H   UNL     1      42.102   5.973  12.780  0.00  0.00    +0.000 HD
ATOM     29  H   UNL     1      41.450   6.173  11.191  0.00  0.00    +0.000 HD
ENDBRANCH  22  25
ENDBRANCH  18  19
ENDBRANCH  17  18
ENDBRANCH  16  17
ENDBRANCH   6  16
TORSDOF 7
ENDMDL
MODEL 9
REMARK VINA RESULT:    -6.240      3.341      5.235
REMARK INTER + INTRA:          -9.646
REMARK INTER:                  -8.719
REMARK INTRA:                  -0.927
REMARK UNBOUND:                -0.852
REMARK  Name = 
REMARK  9 active torsions:
REMARK  status: ('A' for Active; 'I' for Inactive)
REMARK    1  A    between atoms: C_1  and  C_2
REMARK    2  A    between atoms: C_6  and  C_7
REMARK    3  A    between atoms: C_7  and  C_8
REMARK    4  A    between atoms: C_8  and  O_9
REMARK    5  A    between atoms: O_9  and  C_10
REMARK    6  A    between atoms: C_13  and  C_14
REMARK    7  A    between atoms: C_20  and  N_21
REMARK    8  A    between atoms: N_21  and  C_22
REMARK    9  A    between atoms: N_24  and  C_25
REMARK                            x       y       z     vdW  Elec       q    Type
REMARK                         _______ _______ _______ _____ _____    ______ ____
ROOT
ATOM      1  C   UNL     1      48.161   6.337  19.963  0.00  0.00    +0.000 C 
ATOM      2  C   UNL     1      48.489   6.684  18.534  0.00  0.00    +0.000 A 
ATOM      3  C   UNL     1      48.898   7.980  18.160  0.00  0.00    +0.000 A 
ATOM      4 CL   UNL     1      49.081   9.269  19.301  0.00  0.00    +0.000 Cl
ATOM      5  C   UNL     1      49.172   8.292  16.825  0.00  0.00    +0.000 A 
ATOM      6  C   UNL     1      49.043   7.329  15.821  0.00  0.00    +0.000 A 
ATOM      7  C   UNL     1      48.612   6.045  16.188  0.00  0.00    +0.000 A 
ATOM      8  C   UNL     1      48.345   5.701  17.523  0.00  0.00    +0.000 A 
ENDROOT
BRANCH   8   9
ATOM      9  N   UNL     1      47.883   4.398  17.852  0.00  0.00    +0.000 N 
ATOM     10  H   UNL     1      47.084   4.439  18.484  0.00  0.00    +0.000 HD
BRANCH   9  11
ATOM     11  C   UNL     1      48.691   3.214  18.030  0.00  0.00    +0.000 C 
ATOM     12  C   UNL     1      50.202   3.532  18.004  0.00  0.00    +0.000 C 
ATOM     13  N   UNL     1      50.393   2.619  16.863  0.00  0.00    +0.000 NA
ATOM     14  C   UNL     1      51.098   1.413  17.296  0.00  0.00    +0.000 C 
ATOM     15  C   UNL     1      48.942   2.375  16.761  0.00  0.00    +0.000 C 
ENDBRANCH   9  11
ENDBRANCH   8   9
BRANCH   6  16
ATOM     16  C   UNL     1      49.382   7.729  14.402  0.00  0.00    +0.000 C 
BRANCH  16  17
ATOM     17  C   UNL     1      48.731   6.887  13.311  0.00  0.00    +0.000 C 
BRANCH  17  18
ATOM     18  O   UNL     1      47.408   7.372  13.050  0.00  0.00    +0.000 OA
BRANCH  18  19
ATOM     19  C   UNL     1      46.568   6.349  12.656  0.00  0.00    +0.000 A 
ATOM     20  C   UNL     1      46.168   6.344  11.330  0.00  0.00    +0.000 A 
ATOM     21  C   UNL     1      45.324   5.320  10.898  0.00  0.00    +0.000 A 
ATOM     22  C   UNL     1      44.917   4.345  11.805  0.00  0.00    +0.000 A 
ATOM     23  C   UNL     1      45.384   4.424  13.110  0.00  0.00    +0.000 A 
ATOM     24  N   UNL     1      46.189   5.412  13.556  0.00  0.00    +0.000 NA
BRANCH  22  25
ATOM     25  C   UNL     1      44.035   3.209  11.453  0.00  0.00    +0.000 C 
ATOM     26  N   UNL     1      43.639   2.381  12.468  0.00  0.00    +0.000 N 
ATOM     27  O   UNL     1      43.703   2.988  10.296  0.00  0.00    +0.000 OA
ATOM     28  H   UNL     1      44.074   2.382  13.378  0.00  0.00    +0.000 HD
ATOM     29  H   UNL     1      43.125   1.554  12.193  0.00  0.00    +0.000 HD
ENDBRANCH  22  25
ENDBRANCH  18  19
ENDBRANCH  17  18
ENDBRANCH  16  17
ENDBRANCH   6  16
TORSDOF 7
ENDMDL
