MODEL 1
REMARK VINA RESULT:    -7.822      0.000      0.000
REMARK INTER + INTRA:         -11.771
REMARK INTER:                 -10.565
REMARK INTRA:                  -1.206
REMARK UNBOUND:                -1.206
REMARK  Name = 
REMARK  7 active torsions:
REMARK  status: ('A' for Active; 'I' for Inactive)
REMARK    1  A    between atoms: C_1  and  O_2
REMARK    2  A    between atoms: O_2  and  C_3
REMARK    3  A    between atoms: C_5  and  C_6
REMARK    4  A    between atoms: C_11  and  N_12
REMARK    5  A    between atoms: N_12  and  C_13
REMARK    6  A    between atoms: C_13  and  C_14
REMARK    7  A    between atoms: C_18  and  C_19
REMARK                            x       y       z     vdW  Elec       q    Type
REMARK                         _______ _______ _______ _____ _____    ______ ____
ROOT
ATOM      1  N   UNL     1      44.341   6.893  12.668  0.00  0.00    +0.000 N 
ATOM      2  H   UNL     1      44.071   6.372  13.495  0.00  0.00    +0.000 HD
ENDROOT
BRANCH   1   8
ATOM      3  C   UNL     1      46.570   6.134  13.263  0.00  0.00    +0.000 A 
ATOM      4  C   UNL     1      47.949   6.370  13.282  0.00  0.00    +0.000 A 
ATOM      5  C   UNL     1      48.468   7.531  12.706  0.00  0.00    +0.000 A 
ATOM      6  C   UNL     1      47.569   8.405  12.122  0.00  0.00    +0.000 A 
ATOM      7  N   UNL     1      46.229   8.208  12.082  0.00  0.00    +0.000 NA
ATOM      8  C   UNL     1      45.728   7.076  12.630  0.00  0.00    +0.000 A 
BRANCH   5   9
ATOM      9  C   UNL     1      49.933   7.761  12.751  0.00  0.00    +0.000 C 
ATOM     10  N   UNL     1      50.708   7.336  11.709  0.00  0.00    +0.000 N 
ATOM     11  O   UNL     1      50.452   8.327  13.706  0.00  0.00    +0.000 OA
ATOM     12  H   UNL     1      50.389   6.861  10.880  0.00  0.00    +0.000 HD
ATOM     13  H   UNL     1      51.701   7.522  11.784  0.00  0.00    +0.000 HD
ENDBRANCH   5   9
BRANCH   3  15
ATOM     14  C   UNL     1      46.507   3.760  13.383  0.00  0.00    +0.000 C 
ATOM     15  O   UNL     1      45.975   5.015  13.800  0.00  0.00    +0.000 OA
ENDBRANCH   3  15
ENDBRANCH   1   8
BRANCH   1  16
ATOM     16  C   UNL     1      43.649   6.518  11.446  0.00  0.00    +0.000 C 
BRANCH  16  17
ATOM     17  C   UNL     1      43.802   5.057  11.093  0.00  0.00    +0.000 A 
ATOM     18  C   UNL     1      43.151   4.061  11.821  0.00  0.00    +0.000 A 
ATOM     19  C   UNL     1      43.275   2.747  11.400  0.00  0.00    +0.000 A 
ATOM     20  N   UNL     1      44.015   2.359  10.338  0.00  0.00    +0.000 NA
ATOM     21  C   UNL     1      44.685   3.316   9.647  0.00  0.00    +0.000 A 
ATOM     22  C   UNL     1      44.579   4.665   9.993  0.00  0.00    +0.000 A 
BRANCH  21  23
ATOM     23  C   UNL     1      45.529   2.838   8.526  0.00  0.00    +0.000 A 
ATOM     24  C   UNL     1      45.997   1.510   8.481  0.00  0.00    +0.000 A 
ATOM     25  C   UNL     1      46.818   1.055   7.441  0.00  0.00    +0.000 A 
ATOM     26  C   UNL     1      47.189   1.923   6.417  0.00  0.00    +0.000 A 
ATOM     27  C   UNL     1      46.746   3.241   6.439  0.00  0.00    +0.000 A 
ATOM     28  C   UNL     1      45.927   3.690   7.480  0.00  0.00    +0.000 A 
ENDBRANCH  21  23
ENDBRANCH  16  17
ENDBRANCH   1  16
TORSDOF 6
ENDMDL
MODEL 2
REMARK VINA RESULT:    -7.482      1.377      2.039
REMARK INTER + INTRA:         -11.313
REMARK INTER:                 -10.496
REMARK INTRA:                  -0.816
REMARK UNBOUND:                -1.206
REMARK  Name = 
REMARK  7 active torsions:
REMARK  status: ('A' for Active; 'I' for Inactive)
REMARK    1  A    between atoms: C_1  and  O_2
REMARK    2  A    between atoms: O_2  and  C_3
REMARK    3  A    between atoms: C_5  and  C_6
REMARK    4  A    between atoms: C_11  and  N_12
REMARK    5  A    between atoms: N_12  and  C_13
REMARK    6  A    between atoms: C_13  and  C_14
REMARK    7  A    between atoms: C_18  and  C_19
REMARK                            x       y       z     vdW  Elec       q    Type
REMARK                         _______ _______ _______ _____ _____    ______ ____
ROOT
ATOM      1  N   UNL     1      43.954   6.646  12.610  0.00  0.00    +0.000 N 
ATOM      2  H   UNL     1      43.637   6.130  13.424  0.00  0.00    +0.000 HD
ENDROOT
BRANCH   1   8
ATOM      3  C   UNL     1      45.861   8.102  12.234  0.00  0.00    +0.000 A 
ATOM      4  C   UNL     1      47.249   8.280  12.232  0.00  0.00    +0.000 A 
ATOM      5  C   UNL     1      48.088   7.240  12.636  0.00  0.00    +0.000 A 
ATOM      6  C   UNL     1      47.487   6.060  13.037  0.00  0.00    +0.000 A 
ATOM      7  N   UNL     1      46.147   5.854  13.054  0.00  0.00    +0.000 NA
ATOM      8  C   UNL     1      45.335   6.867  12.673  0.00  0.00    +0.000 A 
BRANCH   5   9
ATOM      9  C   UNL     1      49.557   7.452  12.614  0.00  0.00    +0.000 C 
ATOM     10  N   UNL     1      50.257   7.396  13.785  0.00  0.00    +0.000 N 
ATOM     11  O   UNL     1      50.144   7.674  11.562  0.00  0.00    +0.000 OA
ATOM     12  H   UNL     1      49.877   7.224  14.703  0.00  0.00    +0.000 HD
ATOM     13  H   UNL     1      51.257   7.541  13.717  0.00  0.00    +0.000 HD
ENDBRANCH   5   9
BRANCH   3  15
ATOM     14  C   UNL     1      45.469  10.405  11.790  0.00  0.00    +0.000 C 
ATOM     15  O   UNL     1      44.962   9.074  11.858  0.00  0.00    +0.000 OA
ENDBRANCH   3  15
ENDBRANCH   1   8
BRANCH   1  16
ATOM     16  C   UNL     1      43.366   6.236  11.347  0.00  0.00    +0.000 C 
BRANCH  16  17
ATOM     17  C   UNL     1      43.651   4.795  10.991  0.00  0.00    +0.000 A 
ATOM     18  C   UNL     1      43.108   3.743  11.728  0.00  0.00    +0.000 A 
ATOM     19  C   UNL     1      43.351   2.446  11.304  0.00  0.00    +0.000 A 
ATOM     20  N   UNL     1      44.108   2.129  10.232  0.00  0.00    +0.000 NA
ATOM     21  C   UNL     1      44.674   3.145   9.531  0.00  0.00    +0.000 A 
ATOM     22  C   UNL     1      44.446   4.478   9.880  0.00  0.00    +0.000 A 
BRANCH  21  23
ATOM     23  C   UNL     1      45.543   2.748   8.399  0.00  0.00    +0.000 A 
ATOM     24  C   UNL     1      46.123   1.465   8.339  0.00  0.00    +0.000 A 
ATOM     25  C   UNL     1      46.968   1.089   7.287  0.00  0.00    +0.000 A 
ATOM     26  C   UNL     1      47.253   1.992   6.266  0.00  0.00    +0.000 A 
ATOM     27  C   UNL     1      46.698   3.268   6.301  0.00  0.00    +0.000 A 
ATOM     28  C   UNL     1      45.856   3.637   7.355  0.00  0.00    +0.000 A 
ENDBRANCH  21  23
ENDBRANCH  16  17
ENDBRANCH   1  16
TORSDOF 6
ENDMDL
MODEL 3
REMARK VINA RESULT:    -7.281      2.680      6.604
REMARK INTER + INTRA:         -11.040
REMARK INTER:                 -10.298
REMARK INTRA:                  -0.742
REMARK UNBOUND:                -1.206
REMARK  Name = 
REMARK  7 active torsions:
REMARK  status: ('A' for Active; 'I' for Inactive)
REMARK    1  A    between atoms: C_1  and  O_2
REMARK    2  A    between atoms: O_2  and  C_3
REMARK    3  A    between atoms: C_5  and  C_6
REMARK    4  A    between atoms: C_11  and  N_12
REMARK    5  A    between atoms: N_12  and  C_13
REMARK    6  A    between atoms: C_13  and  C_14
REMARK    7  A    between atoms: C_18  and  C_19
REMARK                            x       y       z     vdW  Elec       q    Type
REMARK                         _______ _______ _______ _____ _____    ______ ____
ROOT
ATOM      1  N   UNL     1      43.843   5.472  10.428  0.00  0.00    +0.000 N 
ATOM      2  H   UNL     1      42.931   5.681  10.036  0.00  0.00    +0.000 HD
ENDROOT
BRANCH   1   8
ATOM      3  C   UNL     1      44.175   3.104  10.000  0.00  0.00    +0.000 A 
ATOM      4  C   UNL     1      44.865   2.096   9.317  0.00  0.00    +0.000 A 
ATOM      5  C   UNL     1      45.841   2.431   8.376  0.00  0.00    +0.000 A 
ATOM      6  C   UNL     1      46.074   3.777   8.157  0.00  0.00    +0.000 A 
ATOM      7  N   UNL     1      45.424   4.779   8.798  0.00  0.00    +0.000 NA
ATOM      8  C   UNL     1      44.470   4.453   9.700  0.00  0.00    +0.000 A 
BRANCH   5   9
ATOM      9  C   UNL     1      46.565   1.343   7.674  0.00  0.00    +0.000 C 
ATOM     10  N   UNL     1      47.363   1.650   6.609  0.00  0.00    +0.000 N 
ATOM     11  O   UNL     1      46.457   0.178   8.039  0.00  0.00    +0.000 OA
ATOM     12  H   UNL     1      47.521   2.569   6.225  0.00  0.00    +0.000 HD
ATOM     13  H   UNL     1      47.840   0.874   6.167  0.00  0.00    +0.000 HD
ENDBRANCH   5   9
BRANCH   3  15
ATOM     14  C   UNL     1      43.645   2.435  12.219  0.00  0.00    +0.000 C 
ATOM     15  O   UNL     1      43.195   2.864  10.936  0.00  0.00    +0.000 OA
ENDBRANCH   3  15
ENDBRANCH   1   8
BRANCH   1  16
ATOM     16  C   UNL     1      44.624   6.626  10.834  0.00  0.00    +0.000 C 
BRANCH  16  17
ATOM     17  C   UNL     1      45.703   6.298  11.841  0.00  0.00    +0.000 A 
ATOM     18  C   UNL     1      45.505   5.335  12.830  0.00  0.00    +0.000 A 
ATOM     19  C   UNL     1      46.559   5.031  13.676  0.00  0.00    +0.000 A 
ATOM     20  N   UNL     1      47.768   5.631  13.624  0.00  0.00    +0.000 NA
ATOM     21  C   UNL     1      47.958   6.599  12.691  0.00  0.00    +0.000 A 
ATOM     22  C   UNL     1      46.952   6.934  11.784  0.00  0.00    +0.000 A 
BRANCH  21  23
ATOM     23  C   UNL     1      49.280   7.269  12.710  0.00  0.00    +0.000 A 
ATOM     24  C   UNL     1      49.905   7.615  13.924  0.00  0.00    +0.000 A 
ATOM     25  C   UNL     1      51.141   8.273  13.952  0.00  0.00    +0.000 A 
ATOM     26  C   UNL     1      51.782   8.602  12.761  0.00  0.00    +0.000 A 
ATOM     27  C   UNL     1      51.186   8.277  11.547  0.00  0.00    +0.000 A 
ATOM     28  C   UNL     1      49.951   7.620  11.525  0.00  0.00    +0.000 A 
ENDBRANCH  21  23
ENDBRANCH  16  17
ENDBRANCH   1  16
TORSDOF 6
ENDMDL
MODEL 4
REMARK VINA RESULT:    -7.035      3.348      4.106
REMARK INTER + INTRA:         -10.708
REMARK INTER:                 -10.043
REMARK INTRA:                  -0.665
REMARK UNBOUND:                -1.206
REMARK  Name = 
REMARK  7 active torsions:
REMARK  status: ('A' for Active; 'I' for Inactive)
REMARK    1  A    between atoms: C_1  and  O_2
REMARK    2  A    between atoms: O_2  and  C_3
REMARK    3  A    between atoms: C_5  and  C_6
REMARK    4  A    between atoms: C_11  and  N_12
REMARK    5  A    between atoms: N_12  and  C_13
REMARK    6  A    between atoms: C_13  and  C_14
REMARK    7  A    between atoms: C_18  and  C_19
REMARK                            x       y       z     vdW  Elec       q    Type
REMARK                         _______ _______ _______ _____ _____    ______ ____
ROOT
ATOM      1  N   UNL     1      46.912   4.856  13.687  0.00  0.00    +0.000 N 
ATOM      2  H   UNL     1      47.603   5.370  13.151  0.00  0.00    +0.000 HD
ENDROOT
BRANCH   1   8
ATOM      3  C   UNL     1      48.321   5.615  15.514  0.00  0.00    +0.000 A 
ATOM      4  C   UNL     1      48.738   5.474  16.842  0.00  0.00    +0.000 A 
ATOM      5  C   UNL     1      48.156   4.502  17.658  0.00  0.00    +0.000 A 
ATOM      6  C   UNL     1      47.164   3.717  17.100  0.00  0.00    +0.000 A 
ATOM      7  N   UNL     1      46.732   3.828  15.819  0.00  0.00    +0.000 NA
ATOM      8  C   UNL     1      47.290   4.778  15.033  0.00  0.00    +0.000 A 
BRANCH   5   9
ATOM      9  C   UNL     1      48.626   4.366  19.059  0.00  0.00    +0.000 C 
ATOM     10  N   UNL     1      48.431   3.184  19.716  0.00  0.00    +0.000 N 
ATOM     11  O   UNL     1      49.183   5.296  19.629  0.00  0.00    +0.000 OA
ATOM     12  H   UNL     1      47.984   2.360  19.347  0.00  0.00    +0.000 HD
ATOM     13  H   UNL     1      48.775   3.139  20.668  0.00  0.00    +0.000 HD
ENDBRANCH   5   9
BRANCH   3  15
ATOM     14  C   UNL     1      48.336   7.877  14.782  0.00  0.00    +0.000 C 
ATOM     15  O   UNL     1      48.835   6.548  14.643  0.00  0.00    +0.000 OA
ENDBRANCH   3  15
ENDBRANCH   1   8
BRANCH   1  16
ATOM     16  C   UNL     1      45.528   5.153  13.362  0.00  0.00    +0.000 C 
BRANCH  16  17
ATOM     17  C   UNL     1      44.936   4.214  12.336  0.00  0.00    +0.000 A 
ATOM     18  C   UNL     1      43.726   3.559  12.563  0.00  0.00    +0.000 A 
ATOM     19  C   UNL     1      43.204   2.768  11.551  0.00  0.00    +0.000 A 
ATOM     20  N   UNL     1      43.808   2.566  10.360  0.00  0.00    +0.000 NA
ATOM     21  C   UNL     1      45.006   3.167  10.145  0.00  0.00    +0.000 A 
ATOM     22  C   UNL     1      45.577   4.004  11.105  0.00  0.00    +0.000 A 
BRANCH  21  23
ATOM     23  C   UNL     1      45.658   2.870   8.848  0.00  0.00    +0.000 A 
ATOM     24  C   UNL     1      45.871   3.880   7.889  0.00  0.00    +0.000 A 
ATOM     25  C   UNL     1      46.461   3.604   6.650  0.00  0.00    +0.000 A 
ATOM     26  C   UNL     1      46.855   2.305   6.340  0.00  0.00    +0.000 A 
ATOM     27  C   UNL     1      46.653   1.286   7.265  0.00  0.00    +0.000 A 
ATOM     28  C   UNL     1      46.062   1.568   8.501  0.00  0.00    +0.000 A 
ENDBRANCH  21  23
ENDBRANCH  16  17
ENDBRANCH   1  16
TORSDOF 6
ENDMDL
MODEL 5
REMARK VINA RESULT:    -6.878      2.108      3.019
REMARK INTER + INTRA:         -10.496
REMARK INTER:                  -9.872
REMARK INTRA:                  -0.624
REMARK UNBOUND:                -1.206
REMARK  Name = 
REMARK  7 active torsions:
REMARK  status: ('A' for Active; 'I' for Inactive)
REMARK    1  A    between atoms: C_1  and  O_2
REMARK    2  A    between atoms: O_2  and  C_3
REMARK    3  A    between atoms: C_5  and  C_6
REMARK    4  A    between atoms: C_11  and  N_12
REMARK    5  A    between atoms: N_12  and  C_13
REMARK    6  A    between atoms: C_13  and  C_14
REMARK    7  A    between atoms: C_18  and  C_19
REMARK                            x       y       z     vdW  Elec       q    Type
REMARK                         _______ _______ _______ _____ _____    ______ ____
ROOT
ATOM      1  N   UNL     1      46.583   6.664  11.358  0.00  0.00    +0.000 N 
ATOM      2  H   UNL     1      46.938   7.544  11.001  0.00  0.00    +0.000 HD
ENDROOT
BRANCH   1   8
ATOM      3  C   UNL     1      48.012   7.306  13.215  0.00  0.00    +0.000 A 
ATOM      4  C   UNL     1      48.517   7.026  14.489  0.00  0.00    +0.000 A 
ATOM      5  C   UNL     1      48.083   5.893  15.180  0.00  0.00    +0.000 A 
ATOM      6  C   UNL     1      47.143   5.092  14.556  0.00  0.00    +0.000 A 
ATOM      7  N   UNL     1      46.630   5.334  13.325  0.00  0.00    +0.000 NA
ATOM      8  C   UNL     1      47.043   6.439  12.662  0.00  0.00    +0.000 A 
BRANCH   5   9
ATOM      9  C   UNL     1      48.643   5.613  16.525  0.00  0.00    +0.000 C 
ATOM     10  N   UNL     1      48.031   6.140  17.626  0.00  0.00    +0.000 N 
ATOM     11  O   UNL     1      49.644   4.918  16.657  0.00  0.00    +0.000 OA
ATOM     12  H   UNL     1      47.210   6.724  17.633  0.00  0.00    +0.000 HD
ATOM     13  H   UNL     1      48.448   5.915  18.521  0.00  0.00    +0.000 HD
ENDBRANCH   5   9
BRANCH   3  15
ATOM     14  C   UNL     1      49.760   8.494  12.126  0.00  0.00    +0.000 C 
ATOM     15  O   UNL     1      48.378   8.402  12.467  0.00  0.00    +0.000 OA
ENDBRANCH   3  15
ENDBRANCH   1   8
BRANCH   1  16
ATOM     16  C   UNL     1      45.193   6.382  11.047  0.00  0.00    +0.000 C 
BRANCH  16  17
ATOM     17  C   UNL     1      44.962   4.974  10.548  0.00  0.00    +0.000 A 
ATOM     18  C   UNL     1      44.041   4.127  11.165  0.00  0.00    +0.000 A 
ATOM     19  C   UNL     1      43.825   2.874  10.613  0.00  0.00    +0.000 A 
ATOM     20  N   UNL     1      44.473   2.404   9.525  0.00  0.00    +0.000 NA
ATOM     21  C   UNL     1      45.399   3.206   8.941  0.00  0.00    +0.000 A 
ATOM     22  C   UNL     1      45.646   4.493   9.422  0.00  0.00    +0.000 A 
BRANCH  21  23
ATOM     23  C   UNL     1      46.125   2.626   7.786  0.00  0.00    +0.000 A 
ATOM     24  C   UNL     1      46.339   3.371   6.610  0.00  0.00    +0.000 A 
ATOM     25  C   UNL     1      46.999   2.823   5.503  0.00  0.00    +0.000 A 
ATOM     26  C   UNL     1      47.464   1.511   5.549  0.00  0.00    +0.000 A 
ATOM     27  C   UNL     1      47.263   0.750   6.695  0.00  0.00    +0.000 A 
ATOM     28  C   UNL     1      46.602   1.303   7.797  0.00  0.00    +0.000 A 
ENDBRANCH  21  23
ENDBRANCH  16  17
ENDBRANCH   1  16
TORSDOF 6
ENDMDL
MODEL 6
REMARK VINA RESULT:    -6.812      2.194      2.987
REMARK INTER + INTRA:         -10.406
REMARK INTER:                  -9.877
REMARK INTRA:                  -0.529
REMARK UNBOUND:                -1.206
REMARK  Name = 
REMARK  7 active torsions:
REMARK  status: ('A' for Active; 'I' for Inactive)
REMARK    1  A    between atoms: C_1  and  O_2
REMARK    2  A    between atoms: O_2  and  C_3
REMARK    3  A    between atoms: C_5  and  C_6
REMARK    4  A    between atoms: C_11  and  N_12
REMARK    5  A    between atoms: N_12  and  C_13
REMARK    6  A    between atoms: C_13  and  C_14
REMARK    7  A    between atoms: C_18  and  C_19
REMARK                            x       y       z     vdW  Elec       q    Type
REMARK                         _______ _______ _______ _____ _____    ______ ____
ROOT
ATOM      1  N   UNL     1      46.492   6.628  11.742  0.00  0.00    +0.000 N 
ATOM      2  H   UNL     1      46.888   7.530  11.499  0.00  0.00    +0.000 HD
ENDROOT
BRANCH   1   8
ATOM      3  C   UNL     1      47.920   6.975  13.676  0.00  0.00    +0.000 A 
ATOM      4  C   UNL     1      48.394   6.519  14.910  0.00  0.00    +0.000 A 
ATOM      5  C   UNL     1      47.900   5.331  15.454  0.00  0.00    +0.000 A 
ATOM      6  C   UNL     1      46.936   4.655  14.728  0.00  0.00    +0.000 A 
ATOM      7  N   UNL     1      46.451   5.069  13.531  0.00  0.00    +0.000 NA
ATOM      8  C   UNL     1      46.923   6.226  13.012  0.00  0.00    +0.000 A 
BRANCH   5   9
ATOM      9  C   UNL     1      48.428   4.864  16.759  0.00  0.00    +0.000 C 
ATOM     10  N   UNL     1      47.556   4.605  17.778  0.00  0.00    +0.000 N 
ATOM     11  O   UNL     1      49.632   4.709  16.932  0.00  0.00    +0.000 OA
ATOM     12  H   UNL     1      46.554   4.701  17.747  0.00  0.00    +0.000 HD
ATOM     13  H   UNL     1      47.965   4.284  18.647  0.00  0.00    +0.000 HD
ENDBRANCH   5   9
BRANCH   3  15
ATOM     14  C   UNL     1      48.497   9.268  13.924  0.00  0.00    +0.000 C 
ATOM     15  O   UNL     1      48.345   8.136  13.071  0.00  0.00    +0.000 OA
ENDBRANCH   3  15
ENDBRANCH   1   8
BRANCH   1  16
ATOM     16  C   UNL     1      45.096   6.447  11.384  0.00  0.00    +0.000 C 
BRANCH  16  17
ATOM     17  C   UNL     1      44.786   5.067  10.850  0.00  0.00    +0.000 A 
ATOM     18  C   UNL     1      43.791   4.274  11.420  0.00  0.00    +0.000 A 
ATOM     19  C   UNL     1      43.509   3.049  10.837  0.00  0.00    +0.000 A 
ATOM     20  N   UNL     1      44.158   2.555   9.760  0.00  0.00    +0.000 NA
ATOM     21  C   UNL     1      45.156   3.303   9.223  0.00  0.00    +0.000 A 
ATOM     22  C   UNL     1      45.473   4.561   9.737  0.00  0.00    +0.000 A 
BRANCH  21  23
ATOM     23  C   UNL     1      45.879   2.695   8.080  0.00  0.00    +0.000 A 
ATOM     24  C   UNL     1      46.338   1.364   8.131  0.00  0.00    +0.000 A 
ATOM     25  C   UNL     1      47.046   0.790   7.068  0.00  0.00    +0.000 A 
ATOM     26  C   UNL     1      47.311   1.538   5.923  0.00  0.00    +0.000 A 
ATOM     27  C   UNL     1      46.874   2.856   5.847  0.00  0.00    +0.000 A 
ATOM     28  C   UNL     1      46.168   3.424   6.912  0.00  0.00    +0.000 A 
ENDBRANCH  21  23
ENDBRANCH  16  17
ENDBRANCH   1  16
TORSDOF 6
ENDMDL
MODEL 7
REMARK VINA RESULT:    -6.784      2.705      3.686
REMARK INTER + INTRA:         -10.370
REMARK INTER:                  -9.629
REMARK INTRA:                  -0.741
REMARK UNBOUND:                -1.206
REMARK  Name = 
REMARK  7 active torsions:
REMARK  status: ('A' for Active; 'I' for Inactive)
REMARK    1  A    between atoms: C_1  and  O_2
REMARK    2  A    between atoms: O_2  and  C_3
REMARK    3  A    between atoms: C_5  and  C_6
REMARK    4  A    between atoms: C_11  and  N_12
REMARK    5  A    between atoms: N_12  and  C_13
REMARK    6  A    between atoms: C_13  and  C_14
REMARK    7  A    between atoms: C_18  and  C_19
REMARK                            x       y       z     vdW  Elec       q    Type
REMARK                         _______ _______ _______ _____ _____    ______ ____
ROOT
ATOM      1  N   UNL     1      43.880   7.252  11.373  0.00  0.00    +0.000 N 
ATOM      2  H   UNL     1      42.889   7.412  11.229  0.00  0.00    +0.000 HD
ENDROOT
BRANCH   1   8
ATOM      3  C   UNL     1      44.034   9.628  10.894  0.00  0.00    +0.000 A 
ATOM      4  C   UNL     1      44.765  10.818  10.968  0.00  0.00    +0.000 A 
ATOM      5  C   UNL     1      46.004  10.840  11.612  0.00  0.00    +0.000 A 
ATOM      6  C   UNL     1      46.451   9.654  12.166  0.00  0.00    +0.000 A 
ATOM      7  N   UNL     1      45.768   8.483  12.117  0.00  0.00    +0.000 NA
ATOM      8  C   UNL     1      44.563   8.467  11.503  0.00  0.00    +0.000 A 
BRANCH   5   9
ATOM      9  C   UNL     1      46.764  12.113  11.666  0.00  0.00    +0.000 C 
ATOM     10  N   UNL     1      47.164  12.601  12.877  0.00  0.00    +0.000 N 
ATOM     11  O   UNL     1      47.035  12.728  10.640  0.00  0.00    +0.000 OA
ATOM     12  H   UNL     1      46.994  12.182  13.777  0.00  0.00    +0.000 HD
ATOM     13  H   UNL     1      47.684  13.470  12.860  0.00  0.00    +0.000 HD
ENDBRANCH   5   9
BRANCH   3  15
ATOM     14  C   UNL     1      41.754  10.300  10.850  0.00  0.00    +0.000 C 
ATOM     15  O   UNL     1      42.805   9.518  10.286  0.00  0.00    +0.000 OA
ENDBRANCH   3  15
ENDBRANCH   1   8
BRANCH   1  16
ATOM     16  C   UNL     1      44.207   6.164  12.278  0.00  0.00    +0.000 C 
BRANCH  16  17
ATOM     17  C   UNL     1      44.146   4.801  11.626  0.00  0.00    +0.000 A 
ATOM     18  C   UNL     1      43.321   3.793  12.124  0.00  0.00    +0.000 A 
ATOM     19  C   UNL     1      43.259   2.592  11.437  0.00  0.00    +0.000 A 
ATOM     20  N   UNL     1      43.972   2.319  10.322  0.00  0.00    +0.000 NA
ATOM     21  C   UNL     1      44.808   3.279   9.853  0.00  0.00    +0.000 A 
ATOM     22  C   UNL     1      44.898   4.526  10.474  0.00  0.00    +0.000 A 
BRANCH  21  23
ATOM     23  C   UNL     1      45.613   2.914   8.663  0.00  0.00    +0.000 A 
ATOM     24  C   UNL     1      45.955   3.875   7.690  0.00  0.00    +0.000 A 
ATOM     25  C   UNL     1      46.691   3.535   6.549  0.00  0.00    +0.000 A 
ATOM     26  C   UNL     1      47.105   2.219   6.353  0.00  0.00    +0.000 A 
ATOM     27  C   UNL     1      46.778   1.249   7.294  0.00  0.00    +0.000 A 
ATOM     28  C   UNL     1      46.041   1.594   8.432  0.00  0.00    +0.000 A 
ENDBRANCH  21  23
ENDBRANCH  16  17
ENDBRANCH   1  16
TORSDOF 6
ENDMDL
MODEL 8
REMARK VINA RESULT:    -6.594      1.560      2.181
REMARK INTER + INTRA:         -10.113
REMARK INTER:                  -9.303
REMARK INTRA:                  -0.810
REMARK UNBOUND:                -1.206
REMARK  Name = 
REMARK  7 active torsions:
REMARK  status: ('A' for Active; 'I' for Inactive)
REMARK    1  A    between atoms: C_1  and  O_2
REMARK    2  A    between atoms: O_2  and  C_3
REMARK    3  A    between atoms: C_5  and  C_6
REMARK    4  A    between atoms: C_11  and  N_12
REMARK    5  A    between atoms: N_12  and  C_13
REMARK    6  A    between atoms: C_13  and  C_14
REMARK    7  A    between atoms: C_18  and  C_19
REMARK                            x       y       z     vdW  Elec       q    Type
REMARK                         _______ _______ _______ _____ _____    ______ ____
ROOT
ATOM      1  N   UNL     1      46.256   6.833  13.454  0.00  0.00    +0.000 N 
ATOM      2  H   UNL     1      46.243   5.908  13.869  0.00  0.00    +0.000 HD
ENDROOT
BRANCH   1   8
ATOM      3  C   UNL     1      48.626   7.017  13.951  0.00  0.00    +0.000 A 
ATOM      4  C   UNL     1      49.903   7.431  13.557  0.00  0.00    +0.000 A 
ATOM      5  C   UNL     1      50.095   8.008  12.300  0.00  0.00    +0.000 A 
ATOM      6  C   UNL     1      48.984   8.134  11.485  0.00  0.00    +0.000 A 
ATOM      7  N   UNL     1      47.733   7.742  11.833  0.00  0.00    +0.000 NA
ATOM      8  C   UNL     1      47.552   7.173  13.047  0.00  0.00    +0.000 A 
BRANCH   5   9
ATOM      9  C   UNL     1      51.457   8.448  11.912  0.00  0.00    +0.000 C 
ATOM     10  N   UNL     1      52.528   8.044  12.658  0.00  0.00    +0.000 N 
ATOM     11  O   UNL     1      51.631   9.166  10.934  0.00  0.00    +0.000 OA
ATOM     12  H   UNL     1      52.499   7.460  13.478  0.00  0.00    +0.000 HD
ATOM     13  H   UNL     1      53.437   8.366  12.349  0.00  0.00    +0.000 HD
ENDBRANCH   5   9
BRANCH   3  15
ATOM     14  C   UNL     1      49.372   6.529  16.156  0.00  0.00    +0.000 C 
ATOM     15  O   UNL     1      48.349   6.434  15.167  0.00  0.00    +0.000 OA
ENDBRANCH   3  15
ENDBRANCH   1   8
BRANCH   1  16
ATOM     16  C   UNL     1      45.142   7.133  12.571  0.00  0.00    +0.000 C 
BRANCH  16  17
ATOM     17  C   UNL     1      44.581   5.914  11.875  0.00  0.00    +0.000 A 
ATOM     18  C   UNL     1      43.349   5.372  12.241  0.00  0.00    +0.000 A 
ATOM     19  C   UNL     1      42.860   4.298  11.515  0.00  0.00    +0.000 A 
ATOM     20  N   UNL     1      43.514   3.719  10.485  0.00  0.00    +0.000 NA
ATOM     21  C   UNL     1      44.732   4.214  10.147  0.00  0.00    +0.000 A 
ATOM     22  C   UNL     1      45.274   5.316  10.813  0.00  0.00    +0.000 A 
BRANCH  21  23
ATOM     23  C   UNL     1      45.438   3.511   9.050  0.00  0.00    +0.000 A 
ATOM     24  C   UNL     1      45.970   4.217   7.954  0.00  0.00    +0.000 A 
ATOM     25  C   UNL     1      46.614   3.559   6.899  0.00  0.00    +0.000 A 
ATOM     26  C   UNL     1      46.743   2.172   6.918  0.00  0.00    +0.000 A 
ATOM     27  C   UNL     1      46.223   1.448   7.985  0.00  0.00    +0.000 A 
ATOM     28  C   UNL     1      45.580   2.111   9.035  0.00  0.00    +0.000 A 
ENDBRANCH  21  23
ENDBRANCH  16  17
ENDBRANCH   1  16
TORSDOF 6
ENDMDL
MODEL 9
REMARK VINA RESULT:    -6.575      1.931      2.026
REMARK INTER + INTRA:         -10.087
REMARK INTER:                  -9.194
REMARK INTRA:                  -0.893
REMARK UNBOUND:                -1.206
REMARK  Name = 
REMARK  7 active torsions:
REMARK  status: ('A' for Active; 'I' for Inactive)
REMARK    1  A    between atoms: C_1  and  O_2
REMARK    2  A    between atoms: O_2  and  C_3
REMARK    3  A    between atoms: C_5  and  C_6
REMARK    4  A    between atoms: C_11  and  N_12
REMARK    5  A    between atoms: N_12  and  C_13
REMARK    6  A    between atoms: C_13  and  C_14
REMARK    7  A    between atoms: C_18  and  C_19
REMARK                            x       y       z     vdW  Elec       q    Type
REMARK                         _______ _______ _______ _____ _____    ______ ____
ROOT
ATOM      1  N   UNL     1      46.382   7.098  12.055  0.00  0.00    +0.000 N 
ATOM      2  H   UNL     1      46.566   7.773  11.321  0.00  0.00    +0.000 HD
ENDROOT
BRANCH   1   8
ATOM      3  C   UNL     1      47.809   6.270  13.838  0.00  0.00    +0.000 A 
ATOM      4  C   UNL     1      48.551   6.530  14.995  0.00  0.00    +0.000 A 
ATOM      5  C   UNL     1      48.648   7.834  15.486  0.00  0.00    +0.000 A 
ATOM      6  C   UNL     1      47.996   8.828  14.777  0.00  0.00    +0.000 A 
ATOM      7  N   UNL     1      47.272   8.613  13.652  0.00  0.00    +0.000 NA
ATOM      8  C   UNL     1      47.189   7.351  13.171  0.00  0.00    +0.000 A 
BRANCH   5   9
ATOM      9  C   UNL     1      49.432   8.080  16.721  0.00  0.00    +0.000 C 
ATOM     10  N   UNL     1      50.773   7.819  16.725  0.00  0.00    +0.000 N 
ATOM     11  O   UNL     1      48.892   8.513  17.733  0.00  0.00    +0.000 OA
ATOM     12  H   UNL     1      51.315   7.460  15.955  0.00  0.00    +0.000 HD
ATOM     13  H   UNL     1      51.264   8.009  17.590  0.00  0.00    +0.000 HD
ENDBRANCH   5   9
BRANCH   3  15
ATOM     14  C   UNL     1      46.936   4.070  14.054  0.00  0.00    +0.000 C 
ATOM     15  O   UNL     1      47.667   5.020  13.282  0.00  0.00    +0.000 OA
ENDBRANCH   3  15
ENDBRANCH   1   8
BRANCH   1  16
ATOM     16  C   UNL     1      44.982   6.772  12.261  0.00  0.00    +0.000 C 
BRANCH  16  17
ATOM     17  C   UNL     1      44.572   5.459  11.633  0.00  0.00    +0.000 A 
ATOM     18  C   UNL     1      43.491   4.726  12.122  0.00  0.00    +0.000 A 
ATOM     19  C   UNL     1      43.124   3.568  11.456  0.00  0.00    +0.000 A 
ATOM     20  N   UNL     1      43.765   3.083  10.371  0.00  0.00    +0.000 NA
ATOM     21  C   UNL     1      44.843   3.768   9.911  0.00  0.00    +0.000 A 
ATOM     22  C   UNL     1      45.251   4.961  10.512  0.00  0.00    +0.000 A 
BRANCH  21  23
ATOM     23  C   UNL     1      45.550   3.167   8.755  0.00  0.00    +0.000 A 
ATOM     24  C   UNL     1      45.828   1.787   8.706  0.00  0.00    +0.000 A 
ATOM     25  C   UNL     1      46.519   1.214   7.632  0.00  0.00    +0.000 A 
ATOM     26  C   UNL     1      46.950   2.014   6.576  0.00  0.00    +0.000 A 
ATOM     27  C   UNL     1      46.694   3.381   6.599  0.00  0.00    +0.000 A 
ATOM     28  C   UNL     1      46.004   3.947   7.675  0.00  0.00    +0.000 A 
ENDBRANCH  21  23
ENDBRANCH  16  17
ENDBRANCH   1  16
TORSDOF 6
ENDMDL
