MODEL 1
REMARK VINA RESULT:    -7.953      0.000      0.000
REMARK INTER + INTRA:         -12.335
REMARK INTER:                 -11.208
REMARK INTRA:                  -1.127
REMARK UNBOUND:                -1.127
REMARK  Name = 
REMARK  7 active torsions:
REMARK  status: ('A' for Active; 'I' for Inactive)
REMARK    1  A    between atoms: C_2  and  C_4
REMARK    2  A    between atoms: C_7  and  N_8
REMARK    3  A    between atoms: N_8  and  C_9
REMARK    4  A    between atoms: C_9  and  C_10
REMARK    5  A    between atoms: C_10  and  C_11
REMARK    6  A    between atoms: C_15  and  O_16
REMARK    7  A    between atoms: O_16  and  C_17
REMARK                            x       y       z     vdW  Elec       q    Type
REMARK                         _______ _______ _______ _____ _____    ______ ____
ROOT
ATOM      1  C   UNL     1      43.239   4.952  11.033  0.00  0.00    +0.000 C 
ENDROOT
BRANCH   1   2
ATOM      2  N   UNL     1      43.568   3.562  10.720  0.00  0.00    +0.000 N 
ATOM      3  H   UNL     1      43.718   2.967  11.531  0.00  0.00    +0.000 HD
BRANCH   2   7
ATOM      4  C   UNL     1      46.378   2.805   7.662  0.00  0.00    +0.000 A 
ATOM      5  C   UNL     1      45.810   1.732   8.346  0.00  0.00    +0.000 A 
ATOM      6  C   UNL     1      44.859   1.964   9.352  0.00  0.00    +0.000 A 
ATOM      7  C   UNL     1      44.437   3.261   9.672  0.00  0.00    +0.000 A 
ATOM      8  C   UNL     1      45.026   4.326   8.981  0.00  0.00    +0.000 A 
ATOM      9  C   UNL     1      45.994   4.108   7.987  0.00  0.00    +0.000 A 
BRANCH   4  11
ATOM     10  N   UNL     1      47.252   3.253   5.429  0.00  0.00    +0.000 N 
ATOM     11  C   UNL     1      47.426   2.612   6.622  0.00  0.00    +0.000 C 
ATOM     12  O   UNL     1      48.424   1.935   6.836  0.00  0.00    +0.000 OA
ATOM     13  H   UNL     1      48.027   3.197   4.778  0.00  0.00    +0.000 HD
ATOM     14  H   UNL     1      46.589   4.002   5.308  0.00  0.00    +0.000 HD
ENDBRANCH   4  11
ENDBRANCH   2   7
ENDBRANCH   1   2
BRANCH   1  15
ATOM     15  C   UNL     1      43.452   5.246  12.523  0.00  0.00    +0.000 C 
BRANCH  15  16
ATOM     16  C   UNL     1      44.914   5.505  12.799  0.00  0.00    +0.000 A 
ATOM     17  C   UNL     1      45.574   6.530  12.111  0.00  0.00    +0.000 A 
ATOM     18  C   UNL     1      46.952   6.684  12.241  0.00  0.00    +0.000 A 
ATOM     19  C   UNL     1      47.676   5.846  13.091  0.00  0.00    +0.000 A 
ATOM     20  C   UNL     1      47.021   4.876  13.854  0.00  0.00    +0.000 A 
ATOM     21  C   UNL     1      45.646   4.683  13.673  0.00  0.00    +0.000 A 
BRANCH  20  22
ATOM     22  O   UNL     1      47.614   4.080  14.805  0.00  0.00    +0.000 OA
BRANCH  22  23
ATOM     23  C   UNL     1      47.335   4.401  16.177  0.00  0.00    +0.000 C 
ATOM     24  C   UNL     1      48.394   5.359  16.711  0.00  0.00    +0.000 C 
ATOM     25  C   UNL     1      49.415   4.469  17.395  0.00  0.00    +0.000 C 
ATOM     26  N   UNL     1      48.686   3.311  17.903  0.00  0.00    +0.000 NA
ATOM     27  C   UNL     1      47.453   3.188  17.112  0.00  0.00    +0.000 C 
ATOM     28  H   UNL     1      48.449   3.444  18.885  0.00  0.00    +0.000 HD
ENDBRANCH  22  23
ENDBRANCH  20  22
ENDBRANCH  15  16
ENDBRANCH   1  15
TORSDOF 7
ENDMDL
MODEL 2
REMARK VINA RESULT:    -7.379      2.678      3.821
REMARK INTER + INTRA:         -11.526
REMARK INTER:                 -10.385
REMARK INTRA:                  -1.141
REMARK UNBOUND:                -1.127
REMARK  Name = 
REMARK  7 active torsions:
REMARK  status: ('A' for Active; 'I' for Inactive)
REMARK    1  A    between atoms: C_2  and  C_4
REMARK    2  A    between atoms: C_7  and  N_8
REMARK    3  A    between atoms: N_8  and  C_9
REMARK    4  A    between atoms: C_9  and  C_10
REMARK    5  A    between atoms: C_10  and  C_11
REMARK    6  A    between atoms: C_15  and  O_16
REMARK    7  A    between atoms: O_16  and  C_17
REMARK                            x       y       z     vdW  Elec       q    Type
REMARK                         _______ _______ _______ _____ _____    ______ ____
ROOT
ATOM      1  C   UNL     1      43.107   4.145  11.067  0.00  0.00    +0.000 C 
ENDROOT
BRANCH   1   2
ATOM      2  N   UNL     1      43.847   4.745   9.958  0.00  0.00    +0.000 N 
ATOM      3  H   UNL     1      43.295   5.349   9.354  0.00  0.00    +0.000 HD
BRANCH   2   7
ATOM      4  C   UNL     1      46.485   2.319   7.726  0.00  0.00    +0.000 A 
ATOM      5  C   UNL     1      46.452   3.691   7.484  0.00  0.00    +0.000 A 
ATOM      6  C   UNL     1      45.596   4.516   8.231  0.00  0.00    +0.000 A 
ATOM      7  C   UNL     1      44.784   3.995   9.246  0.00  0.00    +0.000 A 
ATOM      8  C   UNL     1      44.824   2.614   9.467  0.00  0.00    +0.000 A 
ATOM      9  C   UNL     1      45.660   1.775   8.714  0.00  0.00    +0.000 A 
BRANCH   4  11
ATOM     10  N   UNL     1      48.519   1.892   6.449  0.00  0.00    +0.000 N 
ATOM     11  C   UNL     1      47.339   1.398   6.928  0.00  0.00    +0.000 C 
ATOM     12  O   UNL     1      47.019   0.231   6.736  0.00  0.00    +0.000 OA
ATOM     13  H   UNL     1      49.134   1.220   6.004  0.00  0.00    +0.000 HD
ATOM     14  H   UNL     1      48.926   2.748   6.791  0.00  0.00    +0.000 HD
ENDBRANCH   4  11
ENDBRANCH   2   7
ENDBRANCH   1   2
BRANCH   1  15
ATOM     15  C   UNL     1      43.250   4.986  12.342  0.00  0.00    +0.000 C 
BRANCH  15  16
ATOM     16  C   UNL     1      44.705   5.108  12.724  0.00  0.00    +0.000 A 
ATOM     17  C   UNL     1      45.442   3.953  13.014  0.00  0.00    +0.000 A 
ATOM     18  C   UNL     1      46.738   4.057  13.512  0.00  0.00    +0.000 A 
ATOM     19  C   UNL     1      47.326   5.311  13.686  0.00  0.00    +0.000 A 
ATOM     20  C   UNL     1      46.640   6.471  13.317  0.00  0.00    +0.000 A 
ATOM     21  C   UNL     1      45.316   6.366  12.876  0.00  0.00    +0.000 A 
BRANCH  20  22
ATOM     22  O   UNL     1      47.163   7.742  13.335  0.00  0.00    +0.000 OA
BRANCH  22  23
ATOM     23  C   UNL     1      47.430   8.344  12.058  0.00  0.00    +0.000 C 
ATOM     24  C   UNL     1      48.888   8.123  11.675  0.00  0.00    +0.000 C 
ATOM     25  C   UNL     1      49.606   9.380  12.129  0.00  0.00    +0.000 C 
ATOM     26  N   UNL     1      48.641  10.471  12.029  0.00  0.00    +0.000 NA
ATOM     27  C   UNL     1      47.298   9.874  12.078  0.00  0.00    +0.000 C 
ATOM     28  H   UNL     1      48.760  10.969  11.148  0.00  0.00    +0.000 HD
ENDBRANCH  22  23
ENDBRANCH  20  22
ENDBRANCH  15  16
ENDBRANCH   1  15
TORSDOF 7
ENDMDL
MODEL 3
REMARK VINA RESULT:    -6.789      3.086      5.053
REMARK INTER + INTRA:         -10.694
REMARK INTER:                  -9.847
REMARK INTRA:                  -0.847
REMARK UNBOUND:                -1.127
REMARK  Name = 
REMARK  7 active torsions:
REMARK  status: ('A' for Active; 'I' for Inactive)
REMARK    1  A    between atoms: C_2  and  C_4
REMARK    2  A    between atoms: C_7  and  N_8
REMARK    3  A    between atoms: N_8  and  C_9
REMARK    4  A    between atoms: C_9  and  C_10
REMARK    5  A    between atoms: C_10  and  C_11
REMARK    6  A    between atoms: C_15  and  O_16
REMARK    7  A    between atoms: O_16  and  C_17
REMARK                            x       y       z     vdW  Elec       q    Type
REMARK                         _______ _______ _______ _____ _____    ______ ____
ROOT
ATOM      1  C   UNL     1      43.949   5.096  11.232  0.00  0.00    +0.000 C 
ENDROOT
BRANCH   1   2
ATOM      2  N   UNL     1      43.677   4.210  10.101  0.00  0.00    +0.000 N 
ATOM      3  H   UNL     1      42.985   3.487  10.283  0.00  0.00    +0.000 HD
BRANCH   2   7
ATOM      4  C   UNL     1      46.661   2.678   7.538  0.00  0.00    +0.000 A 
ATOM      5  C   UNL     1      46.438   4.053   7.578  0.00  0.00    +0.000 A 
ATOM      6  C   UNL     1      45.464   4.582   8.439  0.00  0.00    +0.000 A 
ATOM      7  C   UNL     1      44.720   3.757   9.292  0.00  0.00    +0.000 A 
ATOM      8  C   UNL     1      44.951   2.379   9.231  0.00  0.00    +0.000 A 
ATOM      9  C   UNL     1      45.907   1.835   8.359  0.00  0.00    +0.000 A 
BRANCH   4  11
ATOM     10  N   UNL     1      48.102   2.840   5.576  0.00  0.00    +0.000 N 
ATOM     11  C   UNL     1      47.647   2.066   6.606  0.00  0.00    +0.000 C 
ATOM     12  O   UNL     1      48.065   0.926   6.772  0.00  0.00    +0.000 OA
ATOM     13  H   UNL     1      48.852   2.443   5.021  0.00  0.00    +0.000 HD
ATOM     14  H   UNL     1      47.978   3.839   5.555  0.00  0.00    +0.000 HD
ENDBRANCH   4  11
ENDBRANCH   2   7
ENDBRANCH   1   2
BRANCH   1  15
ATOM     15  C   UNL     1      45.316   4.789  11.855  0.00  0.00    +0.000 C 
BRANCH  15  16
ATOM     16  C   UNL     1      45.972   6.065  12.327  0.00  0.00    +0.000 A 
ATOM     17  C   UNL     1      47.297   6.033  12.778  0.00  0.00    +0.000 A 
ATOM     18  C   UNL     1      47.867   7.165  13.355  0.00  0.00    +0.000 A 
ATOM     19  C   UNL     1      47.134   8.350  13.449  0.00  0.00    +0.000 A 
ATOM     20  C   UNL     1      45.843   8.427  12.923  0.00  0.00    +0.000 A 
ATOM     21  C   UNL     1      45.252   7.270  12.400  0.00  0.00    +0.000 A 
BRANCH  20  22
ATOM     22  O   UNL     1      45.079   9.568  12.854  0.00  0.00    +0.000 OA
BRANCH  22  23
ATOM     23  C   UNL     1      44.777  10.061  11.539  0.00  0.00    +0.000 C 
ATOM     24  C   UNL     1      45.718  11.207  11.186  0.00  0.00    +0.000 C 
ATOM     25  C   UNL     1      44.955  12.466  11.553  0.00  0.00    +0.000 C 
ATOM     26  N   UNL     1      43.539  12.165  11.365  0.00  0.00    +0.000 NA
ATOM     27  C   UNL     1      43.386  10.706  11.447  0.00  0.00    +0.000 C 
ATOM     28  H   UNL     1      43.227  12.490  10.451  0.00  0.00    +0.000 HD
ENDBRANCH  22  23
ENDBRANCH  20  22
ENDBRANCH  15  16
ENDBRANCH   1  15
TORSDOF 7
ENDMDL
MODEL 4
REMARK VINA RESULT:    -6.237      4.281      7.306
REMARK INTER + INTRA:          -9.917
REMARK INTER:                  -8.628
REMARK INTRA:                  -1.289
REMARK UNBOUND:                -1.127
REMARK  Name = 
REMARK  7 active torsions:
REMARK  status: ('A' for Active; 'I' for Inactive)
REMARK    1  A    between atoms: C_2  and  C_4
REMARK    2  A    between atoms: C_7  and  N_8
REMARK    3  A    between atoms: N_8  and  C_9
REMARK    4  A    between atoms: C_9  and  C_10
REMARK    5  A    between atoms: C_10  and  C_11
REMARK    6  A    between atoms: C_15  and  O_16
REMARK    7  A    between atoms: O_16  and  C_17
REMARK                            x       y       z     vdW  Elec       q    Type
REMARK                         _______ _______ _______ _____ _____    ______ ____
ROOT
ATOM      1  C   UNL     1      49.023   7.526  11.891  0.00  0.00    +0.000 C 
ENDROOT
BRANCH   1   2
ATOM      2  N   UNL     1      48.402   6.512  12.742  0.00  0.00    +0.000 N 
ATOM      3  H   UNL     1      48.982   5.697  12.928  0.00  0.00    +0.000 HD
BRANCH   2   7
ATOM      4  C   UNL     1      44.397   5.390  12.017  0.00  0.00    +0.000 A 
ATOM      5  C   UNL     1      45.001   5.021  13.218  0.00  0.00    +0.000 A 
ATOM      6  C   UNL     1      46.325   5.402  13.484  0.00  0.00    +0.000 A 
ATOM      7  C   UNL     1      47.057   6.180  12.577  0.00  0.00    +0.000 A 
ATOM      8  C   UNL     1      46.436   6.532  11.373  0.00  0.00    +0.000 A 
ATOM      9  C   UNL     1      45.120   6.140  11.086  0.00  0.00    +0.000 A 
BRANCH   4  11
ATOM     10  N   UNL     1      42.036   5.923  11.705  0.00  0.00    +0.000 N 
ATOM     11  C   UNL     1      43.013   4.968  11.668  0.00  0.00    +0.000 C 
ATOM     12  O   UNL     1      42.759   3.819  11.326  0.00  0.00    +0.000 OA
ATOM     13  H   UNL     1      41.127   5.641  11.359  0.00  0.00    +0.000 HD
ATOM     14  H   UNL     1      42.244   6.908  11.734  0.00  0.00    +0.000 HD
ENDBRANCH   4  11
ENDBRANCH   2   7
ENDBRANCH   1   2
BRANCH   1  15
ATOM     15  C   UNL     1      49.054   8.889  12.594  0.00  0.00    +0.000 C 
BRANCH  15  16
ATOM     16  C   UNL     1      48.147   9.863  11.881  0.00  0.00    +0.000 A 
ATOM     17  C   UNL     1      48.690  10.757  10.951  0.00  0.00    +0.000 A 
ATOM     18  C   UNL     1      47.897  11.759  10.397  0.00  0.00    +0.000 A 
ATOM     19  C   UNL     1      46.545  11.850  10.734  0.00  0.00    +0.000 A 
ATOM     20  C   UNL     1      45.964  10.912  11.590  0.00  0.00    +0.000 A 
ATOM     21  C   UNL     1      46.778   9.946  12.193  0.00  0.00    +0.000 A 
BRANCH  20  22
ATOM     22  O   UNL     1      44.626  10.837  11.896  0.00  0.00    +0.000 OA
BRANCH  22  23
ATOM     23  C   UNL     1      43.716  10.775  10.786  0.00  0.00    +0.000 C 
ATOM     24  C   UNL     1      42.563  11.748  11.005  0.00  0.00    +0.000 C 
ATOM     25  C   UNL     1      41.459  10.912  11.625  0.00  0.00    +0.000 C 
ATOM     26  N   UNL     1      41.614   9.560  11.099  0.00  0.00    +0.000 NA
ATOM     27  C   UNL     1      43.011   9.415  10.665  0.00  0.00    +0.000 C 
ATOM     28  H   UNL     1      40.993   9.416  10.304  0.00  0.00    +0.000 HD
ENDBRANCH  22  23
ENDBRANCH  20  22
ENDBRANCH  15  16
ENDBRANCH   1  15
TORSDOF 7
ENDMDL
MODEL 5
REMARK VINA RESULT:    -6.200      3.000      7.541
REMARK INTER + INTRA:          -9.864
REMARK INTER:                  -8.634
REMARK INTRA:                  -1.230
REMARK UNBOUND:                -1.127
REMARK  Name = 
REMARK  7 active torsions:
REMARK  status: ('A' for Active; 'I' for Inactive)
REMARK    1  A    between atoms: C_2  and  C_4
REMARK    2  A    between atoms: C_7  and  N_8
REMARK    3  A    between atoms: N_8  and  C_9
REMARK    4  A    between atoms: C_9  and  C_10
REMARK    5  A    between atoms: C_10  and  C_11
REMARK    6  A    between atoms: C_15  and  O_16
REMARK    7  A    between atoms: O_16  and  C_17
REMARK                            x       y       z     vdW  Elec       q    Type
REMARK                         _______ _______ _______ _____ _____    ______ ____
ROOT
ATOM      1  C   UNL     1      49.749   7.535  12.975  0.00  0.00    +0.000 C 
ENDROOT
BRANCH   1   2
ATOM      2  N   UNL     1      49.220   7.693  14.329  0.00  0.00    +0.000 N 
ATOM      3  H   UNL     1      49.701   8.386  14.897  0.00  0.00    +0.000 HD
BRANCH   2   7
ATOM      4  C   UNL     1      47.999   4.473  16.772  0.00  0.00    +0.000 A 
ATOM      5  C   UNL     1      47.375   4.669  15.541  0.00  0.00    +0.000 A 
ATOM      6  C   UNL     1      47.782   5.722  14.707  0.00  0.00    +0.000 A 
ATOM      7  C   UNL     1      48.832   6.576  15.069  0.00  0.00    +0.000 A 
ATOM      8  C   UNL     1      49.439   6.368  16.313  0.00  0.00    +0.000 A 
ATOM      9  C   UNL     1      49.027   5.332  17.166  0.00  0.00    +0.000 A 
BRANCH   4  11
ATOM     10  N   UNL     1      48.352   3.178  18.809  0.00  0.00    +0.000 N 
ATOM     11  C   UNL     1      47.570   3.401  17.712  0.00  0.00    +0.000 C 
ATOM     12  O   UNL     1      46.538   2.766  17.532  0.00  0.00    +0.000 OA
ATOM     13  H   UNL     1      47.984   2.523  19.490  0.00  0.00    +0.000 HD
ATOM     14  H   UNL     1      49.052   3.834  19.117  0.00  0.00    +0.000 HD
ENDBRANCH   4  11
ENDBRANCH   2   7
ENDBRANCH   1   2
BRANCH   1  15
ATOM     15  C   UNL     1      49.130   8.564  12.020  0.00  0.00    +0.000 C 
BRANCH  15  16
ATOM     16  C   UNL     1      47.630   8.394  11.974  0.00  0.00    +0.000 A 
ATOM     17  C   UNL     1      46.804   9.454  12.367  0.00  0.00    +0.000 A 
ATOM     18  C   UNL     1      45.428   9.266  12.473  0.00  0.00    +0.000 A 
ATOM     19  C   UNL     1      44.861   8.033  12.147  0.00  0.00    +0.000 A 
ATOM     20  C   UNL     1      45.658   6.992  11.666  0.00  0.00    +0.000 A 
ATOM     21  C   UNL     1      47.046   7.165  11.621  0.00  0.00    +0.000 A 
BRANCH  20  22
ATOM     22  O   UNL     1      45.193   5.782  11.207  0.00  0.00    +0.000 OA
BRANCH  22  23
ATOM     23  C   UNL     1      44.554   4.931  12.172  0.00  0.00    +0.000 C 
ATOM     24  C   UNL     1      45.115   3.518  12.069  0.00  0.00    +0.000 C 
ATOM     25  C   UNL     1      44.149   2.780  11.160  0.00  0.00    +0.000 C 
ATOM     26  N   UNL     1      42.836   3.384  11.368  0.00  0.00    +0.000 NA
ATOM     27  C   UNL     1      43.055   4.737  11.898  0.00  0.00    +0.000 C 
ATOM     28  H   UNL     1      42.298   2.837  12.040  0.00  0.00    +0.000 HD
ENDBRANCH  22  23
ENDBRANCH  20  22
ENDBRANCH  15  16
ENDBRANCH   1  15
TORSDOF 7
ENDMDL
MODEL 6
REMARK VINA RESULT:    -6.137      2.911      4.535
REMARK INTER + INTRA:          -9.776
REMARK INTER:                  -8.740
REMARK INTRA:                  -1.036
REMARK UNBOUND:                -1.127
REMARK  Name = 
REMARK  7 active torsions:
REMARK  status: ('A' for Active; 'I' for Inactive)
REMARK    1  A    between atoms: C_2  and  C_4
REMARK    2  A    between atoms: C_7  and  N_8
REMARK    3  A    between atoms: N_8  and  C_9
REMARK    4  A    between atoms: C_9  and  C_10
REMARK    5  A    between atoms: C_10  and  C_11
REMARK    6  A    between atoms: C_15  and  O_16
REMARK    7  A    between atoms: O_16  and  C_17
REMARK                            x       y       z     vdW  Elec       q    Type
REMARK                         _______ _______ _______ _____ _____    ______ ____
ROOT
ATOM      1  C   UNL     1      46.632   8.950  12.653  0.00  0.00    +0.000 C 
ENDROOT
BRANCH   1   2
ATOM      2  N   UNL     1      45.705   8.008  13.277  0.00  0.00    +0.000 N 
ATOM      3  H   UNL     1      45.841   7.875  14.277  0.00  0.00    +0.000 HD
BRANCH   2   7
ATOM      4  C   UNL     1      44.513   4.359  11.521  0.00  0.00    +0.000 A 
ATOM      5  C   UNL     1      44.235   5.555  10.862  0.00  0.00    +0.000 A 
ATOM      6  C   UNL     1      44.642   6.776  11.421  0.00  0.00    +0.000 A 
ATOM      7  C   UNL     1      45.354   6.825  12.626  0.00  0.00    +0.000 A 
ATOM      8  C   UNL     1      45.615   5.615  13.278  0.00  0.00    +0.000 A 
ATOM      9  C   UNL     1      45.196   4.388  12.740  0.00  0.00    +0.000 A 
BRANCH   4  11
ATOM     10  N   UNL     1      43.432   2.199  11.865  0.00  0.00    +0.000 N 
ATOM     11  C   UNL     1      44.059   3.043  10.993  0.00  0.00    +0.000 C 
ATOM     12  O   UNL     1      44.208   2.739   9.816  0.00  0.00    +0.000 OA
ATOM     13  H   UNL     1      43.035   1.359  11.460  0.00  0.00    +0.000 HD
ATOM     14  H   UNL     1      43.074   2.508  12.754  0.00  0.00    +0.000 HD
ENDBRANCH   4  11
ENDBRANCH   2   7
ENDBRANCH   1   2
BRANCH   1  15
ATOM     15  C   UNL     1      48.085   8.499  12.844  0.00  0.00    +0.000 C 
BRANCH  15  16
ATOM     16  C   UNL     1      48.344   8.176  14.296  0.00  0.00    +0.000 A 
ATOM     17  C   UNL     1      48.330   9.205  15.245  0.00  0.00    +0.000 A 
ATOM     18  C   UNL     1      48.712   8.950  16.560  0.00  0.00    +0.000 A 
ATOM     19  C   UNL     1      49.070   7.658  16.949  0.00  0.00    +0.000 A 
ATOM     20  C   UNL     1      49.003   6.600  16.039  0.00  0.00    +0.000 A 
ATOM     21  C   UNL     1      48.679   6.873  14.704  0.00  0.00    +0.000 A 
BRANCH  20  22
ATOM     22  O   UNL     1      49.218   5.277  16.341  0.00  0.00    +0.000 OA
BRANCH  22  23
ATOM     23  C   UNL     1      48.675   4.805  17.584  0.00  0.00    +0.000 C 
ATOM     24  C   UNL     1      49.146   3.380  17.849  0.00  0.00    +0.000 C 
ATOM     25  C   UNL     1      48.031   2.496  17.322  0.00  0.00    +0.000 C 
ATOM     26  N   UNL     1      46.790   3.246  17.488  0.00  0.00    +0.000 NA
ATOM     27  C   UNL     1      47.145   4.671  17.555  0.00  0.00    +0.000 C 
ATOM     28  H   UNL     1      46.322   2.970  18.349  0.00  0.00    +0.000 HD
ENDBRANCH  22  23
ENDBRANCH  20  22
ENDBRANCH  15  16
ENDBRANCH   1  15
TORSDOF 7
ENDMDL
MODEL 7
REMARK VINA RESULT:    -6.113      2.799      4.201
REMARK INTER + INTRA:          -9.741
REMARK INTER:                  -8.623
REMARK INTRA:                  -1.118
REMARK UNBOUND:                -1.127
REMARK  Name = 
REMARK  7 active torsions:
REMARK  status: ('A' for Active; 'I' for Inactive)
REMARK    1  A    between atoms: C_2  and  C_4
REMARK    2  A    between atoms: C_7  and  N_8
REMARK    3  A    between atoms: N_8  and  C_9
REMARK    4  A    between atoms: C_9  and  C_10
REMARK    5  A    between atoms: C_10  and  C_11
REMARK    6  A    between atoms: C_15  and  O_16
REMARK    7  A    between atoms: O_16  and  C_17
REMARK                            x       y       z     vdW  Elec       q    Type
REMARK                         _______ _______ _______ _____ _____    ______ ____
ROOT
ATOM      1  C   UNL     1      45.173   9.110  12.585  0.00  0.00    +0.000 C 
ENDROOT
BRANCH   1   2
ATOM      2  N   UNL     1      44.378   8.489  11.526  0.00  0.00    +0.000 N 
ATOM      3  H   UNL     1      43.462   8.907  11.380  0.00  0.00    +0.000 HD
BRANCH   2   7
ATOM      4  C   UNL     1      44.132   4.321  10.899  0.00  0.00    +0.000 A 
ATOM      5  C   UNL     1      45.367   4.957  10.778  0.00  0.00    +0.000 A 
ATOM      6  C   UNL     1      45.471   6.338  11.003  0.00  0.00    +0.000 A 
ATOM      7  C   UNL     1      44.358   7.102  11.379  0.00  0.00    +0.000 A 
ATOM      8  C   UNL     1      43.126   6.447  11.486  0.00  0.00    +0.000 A 
ATOM      9  C   UNL     1      43.004   5.070  11.243  0.00  0.00    +0.000 A 
BRANCH   4  11
ATOM     10  N   UNL     1      43.410   2.102  11.608  0.00  0.00    +0.000 N 
ATOM     11  C   UNL     1      43.963   2.868  10.622  0.00  0.00    +0.000 C 
ATOM     12  O   UNL     1      44.272   2.380   9.542  0.00  0.00    +0.000 OA
ATOM     13  H   UNL     1      43.203   1.141  11.360  0.00  0.00    +0.000 HD
ATOM     14  H   UNL     1      42.922   2.500  12.394  0.00  0.00    +0.000 HD
ENDBRANCH   4  11
ENDBRANCH   2   7
ENDBRANCH   1   2
BRANCH   1  15
ATOM     15  C   UNL     1      46.324   9.934  11.996  0.00  0.00    +0.000 C 
BRANCH  15  16
ATOM     16  C   UNL     1      47.627   9.186  12.141  0.00  0.00    +0.000 A 
ATOM     17  C   UNL     1      48.782   9.689  11.530  0.00  0.00    +0.000 A 
ATOM     18  C   UNL     1      49.955   8.938  11.527  0.00  0.00    +0.000 A 
ATOM     19  C   UNL     1      49.998   7.699  12.168  0.00  0.00    +0.000 A 
ATOM     20  C   UNL     1      48.883   7.222  12.860  0.00  0.00    +0.000 A 
ATOM     21  C   UNL     1      47.688   7.950  12.808  0.00  0.00    +0.000 A 
BRANCH  20  22
ATOM     22  O   UNL     1      48.849   6.078  13.622  0.00  0.00    +0.000 OA
BRANCH  22  23
ATOM     23  C   UNL     1      47.691   5.892  14.451  0.00  0.00    +0.000 C 
ATOM     24  C   UNL     1      48.113   5.761  15.910  0.00  0.00    +0.000 C 
ATOM     25  C   UNL     1      48.211   4.266  16.155  0.00  0.00    +0.000 C 
ATOM     26  N   UNL     1      47.229   3.634  15.278  0.00  0.00    +0.000 NA
ATOM     27  C   UNL     1      46.963   4.568  14.173  0.00  0.00    +0.000 C 
ATOM     28  H   UNL     1      46.365   3.453  15.786  0.00  0.00    +0.000 HD
ENDBRANCH  22  23
ENDBRANCH  20  22
ENDBRANCH  15  16
ENDBRANCH   1  15
TORSDOF 7
ENDMDL
MODEL 8
REMARK VINA RESULT:    -6.003      2.461      3.108
REMARK INTER + INTRA:          -9.587
REMARK INTER:                  -9.535
REMARK INTRA:                  -0.052
REMARK UNBOUND:                -1.127
REMARK  Name = 
REMARK  7 active torsions:
REMARK  status: ('A' for Active; 'I' for Inactive)
REMARK    1  A    between atoms: C_2  and  C_4
REMARK    2  A    between atoms: C_7  and  N_8
REMARK    3  A    between atoms: N_8  and  C_9
REMARK    4  A    between atoms: C_9  and  C_10
REMARK    5  A    between atoms: C_10  and  C_11
REMARK    6  A    between atoms: C_15  and  O_16
REMARK    7  A    between atoms: O_16  and  C_17
REMARK                            x       y       z     vdW  Elec       q    Type
REMARK                         _______ _______ _______ _____ _____    ______ ____
ROOT
ATOM      1  C   UNL     1      44.004   5.229  10.875  0.00  0.00    +0.000 C 
ENDROOT
BRANCH   1   2
ATOM      2  N   UNL     1      43.790   3.869  10.381  0.00  0.00    +0.000 N 
ATOM      3  H   UNL     1      43.566   3.185  11.099  0.00  0.00    +0.000 HD
BRANCH   2   7
ATOM      4  C   UNL     1      46.448   2.469   7.415  0.00  0.00    +0.000 A 
ATOM      5  C   UNL     1      46.026   1.598   8.417  0.00  0.00    +0.000 A 
ATOM      6  C   UNL     1      45.127   2.040   9.399  0.00  0.00    +0.000 A 
ATOM      7  C   UNL     1      44.612   3.343   9.384  0.00  0.00    +0.000 A 
ATOM      8  C   UNL     1      45.056   4.206   8.376  0.00  0.00    +0.000 A 
ATOM      9  C   UNL     1      45.972   3.782   7.400  0.00  0.00    +0.000 A 
BRANCH   4  11
ATOM     10  N   UNL     1      48.678   2.632   6.438  0.00  0.00    +0.000 N 
ATOM     11  C   UNL     1      47.438   2.061   6.381  0.00  0.00    +0.000 C 
ATOM     12  O   UNL     1      47.169   1.221   5.531  0.00  0.00    +0.000 OA
ATOM     13  H   UNL     1      49.368   2.260   5.795  0.00  0.00    +0.000 HD
ATOM     14  H   UNL     1      49.010   3.124   7.252  0.00  0.00    +0.000 HD
ENDBRANCH   4  11
ENDBRANCH   2   7
ENDBRANCH   1   2
BRANCH   1  15
ATOM     15  C   UNL     1      45.462   5.663  10.678  0.00  0.00    +0.000 C 
BRANCH  15  16
ATOM     16  C   UNL     1      46.217   5.559  11.981  0.00  0.00    +0.000 A 
ATOM     17  C   UNL     1      45.833   4.601  12.927  0.00  0.00    +0.000 A 
ATOM     18  C   UNL     1      46.419   4.591  14.190  0.00  0.00    +0.000 A 
ATOM     19  C   UNL     1      47.422   5.508  14.506  0.00  0.00    +0.000 A 
ATOM     20  C   UNL     1      47.882   6.413  13.547  0.00  0.00    +0.000 A 
ATOM     21  C   UNL     1      47.248   6.461  12.300  0.00  0.00    +0.000 A 
BRANCH  20  22
ATOM     22  O   UNL     1      48.939   7.276  13.711  0.00  0.00    +0.000 OA
BRANCH  22  23
ATOM     23  C   UNL     1      48.613   8.661  13.907  0.00  0.00    +0.000 C 
ATOM     24  C   UNL     1      49.823   9.530  13.588  0.00  0.00    +0.000 C 
ATOM     25  C   UNL     1      50.499   9.765  14.926  0.00  0.00    +0.000 C 
ATOM     26  N   UNL     1      49.444   9.754  15.934  0.00  0.00    +0.000 NA
ATOM     27  C   UNL     1      48.311   9.002  15.375  0.00  0.00    +0.000 C 
ATOM     28  H   UNL     1      49.149  10.705  16.149  0.00  0.00    +0.000 HD
ENDBRANCH  22  23
ENDBRANCH  20  22
ENDBRANCH  15  16
ENDBRANCH   1  15
TORSDOF 7
ENDMDL
MODEL 9
REMARK VINA RESULT:    -5.741      3.167      5.003
REMARK INTER + INTRA:          -9.217
REMARK INTER:                  -7.997
REMARK INTRA:                  -1.220
REMARK UNBOUND:                -1.127
REMARK  Name = 
REMARK  7 active torsions:
REMARK  status: ('A' for Active; 'I' for Inactive)
REMARK    1  A    between atoms: C_2  and  C_4
REMARK    2  A    between atoms: C_7  and  N_8
REMARK    3  A    between atoms: N_8  and  C_9
REMARK    4  A    between atoms: C_9  and  C_10
REMARK    5  A    between atoms: C_10  and  C_11
REMARK    6  A    between atoms: C_15  and  O_16
REMARK    7  A    between atoms: O_16  and  C_17
REMARK                            x       y       z     vdW  Elec       q    Type
REMARK                         _______ _______ _______ _____ _____    ______ ____
ROOT
ATOM      1  C   UNL     1      49.228   7.084  12.477  0.00  0.00    +0.000 C 
ENDROOT
BRANCH   1   2
ATOM      2  N   UNL     1      47.854   7.509  12.215  0.00  0.00    +0.000 N 
ATOM      3  H   UNL     1      47.584   8.380  12.666  0.00  0.00    +0.000 HD
BRANCH   2   7
ATOM      4  C   UNL     1      44.849   4.554  11.978  0.00  0.00    +0.000 A 
ATOM      5  C   UNL     1      45.434   4.832  13.212  0.00  0.00    +0.000 A 
ATOM      6  C   UNL     1      46.420   5.825  13.313  0.00  0.00    +0.000 A 
ATOM      7  C   UNL     1      46.817   6.575  12.198  0.00  0.00    +0.000 A 
ATOM      8  C   UNL     1      46.225   6.274  10.967  0.00  0.00    +0.000 A 
ATOM      9  C   UNL     1      45.253   5.269  10.848  0.00  0.00    +0.000 A 
BRANCH   4  11
ATOM     10  N   UNL     1      43.963   2.366  12.598  0.00  0.00    +0.000 N 
ATOM     11  C   UNL     1      43.835   3.476  11.811  0.00  0.00    +0.000 C 
ATOM     12  O   UNL     1      42.900   3.590  11.028  0.00  0.00    +0.000 OA
ATOM     13  H   UNL     1      43.203   1.697  12.547  0.00  0.00    +0.000 HD
ATOM     14  H   UNL     1      44.555   2.346  13.412  0.00  0.00    +0.000 HD
ENDBRANCH   4  11
ENDBRANCH   2   7
ENDBRANCH   1   2
BRANCH   1  15
ATOM     15  C   UNL     1      49.971   8.120  13.329  0.00  0.00    +0.000 C 
BRANCH  15  16
ATOM     16  C   UNL     1      49.318   8.245  14.684  0.00  0.00    +0.000 A 
ATOM     17  C   UNL     1      48.932   9.508  15.150  0.00  0.00    +0.000 A 
ATOM     18  C   UNL     1      48.467   9.660  16.454  0.00  0.00    +0.000 A 
ATOM     19  C   UNL     1      48.343   8.549  17.290  0.00  0.00    +0.000 A 
ATOM     20  C   UNL     1      48.636   7.269  16.814  0.00  0.00    +0.000 A 
ATOM     21  C   UNL     1      49.162   7.128  15.524  0.00  0.00    +0.000 A 
BRANCH  20  22
ATOM     22  O   UNL     1      48.439   6.098  17.507  0.00  0.00    +0.000 OA
BRANCH  22  23
ATOM     23  C   UNL     1      48.916   4.895  16.884  0.00  0.00    +0.000 C 
ATOM     24  C   UNL     1      47.758   3.927  16.672  0.00  0.00    +0.000 C 
ATOM     25  C   UNL     1      47.790   3.009  17.880  0.00  0.00    +0.000 C 
ATOM     26  N   UNL     1      49.188   2.911  18.292  0.00  0.00    +0.000 NA
ATOM     27  C   UNL     1      49.881   4.100  17.777  0.00  0.00    +0.000 C 
ATOM     28  H   UNL     1      49.614   2.072  17.900  0.00  0.00    +0.000 HD
ENDBRANCH  22  23
ENDBRANCH  20  22
ENDBRANCH  15  16
ENDBRANCH   1  15
TORSDOF 7
ENDMDL
