MODEL 1
REMARK VINA RESULT:    -8.115      0.000      0.000
REMARK INTER + INTRA:         -11.945
REMARK INTER:                 -10.961
REMARK INTRA:                  -0.984
REMARK UNBOUND:                -0.984
REMARK  Name = 
REMARK  7 active torsions:
REMARK  status: ('A' for Active; 'I' for Inactive)
REMARK    1  A    between atoms: C_1  and  N_2
REMARK    2  A    between atoms: N_2  and  C_3
REMARK    3  A    between atoms: C_3  and  C_4
REMARK    4  A    between atoms: C_7  and  C_8
REMARK    5  A    between atoms: C_8  and  N_9
REMARK    6  A    between atoms: C_10  and  C_12
REMARK    7  A    between atoms: C_24  and  C_26
REMARK                            x       y       z     vdW  Elec       q    Type
REMARK                         _______ _______ _______ _____ _____    ______ ____
ROOT
ATOM      1  C   UNL     1      46.439   4.667  13.444  0.00  0.00    +0.000 A 
ATOM      2  C   UNL     1      46.995   5.860  12.958  0.00  0.00    +0.000 A 
ATOM      3  C   UNL     1      47.890   6.596  13.735  0.00  0.00    +0.000 A 
ATOM      4  C   UNL     1      48.255   6.143  15.007  0.00  0.00    +0.000 A 
ATOM      5  C   UNL     1      47.656   4.982  15.516  0.00  0.00    +0.000 A 
ATOM      6  C   UNL     1      46.762   4.243  14.737  0.00  0.00    +0.000 A 
ENDROOT
BRANCH   1   7
ATOM      7  C   UNL     1      45.513   3.861  12.571  0.00  0.00    +0.000 C 
BRANCH   7   9
ATOM      8  C   UNL     1      43.345   5.136  12.916  0.00  0.00    +0.000 C 
ATOM      9  N   UNL     1      44.325   4.521  12.021  0.00  0.00    +0.000 N 
ATOM     10  C   UNL     1      43.941   4.459  10.668  0.00  0.00    +0.000 C 
ATOM     11  O   UNL     1      42.892   4.972  10.271  0.00  0.00    +0.000 OA
BRANCH  10  12
ATOM     12  C   UNL     1      44.792   3.824   9.627  0.00  0.00    +0.000 A 
ATOM     13  C   UNL     1      44.903   2.455   9.386  0.00  0.00    +0.000 A 
ATOM     14  C   UNL     1      45.773   1.986   8.401  0.00  0.00    +0.000 A 
ATOM     15  C   UNL     1      46.461   2.911   7.636  0.00  0.00    +0.000 A 
ATOM     16  N   UNL     1      46.325   4.243   7.784  0.00  0.00    +0.000 NA
ATOM     17  C   UNL     1      45.489   4.669   8.767  0.00  0.00    +0.000 A 
ENDBRANCH  10  12
ENDBRANCH   7   9
ENDBRANCH   1   7
BRANCH   4  18
ATOM     18  C   UNL     1      49.265   6.898  15.827  0.00  0.00    +0.000 C 
BRANCH  18  19
ATOM     19  N   UNL     1      50.301   6.027  16.314  0.00  0.00    +0.000 N 
ATOM     20  C   UNL     1      50.310   5.615  17.621  0.00  0.00    +0.000 C 
ATOM     21  O   UNL     1      49.416   5.922  18.405  0.00  0.00    +0.000 OA
ATOM     22  H   UNL     1      51.146   5.955  15.757  0.00  0.00    +0.000 HD
BRANCH  20  23
ATOM     23  C   UNL     1      51.412   4.733  18.022  0.00  0.00    +0.000 A 
ATOM     24  C   UNL     1      52.515   5.270  18.670  0.00  0.00    +0.000 A 
ATOM     25  S   UNL     1      53.679   4.108  19.115  0.00  0.00    +0.000 S 
ATOM     26  C   UNL     1      52.775   2.851  18.408  0.00  0.00    +0.000 A 
ATOM     27  N   UNL     1      53.234   1.570  18.410  0.00  0.00    +0.000 NA
ATOM     28  C   UNL     1      52.460   0.725  17.818  0.00  0.00    +0.000 A 
ATOM     29  N   UNL     1      51.269   1.043  17.218  0.00  0.00    +0.000 N 
ATOM     30  C   UNL     1      50.754   2.317  17.210  0.00  0.00    +0.000 A 
ATOM     31  O   UNL     1      49.666   2.559  16.697  0.00  0.00    +0.000 OA
ATOM     32  C   UNL     1      51.590   3.309  17.858  0.00  0.00    +0.000 A 
ATOM     33  H   UNL     1      50.710   0.332  16.773  0.00  0.00    +0.000 HD
ENDBRANCH  20  23
ENDBRANCH  18  19
ENDBRANCH   4  18
TORSDOF 6
ENDMDL
MODEL 2
REMARK VINA RESULT:    -8.109      2.517      3.156
REMARK INTER + INTRA:         -11.937
REMARK INTER:                 -11.092
REMARK INTRA:                  -0.846
REMARK UNBOUND:                -0.984
REMARK  Name = 
REMARK  7 active torsions:
REMARK  status: ('A' for Active; 'I' for Inactive)
REMARK    1  A    between atoms: C_1  and  N_2
REMARK    2  A    between atoms: N_2  and  C_3
REMARK    3  A    between atoms: C_3  and  C_4
REMARK    4  A    between atoms: C_7  and  C_8
REMARK    5  A    between atoms: C_8  and  N_9
REMARK    6  A    between atoms: C_10  and  C_12
REMARK    7  A    between atoms: C_24  and  C_26
REMARK                            x       y       z     vdW  Elec       q    Type
REMARK                         _______ _______ _______ _____ _____    ______ ____
ROOT
ATOM      1  C   UNL     1      45.255   6.859  11.410  0.00  0.00    +0.000 A 
ATOM      2  C   UNL     1      46.474   6.220  11.690  0.00  0.00    +0.000 A 
ATOM      3  C   UNL     1      47.383   6.784  12.584  0.00  0.00    +0.000 A 
ATOM      4  C   UNL     1      47.085   7.991  13.225  0.00  0.00    +0.000 A 
ATOM      5  C   UNL     1      45.895   8.658  12.902  0.00  0.00    +0.000 A 
ATOM      6  C   UNL     1      44.982   8.093  12.009  0.00  0.00    +0.000 A 
ENDROOT
BRANCH   1   7
ATOM      7  C   UNL     1      44.265   6.210  10.480  0.00  0.00    +0.000 C 
BRANCH   7   9
ATOM      8  C   UNL     1      42.582   5.159  12.064  0.00  0.00    +0.000 C 
ATOM      9  N   UNL     1      43.529   5.034  10.957  0.00  0.00    +0.000 N 
ATOM     10  C   UNL     1      43.794   3.714  10.544  0.00  0.00    +0.000 C 
ATOM     11  O   UNL     1      43.194   2.754  11.032  0.00  0.00    +0.000 OA
BRANCH  10  12
ATOM     12  C   UNL     1      44.767   3.398   9.466  0.00  0.00    +0.000 A 
ATOM     13  C   UNL     1      45.383   4.323   8.623  0.00  0.00    +0.000 A 
ATOM     14  C   UNL     1      46.249   3.888   7.620  0.00  0.00    +0.000 A 
ATOM     15  C   UNL     1      46.528   2.535   7.532  0.00  0.00    +0.000 A 
ATOM     16  N   UNL     1      46.015   1.616   8.373  0.00  0.00    +0.000 NA
ATOM     17  C   UNL     1      45.155   2.068   9.324  0.00  0.00    +0.000 A 
ENDBRANCH  10  12
ENDBRANCH   7   9
ENDBRANCH   1   7
BRANCH   4  18
ATOM     18  C   UNL     1      48.033   8.575  14.235  0.00  0.00    +0.000 C 
BRANCH  18  19
ATOM     19  N   UNL     1      48.227   7.685  15.348  0.00  0.00    +0.000 N 
ATOM     20  C   UNL     1      49.393   6.976  15.481  0.00  0.00    +0.000 C 
ATOM     21  O   UNL     1      50.329   7.113  14.698  0.00  0.00    +0.000 OA
ATOM     22  H   UNL     1      47.400   7.395  15.860  0.00  0.00    +0.000 HD
BRANCH  20  23
ATOM     23  C   UNL     1      49.491   6.091  16.646  0.00  0.00    +0.000 A 
ATOM     24  C   UNL     1      50.481   6.315  17.592  0.00  0.00    +0.000 A 
ATOM     25  S   UNL     1      50.426   5.234  18.909  0.00  0.00    +0.000 S 
ATOM     26  C   UNL     1      49.110   4.392  18.233  0.00  0.00    +0.000 A 
ATOM     27  N   UNL     1      48.579   3.305  18.857  0.00  0.00    +0.000 NA
ATOM     28  C   UNL     1      47.603   2.750  18.221  0.00  0.00    +0.000 A 
ATOM     29  N   UNL     1      47.111   3.178  17.016  0.00  0.00    +0.000 N 
ATOM     30  C   UNL     1      47.599   4.282  16.360  0.00  0.00    +0.000 A 
ATOM     31  O   UNL     1      47.109   4.661  15.300  0.00  0.00    +0.000 OA
ATOM     32  C   UNL     1      48.704   4.942  17.030  0.00  0.00    +0.000 A 
ATOM     33  H   UNL     1      46.343   2.699  16.572  0.00  0.00    +0.000 HD
ENDBRANCH  20  23
ENDBRANCH  18  19
ENDBRANCH   4  18
TORSDOF 6
ENDMDL
MODEL 3
REMARK VINA RESULT:    -7.611      3.709      8.548
REMARK INTER + INTRA:         -11.265
REMARK INTER:                  -9.731
REMARK INTRA:                  -1.534
REMARK UNBOUND:                -0.984
REMARK  Name = 
REMARK  7 active torsions:
REMARK  status: ('A' for Active; 'I' for Inactive)
REMARK    1  A    between atoms: C_1  and  N_2
REMARK    2  A    between atoms: N_2  and  C_3
REMARK    3  A    between atoms: C_3  and  C_4
REMARK    4  A    between atoms: C_7  and  C_8
REMARK    5  A    between atoms: C_8  and  N_9
REMARK    6  A    between atoms: C_10  and  C_12
REMARK    7  A    between atoms: C_24  and  C_26
REMARK                            x       y       z     vdW  Elec       q    Type
REMARK                         _______ _______ _______ _____ _____    ______ ____
ROOT
ATOM      1  C   UNL     1      48.984   7.694  16.295  0.00  0.00    +0.000 A 
ATOM      2  C   UNL     1      49.101   6.623  15.396  0.00  0.00    +0.000 A 
ATOM      3  C   UNL     1      48.802   6.793  14.044  0.00  0.00    +0.000 A 
ATOM      4  C   UNL     1      48.394   8.042  13.565  0.00  0.00    +0.000 A 
ATOM      5  C   UNL     1      48.221   9.097  14.472  0.00  0.00    +0.000 A 
ATOM      6  C   UNL     1      48.524   8.929  15.825  0.00  0.00    +0.000 A 
ENDROOT
BRANCH   1   7
ATOM      7  C   UNL     1      49.359   7.504  17.741  0.00  0.00    +0.000 C 
BRANCH   7   9
ATOM      8  C   UNL     1      47.856   8.373  19.593  0.00  0.00    +0.000 C 
ATOM      9  N   UNL     1      48.286   7.285  18.716  0.00  0.00    +0.000 N 
ATOM     10  C   UNL     1      47.733   6.025  19.014  0.00  0.00    +0.000 C 
ATOM     11  O   UNL     1      46.882   5.887  19.895  0.00  0.00    +0.000 OA
BRANCH  10  12
ATOM     12  C   UNL     1      48.095   4.797  18.257  0.00  0.00    +0.000 A 
ATOM     13  C   UNL     1      49.272   4.064  18.405  0.00  0.00    +0.000 A 
ATOM     14  C   UNL     1      49.508   2.949  17.599  0.00  0.00    +0.000 A 
ATOM     15  C   UNL     1      48.522   2.559  16.710  0.00  0.00    +0.000 A 
ATOM     16  N   UNL     1      47.339   3.194  16.589  0.00  0.00    +0.000 NA
ATOM     17  C   UNL     1      47.149   4.290  17.370  0.00  0.00    +0.000 A 
ENDBRANCH  10  12
ENDBRANCH   7   9
ENDBRANCH   1   7
BRANCH   4  18
ATOM     18  C   UNL     1      48.127   8.249  12.100  0.00  0.00    +0.000 C 
BRANCH  18  19
ATOM     19  N   UNL     1      47.496   7.097  11.514  0.00  0.00    +0.000 N 
ATOM     20  C   UNL     1      46.131   7.019  11.422  0.00  0.00    +0.000 C 
ATOM     21  O   UNL     1      45.402   7.941  11.778  0.00  0.00    +0.000 OA
ATOM     22  H   UNL     1      48.056   6.254  11.430  0.00  0.00    +0.000 HD
BRANCH  20  23
ATOM     23  C   UNL     1      45.585   5.801  10.814  0.00  0.00    +0.000 A 
ATOM     24  C   UNL     1      45.800   5.555   9.465  0.00  0.00    +0.000 A 
ATOM     25  S   UNL     1      45.148   4.075   8.927  0.00  0.00    +0.000 S 
ATOM     26  C   UNL     1      44.506   3.735  10.467  0.00  0.00    +0.000 A 
ATOM     27  N   UNL     1      43.784   2.604  10.691  0.00  0.00    +0.000 NA
ATOM     28  C   UNL     1      43.338   2.486  11.896  0.00  0.00    +0.000 A 
ATOM     29  N   UNL     1      43.543   3.398  12.898  0.00  0.00    +0.000 N 
ATOM     30  C   UNL     1      44.284   4.543  12.726  0.00  0.00    +0.000 A 
ATOM     31  O   UNL     1      44.480   5.319  13.655  0.00  0.00    +0.000 OA
ATOM     32  C   UNL     1      44.805   4.727  11.384  0.00  0.00    +0.000 A 
ATOM     33  H   UNL     1      43.168   3.244  13.821  0.00  0.00    +0.000 HD
ENDBRANCH  20  23
ENDBRANCH  18  19
ENDBRANCH   4  18
TORSDOF 6
ENDMDL
MODEL 4
REMARK VINA RESULT:    -7.555      3.506      8.745
REMARK INTER + INTRA:         -11.189
REMARK INTER:                  -9.557
REMARK INTRA:                  -1.633
REMARK UNBOUND:                -0.984
REMARK  Name = 
REMARK  7 active torsions:
REMARK  status: ('A' for Active; 'I' for Inactive)
REMARK    1  A    between atoms: C_1  and  N_2
REMARK    2  A    between atoms: N_2  and  C_3
REMARK    3  A    between atoms: C_3  and  C_4
REMARK    4  A    between atoms: C_7  and  C_8
REMARK    5  A    between atoms: C_8  and  N_9
REMARK    6  A    between atoms: C_10  and  C_12
REMARK    7  A    between atoms: C_24  and  C_26
REMARK                            x       y       z     vdW  Elec       q    Type
REMARK                         _______ _______ _______ _____ _____    ______ ____
ROOT
ATOM      1  C   UNL     1      49.068   7.810  16.219  0.00  0.00    +0.000 A 
ATOM      2  C   UNL     1      48.161   8.779  15.761  0.00  0.00    +0.000 A 
ATOM      3  C   UNL     1      47.735   8.783  14.433  0.00  0.00    +0.000 A 
ATOM      4  C   UNL     1      48.198   7.808  13.543  0.00  0.00    +0.000 A 
ATOM      5  C   UNL     1      49.147   6.876  13.985  0.00  0.00    +0.000 A 
ATOM      6  C   UNL     1      49.572   6.869  15.315  0.00  0.00    +0.000 A 
ENDROOT
BRANCH   1   7
ATOM      7  C   UNL     1      49.477   7.792  17.668  0.00  0.00    +0.000 C 
BRANCH   7   9
ATOM      8  C   UNL     1      48.066   8.710  19.568  0.00  0.00    +0.000 C 
ATOM      9  N   UNL     1      48.435   7.606  18.684  0.00  0.00    +0.000 N 
ATOM     10  C   UNL     1      47.863   6.362  19.011  0.00  0.00    +0.000 C 
ATOM     11  O   UNL     1      47.042   6.251  19.924  0.00  0.00    +0.000 OA
BRANCH  10  12
ATOM     12  C   UNL     1      48.166   5.121  18.250  0.00  0.00    +0.000 A 
ATOM     13  C   UNL     1      49.342   4.376  18.335  0.00  0.00    +0.000 A 
ATOM     14  C   UNL     1      49.517   3.250  17.532  0.00  0.00    +0.000 A 
ATOM     15  C   UNL     1      48.476   2.860  16.709  0.00  0.00    +0.000 A 
ATOM     16  N   UNL     1      47.294   3.506  16.651  0.00  0.00    +0.000 NA
ATOM     17  C   UNL     1      47.163   4.614  17.427  0.00  0.00    +0.000 A 
ENDBRANCH  10  12
ENDBRANCH   7   9
ENDBRANCH   1   7
BRANCH   4  18
ATOM     18  C   UNL     1      47.698   7.769  12.125  0.00  0.00    +0.000 C 
BRANCH  18  19
ATOM     19  N   UNL     1      47.002   6.541  11.849  0.00  0.00    +0.000 N 
ATOM     20  C   UNL     1      45.634   6.482  11.917  0.00  0.00    +0.000 C 
ATOM     21  O   UNL     1      44.952   7.476  12.157  0.00  0.00    +0.000 OA
ATOM     22  H   UNL     1      47.545   5.684  11.876  0.00  0.00    +0.000 HD
BRANCH  20  23
ATOM     23  C   UNL     1      45.019   5.183  11.624  0.00  0.00    +0.000 A 
ATOM     24  C   UNL     1      44.322   4.517  12.622  0.00  0.00    +0.000 A 
ATOM     25  S   UNL     1      43.624   3.051  12.106  0.00  0.00    +0.000 S 
ATOM     26  C   UNL     1      44.275   3.226  10.544  0.00  0.00    +0.000 A 
ATOM     27  N   UNL     1      44.077   2.276   9.590  0.00  0.00    +0.000 NA
ATOM     28  C   UNL     1      44.647   2.526   8.461  0.00  0.00    +0.000 A 
ATOM     29  N   UNL     1      45.404   3.638   8.196  0.00  0.00    +0.000 N 
ATOM     30  C   UNL     1      45.614   4.634   9.119  0.00  0.00    +0.000 A 
ATOM     31  O   UNL     1      46.265   5.635   8.836  0.00  0.00    +0.000 OA
ATOM     32  C   UNL     1      44.997   4.399  10.411  0.00  0.00    +0.000 A 
ATOM     33  H   UNL     1      45.822   3.774   7.289  0.00  0.00    +0.000 HD
ENDBRANCH  20  23
ENDBRANCH  18  19
ENDBRANCH   4  18
TORSDOF 6
ENDMDL
MODEL 5
REMARK VINA RESULT:    -7.529      3.029      4.081
REMARK INTER + INTRA:         -11.154
REMARK INTER:                 -10.491
REMARK INTRA:                  -0.663
REMARK UNBOUND:                -0.984
REMARK  Name = 
REMARK  7 active torsions:
REMARK  status: ('A' for Active; 'I' for Inactive)
REMARK    1  A    between atoms: C_1  and  N_2
REMARK    2  A    between atoms: N_2  and  C_3
REMARK    3  A    between atoms: C_3  and  C_4
REMARK    4  A    between atoms: C_7  and  C_8
REMARK    5  A    between atoms: C_8  and  N_9
REMARK    6  A    between atoms: C_10  and  C_12
REMARK    7  A    between atoms: C_24  and  C_26
REMARK                            x       y       z     vdW  Elec       q    Type
REMARK                         _______ _______ _______ _____ _____    ______ ____
ROOT
ATOM      1  C   UNL     1      45.560   6.666  11.787  0.00  0.00    +0.000 A 
ATOM      2  C   UNL     1      46.557   5.779  12.223  0.00  0.00    +0.000 A 
ATOM      3  C   UNL     1      47.544   6.201  13.112  0.00  0.00    +0.000 A 
ATOM      4  C   UNL     1      47.545   7.515  13.592  0.00  0.00    +0.000 A 
ATOM      5  C   UNL     1      46.584   8.417  13.112  0.00  0.00    +0.000 A 
ATOM      6  C   UNL     1      45.593   7.994  12.224  0.00  0.00    +0.000 A 
ENDROOT
BRANCH   1   7
ATOM      7  C   UNL     1      44.473   6.177  10.865  0.00  0.00    +0.000 C 
BRANCH   7   9
ATOM      8  C   UNL     1      42.767   5.158  12.445  0.00  0.00    +0.000 C 
ATOM      9  N   UNL     1      43.659   5.035  11.293  0.00  0.00    +0.000 N 
ATOM     10  C   UNL     1      43.797   3.730  10.782  0.00  0.00    +0.000 C 
ATOM     11  O   UNL     1      43.136   2.790  11.228  0.00  0.00    +0.000 OA
BRANCH  10  12
ATOM     12  C   UNL     1      44.701   3.412   9.644  0.00  0.00    +0.000 A 
ATOM     13  C   UNL     1      45.283   4.338   8.780  0.00  0.00    +0.000 A 
ATOM     14  C   UNL     1      46.082   3.902   7.723  0.00  0.00    +0.000 A 
ATOM     15  C   UNL     1      46.331   2.546   7.601  0.00  0.00    +0.000 A 
ATOM     16  N   UNL     1      45.850   1.624   8.458  0.00  0.00    +0.000 NA
ATOM     17  C   UNL     1      45.055   2.077   9.463  0.00  0.00    +0.000 A 
ENDBRANCH  10  12
ENDBRANCH   7   9
ENDBRANCH   1   7
BRANCH   4  18
ATOM     18  C   UNL     1      48.571   7.962  14.597  0.00  0.00    +0.000 C 
BRANCH  18  19
ATOM     19  N   UNL     1      48.332   7.371  15.886  0.00  0.00    +0.000 N 
ATOM     20  C   UNL     1      49.251   6.520  16.446  0.00  0.00    +0.000 C 
ATOM     21  O   UNL     1      50.325   6.276  15.903  0.00  0.00    +0.000 OA
ATOM     22  H   UNL     1      47.378   7.379  16.232  0.00  0.00    +0.000 HD
BRANCH  20  23
ATOM     23  C   UNL     1      48.912   5.965  17.761  0.00  0.00    +0.000 A 
ATOM     24  C   UNL     1      49.078   4.607  17.991  0.00  0.00    +0.000 A 
ATOM     25  S   UNL     1      48.693   4.131  19.582  0.00  0.00    +0.000 S 
ATOM     26  C   UNL     1      48.238   5.716  20.004  0.00  0.00    +0.000 A 
ATOM     27  N   UNL     1      47.767   6.003  21.248  0.00  0.00    +0.000 NA
ATOM     28  C   UNL     1      47.437   7.238  21.423  0.00  0.00    +0.000 A 
ATOM     29  N   UNL     1      47.528   8.214  20.464  0.00  0.00    +0.000 N 
ATOM     30  C   UNL     1      48.017   7.978  19.202  0.00  0.00    +0.000 A 
ATOM     31  O   UNL     1      48.120   8.883  18.381  0.00  0.00    +0.000 OA
ATOM     32  C   UNL     1      48.398   6.601  18.952  0.00  0.00    +0.000 A 
ATOM     33  H   UNL     1      47.254   9.162  20.667  0.00  0.00    +0.000 HD
ENDBRANCH  20  23
ENDBRANCH  18  19
ENDBRANCH   4  18
TORSDOF 6
ENDMDL
MODEL 6
REMARK VINA RESULT:    -7.332      3.443     10.286
REMARK INTER + INTRA:         -10.887
REMARK INTER:                  -9.502
REMARK INTRA:                  -1.385
REMARK UNBOUND:                -0.984
REMARK  Name = 
REMARK  7 active torsions:
REMARK  status: ('A' for Active; 'I' for Inactive)
REMARK    1  A    between atoms: C_1  and  N_2
REMARK    2  A    between atoms: N_2  and  C_3
REMARK    3  A    between atoms: C_3  and  C_4
REMARK    4  A    between atoms: C_7  and  C_8
REMARK    5  A    between atoms: C_8  and  N_9
REMARK    6  A    between atoms: C_10  and  C_12
REMARK    7  A    between atoms: C_24  and  C_26
REMARK                            x       y       z     vdW  Elec       q    Type
REMARK                         _______ _______ _______ _____ _____    ______ ____
ROOT
ATOM      1  C   UNL     1      51.491   4.113  17.779  0.00  0.00    +0.000 A 
ATOM      2  C   UNL     1      50.610   5.201  17.674  0.00  0.00    +0.000 A 
ATOM      3  C   UNL     1      49.272   5.004  17.334  0.00  0.00    +0.000 A 
ATOM      4  C   UNL     1      48.787   3.711  17.107  0.00  0.00    +0.000 A 
ATOM      5  C   UNL     1      49.678   2.630  17.155  0.00  0.00    +0.000 A 
ATOM      6  C   UNL     1      51.018   2.826  17.498  0.00  0.00    +0.000 A 
ENDROOT
BRANCH   1   7
ATOM      7  C   UNL     1      52.920   4.342  18.195  0.00  0.00    +0.000 C 
BRANCH   7   9
ATOM      8  C   UNL     1      54.207   2.359  19.120  0.00  0.00    +0.000 C 
ATOM      9  N   UNL     1      53.442   3.585  19.338  0.00  0.00    +0.000 N 
ATOM     10  C   UNL     1      53.108   3.851  20.680  0.00  0.00    +0.000 C 
ATOM     11  O   UNL     1      53.519   3.138  21.599  0.00  0.00    +0.000 OA
BRANCH  10  12
ATOM     12  C   UNL     1      52.292   5.027  21.080  0.00  0.00    +0.000 A 
ATOM     13  C   UNL     1      50.922   5.022  21.338  0.00  0.00    +0.000 A 
ATOM     14  C   UNL     1      50.266   6.209  21.666  0.00  0.00    +0.000 A 
ATOM     15  C   UNL     1      51.019   7.363  21.793  0.00  0.00    +0.000 A 
ATOM     16  N   UNL     1      52.356   7.398  21.627  0.00  0.00    +0.000 NA
ATOM     17  C   UNL     1      52.962   6.231  21.284  0.00  0.00    +0.000 A 
ENDBRANCH  10  12
ENDBRANCH   7   9
ENDBRANCH   1   7
BRANCH   4  18
ATOM     18  C   UNL     1      47.333   3.484  16.800  0.00  0.00    +0.000 C 
BRANCH  18  19
ATOM     19  N   UNL     1      46.838   4.455  15.861  0.00  0.00    +0.000 N 
ATOM     20  C   UNL     1      46.871   4.206  14.514  0.00  0.00    +0.000 C 
ATOM     21  O   UNL     1      47.267   3.134  14.061  0.00  0.00    +0.000 OA
ATOM     22  H   UNL     1      46.725   5.407  16.195  0.00  0.00    +0.000 HD
BRANCH  20  23
ATOM     23  C   UNL     1      46.348   5.261  13.639  0.00  0.00    +0.000 A 
ATOM     24  C   UNL     1      47.085   6.422  13.455  0.00  0.00    +0.000 A 
ATOM     25  S   UNL     1      46.367   7.522  12.370  0.00  0.00    +0.000 S 
ATOM     26  C   UNL     1      45.017   6.510  12.151  0.00  0.00    +0.000 A 
ATOM     27  N   UNL     1      43.984   6.882  11.346  0.00  0.00    +0.000 NA
ATOM     28  C   UNL     1      43.017   6.031  11.291  0.00  0.00    +0.000 A 
ATOM     29  N   UNL     1      42.983   4.841  11.972  0.00  0.00    +0.000 N 
ATOM     30  C   UNL     1      44.010   4.412  12.777  0.00  0.00    +0.000 A 
ATOM     31  O   UNL     1      43.963   3.324  13.341  0.00  0.00    +0.000 OA
ATOM     32  C   UNL     1      45.123   5.337  12.878  0.00  0.00    +0.000 A 
ATOM     33  H   UNL     1      42.195   4.218  11.883  0.00  0.00    +0.000 HD
ENDBRANCH  20  23
ENDBRANCH  18  19
ENDBRANCH   4  18
TORSDOF 6
ENDMDL
MODEL 7
REMARK VINA RESULT:    -7.275      3.770      8.489
REMARK INTER + INTRA:         -10.811
REMARK INTER:                  -9.082
REMARK INTRA:                  -1.729
REMARK UNBOUND:                -0.984
REMARK  Name = 
REMARK  7 active torsions:
REMARK  status: ('A' for Active; 'I' for Inactive)
REMARK    1  A    between atoms: C_1  and  N_2
REMARK    2  A    between atoms: N_2  and  C_3
REMARK    3  A    between atoms: C_3  and  C_4
REMARK    4  A    between atoms: C_7  and  C_8
REMARK    5  A    between atoms: C_8  and  N_9
REMARK    6  A    between atoms: C_10  and  C_12
REMARK    7  A    between atoms: C_24  and  C_26
REMARK                            x       y       z     vdW  Elec       q    Type
REMARK                         _______ _______ _______ _____ _____    ______ ____
ROOT
ATOM      1  C   UNL     1      49.972   7.003  17.566  0.00  0.00    +0.000 A 
ATOM      2  C   UNL     1      50.162   6.503  16.268  0.00  0.00    +0.000 A 
ATOM      3  C   UNL     1      49.507   7.081  15.181  0.00  0.00    +0.000 A 
ATOM      4  C   UNL     1      48.660   8.178  15.370  0.00  0.00    +0.000 A 
ATOM      5  C   UNL     1      48.425   8.641  16.673  0.00  0.00    +0.000 A 
ATOM      6  C   UNL     1      49.083   8.065  17.762  0.00  0.00    +0.000 A 
ENDROOT
BRANCH   1   7
ATOM      7  C   UNL     1      50.727   6.398  18.720  0.00  0.00    +0.000 C 
BRANCH   7   9
ATOM      8  C   UNL     1      50.308   6.448  21.223  0.00  0.00    +0.000 C 
ATOM      9  N   UNL     1      49.966   5.951  19.892  0.00  0.00    +0.000 N 
ATOM     10  C   UNL     1      49.015   4.913  19.867  0.00  0.00    +0.000 C 
ATOM     11  O   UNL     1      48.456   4.528  20.897  0.00  0.00    +0.000 OA
BRANCH  10  12
ATOM     12  C   UNL     1      48.585   4.256  18.605  0.00  0.00    +0.000 A 
ATOM     13  C   UNL     1      47.425   4.545  17.887  0.00  0.00    +0.000 A 
ATOM     14  C   UNL     1      47.117   3.822  16.734  0.00  0.00    +0.000 A 
ATOM     15  C   UNL     1      48.020   2.870  16.293  0.00  0.00    +0.000 A 
ATOM     16  N   UNL     1      49.188   2.612  16.914  0.00  0.00    +0.000 NA
ATOM     17  C   UNL     1      49.448   3.315  18.047  0.00  0.00    +0.000 A 
ENDBRANCH  10  12
ENDBRANCH   7   9
ENDBRANCH   1   7
BRANCH   4  18
ATOM     18  C   UNL     1      47.997   8.844  14.196  0.00  0.00    +0.000 C 
BRANCH  18  19
ATOM     19  N   UNL     1      46.837   8.111  13.765  0.00  0.00    +0.000 N 
ATOM     20  C   UNL     1      46.853   7.404  12.590  0.00  0.00    +0.000 C 
ATOM     21  O   UNL     1      47.864   7.322  11.896  0.00  0.00    +0.000 OA
ATOM     22  H   UNL     1      45.950   8.350  14.196  0.00  0.00    +0.000 HD
BRANCH  20  23
ATOM     23  C   UNL     1      45.619   6.696  12.235  0.00  0.00    +0.000 A 
ATOM     24  C   UNL     1      44.552   7.407  11.707  0.00  0.00    +0.000 A 
ATOM     25  S   UNL     1      43.215   6.432  11.298  0.00  0.00    +0.000 S 
ATOM     26  C   UNL     1      43.996   5.029  11.864  0.00  0.00    +0.000 A 
ATOM     27  N   UNL     1      43.374   3.819  11.833  0.00  0.00    +0.000 NA
ATOM     28  C   UNL     1      44.073   2.848  12.316  0.00  0.00    +0.000 A 
ATOM     29  N   UNL     1      45.336   2.975  12.833  0.00  0.00    +0.000 N 
ATOM     30  C   UNL     1      46.012   4.170  12.866  0.00  0.00    +0.000 A 
ATOM     31  O   UNL     1      47.157   4.241  13.301  0.00  0.00    +0.000 OA
ATOM     32  C   UNL     1      45.268   5.299  12.339  0.00  0.00    +0.000 A 
ATOM     33  H   UNL     1      45.828   2.173  13.194  0.00  0.00    +0.000 HD
ENDBRANCH  20  23
ENDBRANCH  18  19
ENDBRANCH   4  18
TORSDOF 6
ENDMDL
MODEL 8
REMARK VINA RESULT:    -6.761      4.616      5.324
REMARK INTER + INTRA:         -10.116
REMARK INTER:                  -9.319
REMARK INTRA:                  -0.797
REMARK UNBOUND:                -0.984
REMARK  Name = 
REMARK  7 active torsions:
REMARK  status: ('A' for Active; 'I' for Inactive)
REMARK    1  A    between atoms: C_1  and  N_2
REMARK    2  A    between atoms: N_2  and  C_3
REMARK    3  A    between atoms: C_3  and  C_4
REMARK    4  A    between atoms: C_7  and  C_8
REMARK    5  A    between atoms: C_8  and  N_9
REMARK    6  A    between atoms: C_10  and  C_12
REMARK    7  A    between atoms: C_24  and  C_26
REMARK                            x       y       z     vdW  Elec       q    Type
REMARK                         _______ _______ _______ _____ _____    ______ ____
ROOT
ATOM      1  C   UNL     1      45.560   6.607  11.945  0.00  0.00    +0.000 A 
ATOM      2  C   UNL     1      45.496   7.926  12.421  0.00  0.00    +0.000 A 
ATOM      3  C   UNL     1      46.466   8.414  13.297  0.00  0.00    +0.000 A 
ATOM      4  C   UNL     1      47.525   7.594  13.701  0.00  0.00    +0.000 A 
ATOM      5  C   UNL     1      47.557   6.260  13.272  0.00  0.00    +0.000 A 
ATOM      6  C   UNL     1      46.589   5.772  12.392  0.00  0.00    +0.000 A 
ENDROOT
BRANCH   1   7
ATOM      7  C   UNL     1      44.531   6.115  10.961  0.00  0.00    +0.000 C 
BRANCH   7   9
ATOM      8  C   UNL     1      42.813   5.053  12.498  0.00  0.00    +0.000 C 
ATOM      9  N   UNL     1      43.699   4.968  11.339  0.00  0.00    +0.000 N 
ATOM     10  C   UNL     1      43.813   3.686  10.768  0.00  0.00    +0.000 C 
ATOM     11  O   UNL     1      43.138   2.737  11.173  0.00  0.00    +0.000 OA
BRANCH  10  12
ATOM     12  C   UNL     1      44.708   3.405   9.613  0.00  0.00    +0.000 A 
ATOM     13  C   UNL     1      45.261   4.357   8.758  0.00  0.00    +0.000 A 
ATOM     14  C   UNL     1      46.054   3.956   7.683  0.00  0.00    +0.000 A 
ATOM     15  C   UNL     1      46.327   2.607   7.534  0.00  0.00    +0.000 A 
ATOM     16  N   UNL     1      45.875   1.661   8.381  0.00  0.00    +0.000 NA
ATOM     17  C   UNL     1      45.085   2.081   9.404  0.00  0.00    +0.000 A 
ENDBRANCH  10  12
ENDBRANCH   7   9
ENDBRANCH   1   7
BRANCH   4  18
ATOM     18  C   UNL     1      48.607   8.130  14.597  0.00  0.00    +0.000 C 
BRANCH  18  19
ATOM     19  N   UNL     1      49.895   8.064  13.961  0.00  0.00    +0.000 N 
ATOM     20  C   UNL     1      50.649   9.195  13.789  0.00  0.00    +0.000 C 
ATOM     21  O   UNL     1      50.287  10.288  14.217  0.00  0.00    +0.000 OA
ATOM     22  H   UNL     1      50.099   7.234  13.412  0.00  0.00    +0.000 HD
BRANCH  20  23
ATOM     23  C   UNL     1      51.945   9.023  13.124  0.00  0.00    +0.000 A 
ATOM     24  C   UNL     1      53.084   9.573  13.696  0.00  0.00    +0.000 A 
ATOM     25  S   UNL     1      54.513   9.238  12.830  0.00  0.00    +0.000 S 
ATOM     26  C   UNL     1      53.653   8.393  11.628  0.00  0.00    +0.000 A 
ATOM     27  N   UNL     1      54.292   7.861  10.551  0.00  0.00    +0.000 NA
ATOM     28  C   UNL     1      53.515   7.270   9.708  0.00  0.00    +0.000 A 
ATOM     29  N   UNL     1      52.154   7.166   9.839  0.00  0.00    +0.000 N 
ATOM     30  C   UNL     1      51.468   7.667  10.919  0.00  0.00    +0.000 A 
ATOM     31  O   UNL     1      50.254   7.522  11.023  0.00  0.00    +0.000 OA
ATOM     32  C   UNL     1      52.296   8.348  11.896  0.00  0.00    +0.000 A 
ATOM     33  H   UNL     1      51.604   6.687   9.143  0.00  0.00    +0.000 HD
ENDBRANCH  20  23
ENDBRANCH  18  19
ENDBRANCH   4  18
TORSDOF 6
ENDMDL
MODEL 9
REMARK VINA RESULT:    -6.754      5.711      8.979
REMARK INTER + INTRA:         -10.106
REMARK INTER:                  -8.972
REMARK INTRA:                  -1.134
REMARK UNBOUND:                -0.984
REMARK  Name = 
REMARK  7 active torsions:
REMARK  status: ('A' for Active; 'I' for Inactive)
REMARK    1  A    between atoms: C_1  and  N_2
REMARK    2  A    between atoms: N_2  and  C_3
REMARK    3  A    between atoms: C_3  and  C_4
REMARK    4  A    between atoms: C_7  and  C_8
REMARK    5  A    between atoms: C_8  and  N_9
REMARK    6  A    between atoms: C_10  and  C_12
REMARK    7  A    between atoms: C_24  and  C_26
REMARK                            x       y       z     vdW  Elec       q    Type
REMARK                         _______ _______ _______ _____ _____    ______ ____
ROOT
ATOM      1  C   UNL     1      50.346   8.985  11.418  0.00  0.00    +0.000 A 
ATOM      2  C   UNL     1      49.461  10.038  11.695  0.00  0.00    +0.000 A 
ATOM      3  C   UNL     1      48.196   9.784  12.225  0.00  0.00    +0.000 A 
ATOM      4  C   UNL     1      47.799   8.471  12.500  0.00  0.00    +0.000 A 
ATOM      5  C   UNL     1      48.660   7.415  12.169  0.00  0.00    +0.000 A 
ATOM      6  C   UNL     1      49.928   7.669  11.642  0.00  0.00    +0.000 A 
ENDROOT
BRANCH   1   7
ATOM      7  C   UNL     1      51.726   9.283  10.894  0.00  0.00    +0.000 C 
BRANCH   7   9
ATOM      8  C   UNL     1      53.235   8.613  12.822  0.00  0.00    +0.000 C 
ATOM      9  N   UNL     1      52.853   8.503  11.415  0.00  0.00    +0.000 N 
ATOM     10  C   UNL     1      53.742   7.765  10.611  0.00  0.00    +0.000 C 
ATOM     11  O   UNL     1      54.717   7.184  11.093  0.00  0.00    +0.000 OA
BRANCH  10  12
ATOM     12  C   UNL     1      53.537   7.591   9.148  0.00  0.00    +0.000 A 
ATOM     13  C   UNL     1      52.774   6.593   8.542  0.00  0.00    +0.000 A 
ATOM     14  C   UNL     1      52.697   6.518   7.152  0.00  0.00    +0.000 A 
ATOM     15  C   UNL     1      53.335   7.492   6.403  0.00  0.00    +0.000 A 
ATOM     16  N   UNL     1      54.020   8.516   6.949  0.00  0.00    +0.000 NA
ATOM     17  C   UNL     1      54.097   8.548   8.306  0.00  0.00    +0.000 A 
ENDBRANCH  10  12
ENDBRANCH   7   9
ENDBRANCH   1   7
BRANCH   4  18
ATOM     18  C   UNL     1      46.461   8.192  13.126  0.00  0.00    +0.000 C 
BRANCH  18  19
ATOM     19  N   UNL     1      46.008   6.861  12.824  0.00  0.00    +0.000 N 
ATOM     20  C   UNL     1      45.048   6.650  11.868  0.00  0.00    +0.000 C 
ATOM     21  O   UNL     1      44.583   7.571  11.200  0.00  0.00    +0.000 OA
ATOM     22  H   UNL     1      46.207   6.137  13.506  0.00  0.00    +0.000 HD
BRANCH  20  23
ATOM     23  C   UNL     1      44.649   5.258  11.637  0.00  0.00    +0.000 A 
ATOM     24  C   UNL     1      43.961   4.572  12.628  0.00  0.00    +0.000 A 
ATOM     25  S   UNL     1      43.525   2.985  12.183  0.00  0.00    +0.000 S 
ATOM     26  C   UNL     1      44.288   3.140  10.670  0.00  0.00    +0.000 A 
ATOM     27  N   UNL     1      44.313   2.104   9.788  0.00  0.00    +0.000 NA
ATOM     28  C   UNL     1      44.946   2.352   8.692  0.00  0.00    +0.000 A 
ATOM     29  N   UNL     1      45.563   3.540   8.397  0.00  0.00    +0.000 N 
ATOM     30  C   UNL     1      45.546   4.621   9.245  0.00  0.00    +0.000 A 
ATOM     31  O   UNL     1      46.075   5.683   8.933  0.00  0.00    +0.000 OA
ATOM     32  C   UNL     1      44.850   4.393  10.497  0.00  0.00    +0.000 A 
ATOM     33  H   UNL     1      46.040   3.670   7.518  0.00  0.00    +0.000 HD
ENDBRANCH  20  23
ENDBRANCH  18  19
ENDBRANCH   4  18
TORSDOF 6
ENDMDL
