MODEL 1
REMARK VINA RESULT:    -8.004      0.000      0.000
REMARK INTER + INTRA:         -12.844
REMARK INTER:                 -11.982
REMARK INTRA:                  -0.862
REMARK UNBOUND:                -0.862
REMARK  Name = 
REMARK  9 active torsions:
REMARK  status: ('A' for Active; 'I' for Inactive)
REMARK    1  A    between atoms: C_2  and  C_22
REMARK    2  A    between atoms: N_3  and  C_4
REMARK    3  A    between atoms: C_4  and  C_5
REMARK    4  A    between atoms: C_8  and  C_9
REMARK    5  A    between atoms: C_9  and  N_10
REMARK    6  A    between atoms: N_10  and  CA_11
REMARK    7  A    between atoms: CA_11  and  C_12
REMARK    8  A    between atoms: CA_11  and  C_14
REMARK    9  A    between atoms: C_12  and  O_13
REMARK                            x       y       z     vdW  Elec       q    Type
REMARK                         _______ _______ _______ _____ _____    ______ ____
ROOT
ATOM      1  C   UNL     1      47.074   6.483  12.828  0.00  0.00    +0.000 A 
ATOM      2  C   UNL     1      46.035   5.894  13.561  0.00  0.00    +0.000 A 
ATOM      3  C   UNL     1      44.857   5.488  12.928  0.00  0.00    +0.000 A 
ATOM      4  C   UNL     1      44.687   5.675  11.550  0.00  0.00    +0.000 A 
ATOM      5  C   UNL     1      45.749   6.225  10.813  0.00  0.00    +0.000 A 
ATOM      6  C   UNL     1      46.929   6.623  11.444  0.00  0.00    +0.000 A 
ENDROOT
BRANCH   1   7
ATOM      7  C   UNL     1      48.337   6.923  13.522  0.00  0.00    +0.000 C 
BRANCH   7  10
ATOM      8  O   UNL     1      50.420   6.694  15.407  0.00  0.00    +0.000 OA
ATOM      9  C   UNL     1      49.264   6.814  15.804  0.00  0.00    +0.000 C 
ATOM     10  N   UNL     1      48.194   6.879  14.952  0.00  0.00    +0.000 N 
ATOM     11  H   UNL     1      47.286   7.146  15.315  0.00  0.00    +0.000 HD
BRANCH   9  12
ATOM     12  C   UNL     1      48.948   6.842  17.238  0.00  0.00    +0.000 A 
ATOM     13  C   UNL     1      48.557   8.034  17.836  0.00  0.00    +0.000 A 
ATOM     14  S   UNL     1      48.224   7.886  19.501  0.00  0.00    +0.000 S 
ATOM     15  C   UNL     1      48.552   6.216  19.476  0.00  0.00    +0.000 A 
ATOM     16  N   UNL     1      48.416   5.459  20.596  0.00  0.00    +0.000 NA
ATOM     17  C   UNL     1      48.659   4.203  20.425  0.00  0.00    +0.000 A 
ATOM     18  N   UNL     1      49.043   3.637  19.236  0.00  0.00    +0.000 N 
ATOM     19  C   UNL     1      49.272   4.375  18.100  0.00  0.00    +0.000 A 
ATOM     20  O   UNL     1      49.759   3.857  17.099  0.00  0.00    +0.000 OA
ATOM     21  C   UNL     1      48.954   5.784  18.222  0.00  0.00    +0.000 A 
ATOM     22  H   UNL     1      49.255   2.652  19.177  0.00  0.00    +0.000 HD
ENDBRANCH   9  12
ENDBRANCH   7  10
ENDBRANCH   1   7
BRANCH   4  23
ATOM     23  C   UNL     1      43.441   5.225  10.822  0.00  0.00    +0.000 C 
BRANCH  23  24
ATOM     24  N   UNL     1      43.706   4.631   9.512  0.00  0.00    +0.000 NA
ATOM     25  H   UNL     1      44.447   5.133   9.029  0.00  0.00    +0.000 HD
BRANCH  24  26
ATOM     26  CA  UNL     1      43.987   3.185   9.568  0.00  0.00    +0.000 C 
BRANCH  26  27
ATOM     27  C   UNL     1      45.175   2.869   8.662  0.00  0.00    +0.000 A 
ATOM     28  C   UNL     1      45.786   3.906   7.943  0.00  0.00    +0.000 A 
ATOM     29  C   UNL     1      46.867   3.612   7.122  0.00  0.00    +0.000 A 
ATOM     30  N   UNL     1      47.386   2.379   6.968  0.00  0.00    +0.000 NA
ATOM     31  C   UNL     1      46.803   1.394   7.680  0.00  0.00    +0.000 A 
ATOM     32  C   UNL     1      45.720   1.586   8.529  0.00  0.00    +0.000 A 
ENDBRANCH  26  27
BRANCH  26  33
ATOM     33  C   UNL     1      44.122   2.606  11.009  0.00  0.00    +0.000 C 
BRANCH  33  34
ATOM     34  O   UNL     1      42.923   2.000  11.495  0.00  0.00    +0.000 OA
ATOM     35  H   UNL     1      42.817   2.266  12.423  0.00  0.00    +0.000 HD
ENDBRANCH  33  34
ENDBRANCH  26  33
ENDBRANCH  24  26
ENDBRANCH  23  24
ENDBRANCH   4  23
TORSDOF 9
ENDMDL
MODEL 2
REMARK VINA RESULT:    -7.924      1.445      1.805
REMARK INTER + INTRA:         -12.724
REMARK INTER:                 -11.217
REMARK INTRA:                  -1.506
REMARK UNBOUND:                -0.862
REMARK  Name = 
REMARK  9 active torsions:
REMARK  status: ('A' for Active; 'I' for Inactive)
REMARK    1  A    between atoms: C_2  and  C_22
REMARK    2  A    between atoms: N_3  and  C_4
REMARK    3  A    between atoms: C_4  and  C_5
REMARK    4  A    between atoms: C_8  and  C_9
REMARK    5  A    between atoms: C_9  and  N_10
REMARK    6  A    between atoms: N_10  and  CA_11
REMARK    7  A    between atoms: CA_11  and  C_12
REMARK    8  A    between atoms: CA_11  and  C_14
REMARK    9  A    between atoms: C_12  and  O_13
REMARK                            x       y       z     vdW  Elec       q    Type
REMARK                         _______ _______ _______ _____ _____    ______ ____
ROOT
ATOM      1  C   UNL     1      47.218   7.671  12.599  0.00  0.00    +0.000 A 
ATOM      2  C   UNL     1      45.946   8.135  12.960  0.00  0.00    +0.000 A 
ATOM      3  C   UNL     1      44.794   7.506  12.480  0.00  0.00    +0.000 A 
ATOM      4  C   UNL     1      44.890   6.405  11.618  0.00  0.00    +0.000 A 
ATOM      5  C   UNL     1      46.167   5.917  11.295  0.00  0.00    +0.000 A 
ATOM      6  C   UNL     1      47.317   6.541  11.779  0.00  0.00    +0.000 A 
ENDROOT
BRANCH   1   7
ATOM      7  C   UNL     1      48.453   8.362  13.116  0.00  0.00    +0.000 C 
BRANCH   7  10
ATOM      8  O   UNL     1      48.059   9.198  15.779  0.00  0.00    +0.000 OA
ATOM      9  C   UNL     1      48.684   8.163  15.563  0.00  0.00    +0.000 C 
ATOM     10  N   UNL     1      48.961   7.718  14.297  0.00  0.00    +0.000 N 
ATOM     11  H   UNL     1      49.326   6.781  14.169  0.00  0.00    +0.000 HD
BRANCH   9  12
ATOM     12  C   UNL     1      49.225   7.354  16.662  0.00  0.00    +0.000 A 
ATOM     13  C   UNL     1      50.059   7.942  17.606  0.00  0.00    +0.000 A 
ATOM     14  S   UNL     1      50.592   6.861  18.813  0.00  0.00    +0.000 S 
ATOM     15  C   UNL     1      49.698   5.579  18.140  0.00  0.00    +0.000 A 
ATOM     16  N   UNL     1      49.685   4.353  18.724  0.00  0.00    +0.000 NA
ATOM     17  C   UNL     1      48.935   3.485  18.130  0.00  0.00    +0.000 A 
ATOM     18  N   UNL     1      48.208   3.730  16.993  0.00  0.00    +0.000 N 
ATOM     19  C   UNL     1      48.256   4.929  16.324  0.00  0.00    +0.000 A 
ATOM     20  O   UNL     1      47.713   5.062  15.231  0.00  0.00    +0.000 OA
ATOM     21  C   UNL     1      49.036   5.958  16.983  0.00  0.00    +0.000 A 
ATOM     22  H   UNL     1      47.671   2.997  16.556  0.00  0.00    +0.000 HD
ENDBRANCH   9  12
ENDBRANCH   7  10
ENDBRANCH   1   7
BRANCH   4  23
ATOM     23  C   UNL     1      43.670   5.679  11.098  0.00  0.00    +0.000 C 
BRANCH  23  24
ATOM     24  N   UNL     1      43.862   5.072   9.781  0.00  0.00    +0.000 NA
ATOM     25  H   UNL     1      44.662   5.482   9.306  0.00  0.00    +0.000 HD
BRANCH  24  26
ATOM     26  CA  UNL     1      43.958   3.601   9.820  0.00  0.00    +0.000 C 
BRANCH  26  27
ATOM     27  C   UNL     1      45.080   3.147   8.890  0.00  0.00    +0.000 A 
ATOM     28  C   UNL     1      45.435   1.791   8.851  0.00  0.00    +0.000 A 
ATOM     29  C   UNL     1      46.457   1.384   8.002  0.00  0.00    +0.000 A 
ATOM     30  N   UNL     1      47.140   2.214   7.191  0.00  0.00    +0.000 NA
ATOM     31  C   UNL     1      46.776   3.511   7.221  0.00  0.00    +0.000 A 
ATOM     32  C   UNL     1      45.768   4.015   8.033  0.00  0.00    +0.000 A 
ENDBRANCH  26  27
BRANCH  26  33
ATOM     33  C   UNL     1      44.043   2.994  11.253  0.00  0.00    +0.000 C 
BRANCH  33  34
ATOM     34  O   UNL     1      42.927   2.169  11.591  0.00  0.00    +0.000 OA
ATOM     35  H   UNL     1      42.556   1.826  10.762  0.00  0.00    +0.000 HD
ENDBRANCH  33  34
ENDBRANCH  26  33
ENDBRANCH  24  26
ENDBRANCH  23  24
ENDBRANCH   4  23
TORSDOF 9
ENDMDL
MODEL 3
REMARK VINA RESULT:    -7.694      1.870      2.179
REMARK INTER + INTRA:         -12.380
REMARK INTER:                 -10.931
REMARK INTRA:                  -1.449
REMARK UNBOUND:                -0.862
REMARK  Name = 
REMARK  9 active torsions:
REMARK  status: ('A' for Active; 'I' for Inactive)
REMARK    1  A    between atoms: C_2  and  C_22
REMARK    2  A    between atoms: N_3  and  C_4
REMARK    3  A    between atoms: C_4  and  C_5
REMARK    4  A    between atoms: C_8  and  C_9
REMARK    5  A    between atoms: C_9  and  N_10
REMARK    6  A    between atoms: N_10  and  CA_11
REMARK    7  A    between atoms: CA_11  and  C_12
REMARK    8  A    between atoms: CA_11  and  C_14
REMARK    9  A    between atoms: C_12  and  O_13
REMARK                            x       y       z     vdW  Elec       q    Type
REMARK                         _______ _______ _______ _____ _____    ______ ____
ROOT
ATOM      1  C   UNL     1      47.879   7.515  12.538  0.00  0.00    +0.000 A 
ATOM      2  C   UNL     1      47.651   6.137  12.644  0.00  0.00    +0.000 A 
ATOM      3  C   UNL     1      46.386   5.601  12.388  0.00  0.00    +0.000 A 
ATOM      4  C   UNL     1      45.317   6.435  12.034  0.00  0.00    +0.000 A 
ATOM      5  C   UNL     1      45.562   7.810  11.886  0.00  0.00    +0.000 A 
ATOM      6  C   UNL     1      46.828   8.345  12.134  0.00  0.00    +0.000 A 
ENDROOT
BRANCH   1   7
ATOM      7  C   UNL     1      49.245   8.082  12.824  0.00  0.00    +0.000 C 
BRANCH   7  10
ATOM      8  O   UNL     1      50.410   9.078  15.190  0.00  0.00    +0.000 OA
ATOM      9  C   UNL     1      50.432   7.869  14.976  0.00  0.00    +0.000 C 
ATOM     10  N   UNL     1      49.934   7.314  13.827  0.00  0.00    +0.000 N 
ATOM     11  H   UNL     1      49.821   6.309  13.770  0.00  0.00    +0.000 HD
BRANCH   9  12
ATOM     12  C   UNL     1      51.050   6.935  15.926  0.00  0.00    +0.000 A 
ATOM     13  C   UNL     1      52.415   7.007  16.175  0.00  0.00    +0.000 A 
ATOM     14  S   UNL     1      52.964   5.854  17.306  0.00  0.00    +0.000 S 
ATOM     15  C   UNL     1      51.391   5.245  17.532  0.00  0.00    +0.000 A 
ATOM     16  N   UNL     1      51.150   4.245  18.420  0.00  0.00    +0.000 NA
ATOM     17  C   UNL     1      49.908   3.907  18.520  0.00  0.00    +0.000 A 
ATOM     18  N   UNL     1      48.886   4.468  17.797  0.00  0.00    +0.000 N 
ATOM     19  C   UNL     1      49.095   5.422  16.831  0.00  0.00    +0.000 A 
ATOM     20  O   UNL     1      48.179   5.791  16.102  0.00  0.00    +0.000 OA
ATOM     21  C   UNL     1      50.465   5.882  16.722  0.00  0.00    +0.000 A 
ATOM     22  H   UNL     1      47.939   4.132  17.894  0.00  0.00    +0.000 HD
ENDBRANCH   9  12
ENDBRANCH   7  10
ENDBRANCH   1   7
BRANCH   4  23
ATOM     23  C   UNL     1      43.940   5.894  11.722  0.00  0.00    +0.000 C 
BRANCH  23  24
ATOM     24  N   UNL     1      43.798   5.402  10.352  0.00  0.00    +0.000 NA
ATOM     25  H   UNL     1      44.542   5.760   9.758  0.00  0.00    +0.000 HD
BRANCH  24  26
ATOM     26  CA  UNL     1      43.700   3.933  10.262  0.00  0.00    +0.000 C 
BRANCH  26  27
ATOM     27  C   UNL     1      44.753   3.419   9.282  0.00  0.00    +0.000 A 
ATOM     28  C   UNL     1      45.442   4.333   8.472  0.00  0.00    +0.000 A 
ATOM     29  C   UNL     1      46.399   3.859   7.583  0.00  0.00    +0.000 A 
ATOM     30  N   UNL     1      46.723   2.560   7.445  0.00  0.00    +0.000 NA
ATOM     31  C   UNL     1      46.068   1.693   8.242  0.00  0.00    +0.000 A 
ATOM     32  C   UNL     1      45.098   2.068   9.163  0.00  0.00    +0.000 A 
ENDBRANCH  26  27
BRANCH  26  33
ATOM     33  C   UNL     1      43.708   3.198  11.636  0.00  0.00    +0.000 C 
BRANCH  33  34
ATOM     34  O   UNL     1      42.896   2.022  11.658  0.00  0.00    +0.000 OA
ATOM     35  H   UNL     1      42.082   2.219  11.165  0.00  0.00    +0.000 HD
ENDBRANCH  33  34
ENDBRANCH  26  33
ENDBRANCH  24  26
ENDBRANCH  23  24
ENDBRANCH   4  23
TORSDOF 9
ENDMDL
MODEL 4
REMARK VINA RESULT:    -7.687      3.312      8.461
REMARK INTER + INTRA:         -12.369
REMARK INTER:                 -10.985
REMARK INTRA:                  -1.384
REMARK UNBOUND:                -0.862
REMARK  Name = 
REMARK  9 active torsions:
REMARK  status: ('A' for Active; 'I' for Inactive)
REMARK    1  A    between atoms: C_2  and  C_22
REMARK    2  A    between atoms: N_3  and  C_4
REMARK    3  A    between atoms: C_4  and  C_5
REMARK    4  A    between atoms: C_8  and  C_9
REMARK    5  A    between atoms: C_9  and  N_10
REMARK    6  A    between atoms: N_10  and  CA_11
REMARK    7  A    between atoms: CA_11  and  C_12
REMARK    8  A    between atoms: CA_11  and  C_14
REMARK    9  A    between atoms: C_12  and  O_13
REMARK                            x       y       z     vdW  Elec       q    Type
REMARK                         _______ _______ _______ _____ _____    ______ ____
ROOT
ATOM      1  C   UNL     1      48.386   7.938  13.684  0.00  0.00    +0.000 A 
ATOM      2  C   UNL     1      48.747   6.692  14.213  0.00  0.00    +0.000 A 
ATOM      3  C   UNL     1      48.957   6.532  15.586  0.00  0.00    +0.000 A 
ATOM      4  C   UNL     1      48.824   7.621  16.458  0.00  0.00    +0.000 A 
ATOM      5  C   UNL     1      48.418   8.857  15.928  0.00  0.00    +0.000 A 
ATOM      6  C   UNL     1      48.201   9.015  14.558  0.00  0.00    +0.000 A 
ENDROOT
BRANCH   1   7
ATOM      7  C   UNL     1      48.169   8.099  12.202  0.00  0.00    +0.000 C 
BRANCH   7  10
ATOM      8  O   UNL     1      45.395   7.931  11.733  0.00  0.00    +0.000 OA
ATOM      9  C   UNL     1      46.115   6.990  11.407  0.00  0.00    +0.000 C 
ATOM     10  N   UNL     1      47.463   6.975  11.648  0.00  0.00    +0.000 N 
ATOM     11  H   UNL     1      48.037   6.261  11.213  0.00  0.00    +0.000 HD
BRANCH   9  12
ATOM     12  C   UNL     1      45.560   5.785  10.778  0.00  0.00    +0.000 A 
ATOM     13  C   UNL     1      45.826   5.520   9.439  0.00  0.00    +0.000 A 
ATOM     14  S   UNL     1      45.109   4.080   8.873  0.00  0.00    +0.000 S 
ATOM     15  C   UNL     1      44.450   3.739  10.405  0.00  0.00    +0.000 A 
ATOM     16  N   UNL     1      43.735   2.605  10.622  0.00  0.00    +0.000 NA
ATOM     17  C   UNL     1      43.329   2.453  11.838  0.00  0.00    +0.000 A 
ATOM     18  N   UNL     1      43.558   3.345  12.855  0.00  0.00    +0.000 N 
ATOM     19  C   UNL     1      44.204   4.542  12.662  0.00  0.00    +0.000 A 
ATOM     20  O   UNL     1      44.258   5.380  13.558  0.00  0.00    +0.000 OA
ATOM     21  C   UNL     1      44.735   4.734  11.327  0.00  0.00    +0.000 A 
ATOM     22  H   UNL     1      43.179   3.187  13.776  0.00  0.00    +0.000 HD
ENDBRANCH   9  12
ENDBRANCH   7  10
ENDBRANCH   1   7
BRANCH   4  23
ATOM     23  C   UNL     1      49.015   7.487  17.951  0.00  0.00    +0.000 C 
BRANCH  23  24
ATOM     24  N   UNL     1      49.777   6.301  18.343  0.00  0.00    +0.000 NA
ATOM     25  H   UNL     1      50.499   6.541  19.017  0.00  0.00    +0.000 HD
BRANCH  24  26
ATOM     26  CA  UNL     1      48.933   5.196  18.833  0.00  0.00    +0.000 C 
BRANCH  26  27
ATOM     27  C   UNL     1      49.105   3.988  17.915  0.00  0.00    +0.000 A 
ATOM     28  C   UNL     1      50.356   3.360  17.833  0.00  0.00    +0.000 A 
ATOM     29  C   UNL     1      50.506   2.261  16.996  0.00  0.00    +0.000 A 
ATOM     30  N   UNL     1      49.515   1.741  16.248  0.00  0.00    +0.000 NA
ATOM     31  C   UNL     1      48.313   2.340  16.350  0.00  0.00    +0.000 A 
ATOM     32  C   UNL     1      48.061   3.442  17.159  0.00  0.00    +0.000 A 
ENDBRANCH  26  27
BRANCH  26  33
ATOM     33  C   UNL     1      49.109   4.866  20.347  0.00  0.00    +0.000 C 
BRANCH  33  34
ATOM     34  O   UNL     1      48.370   3.720  20.771  0.00  0.00    +0.000 OA
ATOM     35  H   UNL     1      47.513   4.033  21.105  0.00  0.00    +0.000 HD
ENDBRANCH  33  34
ENDBRANCH  26  33
ENDBRANCH  24  26
ENDBRANCH  23  24
ENDBRANCH   4  23
TORSDOF 9
ENDMDL
MODEL 5
REMARK VINA RESULT:    -7.585      1.482      2.169
REMARK INTER + INTRA:         -12.217
REMARK INTER:                 -11.436
REMARK INTRA:                  -0.781
REMARK UNBOUND:                -0.862
REMARK  Name = 
REMARK  9 active torsions:
REMARK  status: ('A' for Active; 'I' for Inactive)
REMARK    1  A    between atoms: C_2  and  C_22
REMARK    2  A    between atoms: N_3  and  C_4
REMARK    3  A    between atoms: C_4  and  C_5
REMARK    4  A    between atoms: C_8  and  C_9
REMARK    5  A    between atoms: C_9  and  N_10
REMARK    6  A    between atoms: N_10  and  CA_11
REMARK    7  A    between atoms: CA_11  and  C_12
REMARK    8  A    between atoms: CA_11  and  C_14
REMARK    9  A    between atoms: C_12  and  O_13
REMARK                            x       y       z     vdW  Elec       q    Type
REMARK                         _______ _______ _______ _____ _____    ______ ____
ROOT
ATOM      1  C   UNL     1      47.138   6.652  13.325  0.00  0.00    +0.000 A 
ATOM      2  C   UNL     1      46.404   5.519  13.699  0.00  0.00    +0.000 A 
ATOM      3  C   UNL     1      45.265   5.138  12.984  0.00  0.00    +0.000 A 
ATOM      4  C   UNL     1      44.828   5.892  11.886  0.00  0.00    +0.000 A 
ATOM      5  C   UNL     1      45.593   7.001  11.489  0.00  0.00    +0.000 A 
ATOM      6  C   UNL     1      46.735   7.377  12.198  0.00  0.00    +0.000 A 
ENDROOT
BRANCH   1   7
ATOM      7  C   UNL     1      48.360   7.057  14.108  0.00  0.00    +0.000 C 
BRANCH   7  10
ATOM      8  O   UNL     1      50.291   6.164  15.958  0.00  0.00    +0.000 OA
ATOM      9  C   UNL     1      49.173   6.474  16.362  0.00  0.00    +0.000 C 
ATOM     10  N   UNL     1      48.167   6.867  15.521  0.00  0.00    +0.000 N 
ATOM     11  H   UNL     1      47.323   7.272  15.911  0.00  0.00    +0.000 HD
BRANCH   9  12
ATOM     12  C   UNL     1      48.825   6.390  17.786  0.00  0.00    +0.000 A 
ATOM     13  C   UNL     1      49.059   5.212  18.486  0.00  0.00    +0.000 A 
ATOM     14  S   UNL     1      48.601   5.290  20.127  0.00  0.00    +0.000 S 
ATOM     15  C   UNL     1      48.111   6.912  19.971  0.00  0.00    +0.000 A 
ATOM     16  N   UNL     1      47.643   7.607  21.040  0.00  0.00    +0.000 NA
ATOM     17  C   UNL     1      47.344   8.838  20.789  0.00  0.00    +0.000 A 
ATOM     18  N   UNL     1      47.456   9.433  19.559  0.00  0.00    +0.000 N 
ATOM     19  C   UNL     1      47.847   8.747  18.434  0.00  0.00    +0.000 A 
ATOM     20  O   UNL     1      47.790   9.271  17.325  0.00  0.00    +0.000 OA
ATOM     21  C   UNL     1      48.252   7.376  18.673  0.00  0.00    +0.000 A 
ATOM     22  H   UNL     1      47.169  10.390  19.419  0.00  0.00    +0.000 HD
ENDBRANCH   9  12
ENDBRANCH   7  10
ENDBRANCH   1   7
BRANCH   4  23
ATOM     23  C   UNL     1      43.618   5.500  11.069  0.00  0.00    +0.000 C 
BRANCH  23  24
ATOM     24  N   UNL     1      43.949   4.943   9.757  0.00  0.00    +0.000 NA
ATOM     25  H   UNL     1      44.810   5.346   9.398  0.00  0.00    +0.000 HD
BRANCH  24  26
ATOM     26  CA  UNL     1      44.002   3.469   9.741  0.00  0.00    +0.000 C 
BRANCH  26  27
ATOM     27  C   UNL     1      45.128   3.017   8.815  0.00  0.00    +0.000 A 
ATOM     28  C   UNL     1      45.787   3.965   8.020  0.00  0.00    +0.000 A 
ATOM     29  C   UNL     1      46.811   3.548   7.180  0.00  0.00    +0.000 A 
ATOM     30  N   UNL     1      47.231   2.273   7.077  0.00  0.00    +0.000 NA
ATOM     31  C   UNL     1      46.605   1.373   7.861  0.00  0.00    +0.000 A 
ATOM     32  C   UNL     1      45.572   1.691   8.733  0.00  0.00    +0.000 A 
ENDBRANCH  26  27
BRANCH  26  33
ATOM     33  C   UNL     1      44.042   2.806  11.152  0.00  0.00    +0.000 C 
BRANCH  33  34
ATOM     34  O   UNL     1      42.881   2.028  11.450  0.00  0.00    +0.000 OA
ATOM     35  H   UNL     1      42.807   1.341  10.766  0.00  0.00    +0.000 HD
ENDBRANCH  33  34
ENDBRANCH  26  33
ENDBRANCH  24  26
ENDBRANCH  23  24
ENDBRANCH   4  23
TORSDOF 9
ENDMDL
MODEL 6
REMARK VINA RESULT:    -7.285      2.974      8.698
REMARK INTER + INTRA:         -11.768
REMARK INTER:                  -9.940
REMARK INTRA:                  -1.828
REMARK UNBOUND:                -0.862
REMARK  Name = 
REMARK  9 active torsions:
REMARK  status: ('A' for Active; 'I' for Inactive)
REMARK    1  A    between atoms: C_2  and  C_22
REMARK    2  A    between atoms: N_3  and  C_4
REMARK    3  A    between atoms: C_4  and  C_5
REMARK    4  A    between atoms: C_8  and  C_9
REMARK    5  A    between atoms: C_9  and  N_10
REMARK    6  A    between atoms: N_10  and  CA_11
REMARK    7  A    between atoms: CA_11  and  C_12
REMARK    8  A    between atoms: CA_11  and  C_14
REMARK    9  A    between atoms: C_12  and  O_13
REMARK                            x       y       z     vdW  Elec       q    Type
REMARK                         _______ _______ _______ _____ _____    ______ ____
ROOT
ATOM      1  C   UNL     1      48.250   7.948  13.334  0.00  0.00    +0.000 A 
ATOM      2  C   UNL     1      49.403   7.224  13.667  0.00  0.00    +0.000 A 
ATOM      3  C   UNL     1      49.964   7.322  14.944  0.00  0.00    +0.000 A 
ATOM      4  C   UNL     1      49.391   8.158  15.911  0.00  0.00    +0.000 A 
ATOM      5  C   UNL     1      48.211   8.847  15.586  0.00  0.00    +0.000 A 
ATOM      6  C   UNL     1      47.646   8.743  14.313  0.00  0.00    +0.000 A 
ENDROOT
BRANCH   1   7
ATOM      7  C   UNL     1      47.660   7.839  11.953  0.00  0.00    +0.000 C 
BRANCH   7  10
ATOM      8  O   UNL     1      44.858   7.534  12.032  0.00  0.00    +0.000 OA
ATOM      9  C   UNL     1      45.560   6.555  11.792  0.00  0.00    +0.000 C 
ATOM     10  N   UNL     1      46.929   6.612  11.788  0.00  0.00    +0.000 N 
ATOM     11  H   UNL     1      47.457   5.828  11.421  0.00  0.00    +0.000 HD
BRANCH   9  12
ATOM     12  C   UNL     1      44.970   5.234  11.545  0.00  0.00    +0.000 A 
ATOM     13  C   UNL     1      44.255   4.598  12.553  0.00  0.00    +0.000 A 
ATOM     14  S   UNL     1      43.635   3.077  12.095  0.00  0.00    +0.000 S 
ATOM     15  C   UNL     1      44.267   3.230  10.522  0.00  0.00    +0.000 A 
ATOM     16  N   UNL     1      44.057   2.267   9.587  0.00  0.00    +0.000 NA
ATOM     17  C   UNL     1      44.558   2.530   8.427  0.00  0.00    +0.000 A 
ATOM     18  N   UNL     1      45.266   3.665   8.121  0.00  0.00    +0.000 N 
ATOM     19  C   UNL     1      45.571   4.625   9.055  0.00  0.00    +0.000 A 
ATOM     20  O   UNL     1      46.333   5.549   8.783  0.00  0.00    +0.000 OA
ATOM     21  C   UNL     1      44.980   4.407  10.360  0.00  0.00    +0.000 A 
ATOM     22  H   UNL     1      45.665   3.793   7.203  0.00  0.00    +0.000 HD
ENDBRANCH   9  12
ENDBRANCH   7  10
ENDBRANCH   1   7
BRANCH   4  23
ATOM     23  C   UNL     1      49.948   8.273  17.312  0.00  0.00    +0.000 C 
BRANCH  23  24
ATOM     24  N   UNL     1      50.039   6.994  18.016  0.00  0.00    +0.000 NA
ATOM     25  H   UNL     1      50.546   7.097  18.891  0.00  0.00    +0.000 HD
BRANCH  24  26
ATOM     26  CA  UNL     1      48.731   6.346  18.228  0.00  0.00    +0.000 C 
BRANCH  26  27
ATOM     27  C   UNL     1      48.748   4.960  17.589  0.00  0.00    +0.000 A 
ATOM     28  C   UNL     1      47.806   4.647  16.599  0.00  0.00    +0.000 A 
ATOM     29  C   UNL     1      47.827   3.384  16.021  0.00  0.00    +0.000 A 
ATOM     30  N   UNL     1      48.710   2.421  16.344  0.00  0.00    +0.000 NA
ATOM     31  C   UNL     1      49.624   2.739  17.282  0.00  0.00    +0.000 A 
ATOM     32  C   UNL     1      49.686   3.973  17.917  0.00  0.00    +0.000 A 
ENDBRANCH  26  27
BRANCH  26  33
ATOM     33  C   UNL     1      48.236   6.352  19.707  0.00  0.00    +0.000 C 
BRANCH  33  34
ATOM     34  O   UNL     1      47.024   5.622  19.906  0.00  0.00    +0.000 OA
ATOM     35  H   UNL     1      46.950   4.977  19.183  0.00  0.00    +0.000 HD
ENDBRANCH  33  34
ENDBRANCH  26  33
ENDBRANCH  24  26
ENDBRANCH  23  24
ENDBRANCH   4  23
TORSDOF 9
ENDMDL
MODEL 7
REMARK VINA RESULT:    -7.056      3.497      8.123
REMARK INTER + INTRA:         -11.424
REMARK INTER:                  -9.786
REMARK INTRA:                  -1.638
REMARK UNBOUND:                -0.862
REMARK  Name = 
REMARK  9 active torsions:
REMARK  status: ('A' for Active; 'I' for Inactive)
REMARK    1  A    between atoms: C_2  and  C_22
REMARK    2  A    between atoms: N_3  and  C_4
REMARK    3  A    between atoms: C_4  and  C_5
REMARK    4  A    between atoms: C_8  and  C_9
REMARK    5  A    between atoms: C_9  and  N_10
REMARK    6  A    between atoms: N_10  and  CA_11
REMARK    7  A    between atoms: CA_11  and  C_12
REMARK    8  A    between atoms: CA_11  and  C_14
REMARK    9  A    between atoms: C_12  and  O_13
REMARK                            x       y       z     vdW  Elec       q    Type
REMARK                         _______ _______ _______ _____ _____    ______ ____
ROOT
ATOM      1  C   UNL     1      48.737   8.885  15.557  0.00  0.00    +0.000 A 
ATOM      2  C   UNL     1      49.766   7.953  15.370  0.00  0.00    +0.000 A 
ATOM      3  C   UNL     1      50.414   7.377  16.467  0.00  0.00    +0.000 A 
ATOM      4  C   UNL     1      50.056   7.732  17.774  0.00  0.00    +0.000 A 
ATOM      5  C   UNL     1      48.994   8.633  17.955  0.00  0.00    +0.000 A 
ATOM      6  C   UNL     1      48.341   9.203  16.861  0.00  0.00    +0.000 A 
ENDROOT
BRANCH   1   7
ATOM      7  C   UNL     1      48.050   9.505  14.368  0.00  0.00    +0.000 C 
BRANCH   7  10
ATOM      8  O   UNL     1      48.006   8.191  11.874  0.00  0.00    +0.000 OA
ATOM      9  C   UNL     1      47.078   8.017  12.658  0.00  0.00    +0.000 C 
ATOM     10  N   UNL     1      47.001   8.659  13.866  0.00  0.00    +0.000 N 
ATOM     11  H   UNL     1      46.312   8.358  14.545  0.00  0.00    +0.000 HD
BRANCH   9  12
ATOM     12  C   UNL     1      45.950   7.138  12.324  0.00  0.00    +0.000 A 
ATOM     13  C   UNL     1      44.854   7.652  11.639  0.00  0.00    +0.000 A 
ATOM     14  S   UNL     1      43.640   6.495  11.329  0.00  0.00    +0.000 S 
ATOM     15  C   UNL     1      44.551   5.259  12.063  0.00  0.00    +0.000 A 
ATOM     16  N   UNL     1      44.092   3.981  12.103  0.00  0.00    +0.000 NA
ATOM     17  C   UNL     1      44.901   3.139  12.654  0.00  0.00    +0.000 A 
ATOM     18  N   UNL     1      46.123   3.464  13.185  0.00  0.00    +0.000 N 
ATOM     19  C   UNL     1      46.591   4.754  13.239  0.00  0.00    +0.000 A 
ATOM     20  O   UNL     1      47.618   5.027  13.855  0.00  0.00    +0.000 OA
ATOM     21  C   UNL     1      45.748   5.731  12.579  0.00  0.00    +0.000 A 
ATOM     22  H   UNL     1      46.692   2.764  13.637  0.00  0.00    +0.000 HD
ENDBRANCH   9  12
ENDBRANCH   7  10
ENDBRANCH   1   7
BRANCH   4  23
ATOM     23  C   UNL     1      50.712   7.113  18.987  0.00  0.00    +0.000 C 
BRANCH  23  24
ATOM     24  N   UNL     1      50.694   5.650  18.984  0.00  0.00    +0.000 NA
ATOM     25  H   UNL     1      51.161   5.280  19.808  0.00  0.00    +0.000 HD
BRANCH  24  26
ATOM     26  CA  UNL     1      49.342   5.080  18.833  0.00  0.00    +0.000 C 
BRANCH  26  27
ATOM     27  C   UNL     1      49.409   3.871  17.902  0.00  0.00    +0.000 A 
ATOM     28  C   UNL     1      48.290   3.540  17.124  0.00  0.00    +0.000 A 
ATOM     29  C   UNL     1      48.358   2.440  16.279  0.00  0.00    +0.000 A 
ATOM     30  N   UNL     1      49.444   1.657  16.144  0.00  0.00    +0.000 NA
ATOM     31  C   UNL     1      50.520   1.997  16.881  0.00  0.00    +0.000 A 
ATOM     32  C   UNL     1      50.553   3.078  17.753  0.00  0.00    +0.000 A 
ENDBRANCH  26  27
BRANCH  26  33
ATOM     33  C   UNL     1      48.603   4.799  20.177  0.00  0.00    +0.000 C 
BRANCH  33  34
ATOM     34  O   UNL     1      48.436   3.408  20.457  0.00  0.00    +0.000 OA
ATOM     35  H   UNL     1      48.693   3.264  21.383  0.00  0.00    +0.000 HD
ENDBRANCH  33  34
ENDBRANCH  26  33
ENDBRANCH  24  26
ENDBRANCH  23  24
ENDBRANCH   4  23
TORSDOF 9
ENDMDL
MODEL 8
REMARK VINA RESULT:    -7.023      4.921      6.444
REMARK INTER + INTRA:         -11.374
REMARK INTER:                  -9.930
REMARK INTRA:                  -1.444
REMARK UNBOUND:                -0.862
REMARK  Name = 
REMARK  9 active torsions:
REMARK  status: ('A' for Active; 'I' for Inactive)
REMARK    1  A    between atoms: C_2  and  C_22
REMARK    2  A    between atoms: N_3  and  C_4
REMARK    3  A    between atoms: C_4  and  C_5
REMARK    4  A    between atoms: C_8  and  C_9
REMARK    5  A    between atoms: C_9  and  N_10
REMARK    6  A    between atoms: N_10  and  CA_11
REMARK    7  A    between atoms: CA_11  and  C_12
REMARK    8  A    between atoms: CA_11  and  C_14
REMARK    9  A    between atoms: C_12  and  O_13
REMARK                            x       y       z     vdW  Elec       q    Type
REMARK                         _______ _______ _______ _____ _____    ______ ____
ROOT
ATOM      1  C   UNL     1      47.518   8.458  12.481  0.00  0.00    +0.000 A 
ATOM      2  C   UNL     1      47.724   7.291  11.734  0.00  0.00    +0.000 A 
ATOM      3  C   UNL     1      46.660   6.432  11.445  0.00  0.00    +0.000 A 
ATOM      4  C   UNL     1      45.368   6.716  11.909  0.00  0.00    +0.000 A 
ATOM      5  C   UNL     1      45.160   7.910  12.619  0.00  0.00    +0.000 A 
ATOM      6  C   UNL     1      46.221   8.772  12.901  0.00  0.00    +0.000 A 
ENDROOT
BRANCH   1   7
ATOM      7  C   UNL     1      48.674   9.373  12.793  0.00  0.00    +0.000 C 
BRANCH   7  10
ATOM      8  O   UNL     1      51.081  10.838  12.722  0.00  0.00    +0.000 OA
ATOM      9  C   UNL     1      50.765  10.159  11.749  0.00  0.00    +0.000 C 
ATOM     10  N   UNL     1      49.588   9.461  11.686  0.00  0.00    +0.000 N 
ATOM     11  H   UNL     1      49.450   8.786  10.942  0.00  0.00    +0.000 HD
BRANCH   9  12
ATOM     12  C   UNL     1      51.616  10.094  10.553  0.00  0.00    +0.000 A 
ATOM     13  C   UNL     1      52.023  11.269   9.932  0.00  0.00    +0.000 A 
ATOM     14  S   UNL     1      53.008  11.011   8.564  0.00  0.00    +0.000 S 
ATOM     15  C   UNL     1      52.958   9.323   8.775  0.00  0.00    +0.000 A 
ATOM     16  N   UNL     1      53.641   8.494   7.945  0.00  0.00    +0.000 NA
ATOM     17  C   UNL     1      53.547   7.241   8.244  0.00  0.00    +0.000 A 
ATOM     18  N   UNL     1      52.815   6.742   9.291  0.00  0.00    +0.000 N 
ATOM     19  C   UNL     1      52.044   7.535  10.105  0.00  0.00    +0.000 A 
ATOM     20  O   UNL     1      51.286   7.039  10.933  0.00  0.00    +0.000 OA
ATOM     21  C   UNL     1      52.163   8.957   9.850  0.00  0.00    +0.000 A 
ATOM     22  H   UNL     1      52.751   5.747   9.448  0.00  0.00    +0.000 HD
ENDBRANCH   9  12
ENDBRANCH   7  10
ENDBRANCH   1   7
BRANCH   4  23
ATOM     23  C   UNL     1      44.185   5.829  11.595  0.00  0.00    +0.000 C 
BRANCH  23  24
ATOM     24  N   UNL     1      44.159   5.348  10.214  0.00  0.00    +0.000 NA
ATOM     25  H   UNL     1      44.967   5.684   9.698  0.00  0.00    +0.000 HD
BRANCH  24  26
ATOM     26  CA  UNL     1      44.023   3.883  10.104  0.00  0.00    +0.000 C 
BRANCH  26  27
ATOM     27  C   UNL     1      45.044   3.360   9.096  0.00  0.00    +0.000 A 
ATOM     28  C   UNL     1      45.719   4.266   8.266  0.00  0.00    +0.000 A 
ATOM     29  C   UNL     1      46.646   3.783   7.352  0.00  0.00    +0.000 A 
ATOM     30  N   UNL     1      46.955   2.481   7.206  0.00  0.00    +0.000 NA
ATOM     31  C   UNL     1      46.315   1.621   8.022  0.00  0.00    +0.000 A 
ATOM     32  C   UNL     1      45.374   2.005   8.969  0.00  0.00    +0.000 A 
ENDBRANCH  26  27
BRANCH  26  33
ATOM     33  C   UNL     1      44.038   3.126  11.466  0.00  0.00    +0.000 C 
BRANCH  33  34
ATOM     34  O   UNL     1      42.949   2.216  11.625  0.00  0.00    +0.000 OA
ATOM     35  H   UNL     1      43.246   1.347  11.308  0.00  0.00    +0.000 HD
ENDBRANCH  33  34
ENDBRANCH  26  33
ENDBRANCH  24  26
ENDBRANCH  23  24
ENDBRANCH   4  23
TORSDOF 9
ENDMDL
MODEL 9
REMARK VINA RESULT:    -7.018      3.500      8.684
REMARK INTER + INTRA:         -11.368
REMARK INTER:                  -9.394
REMARK INTRA:                  -1.974
REMARK UNBOUND:                -0.862
REMARK  Name = 
REMARK  9 active torsions:
REMARK  status: ('A' for Active; 'I' for Inactive)
REMARK    1  A    between atoms: C_2  and  C_22
REMARK    2  A    between atoms: N_3  and  C_4
REMARK    3  A    between atoms: C_4  and  C_5
REMARK    4  A    between atoms: C_8  and  C_9
REMARK    5  A    between atoms: C_9  and  N_10
REMARK    6  A    between atoms: N_10  and  CA_11
REMARK    7  A    between atoms: CA_11  and  C_12
REMARK    8  A    between atoms: CA_11  and  C_14
REMARK    9  A    between atoms: C_12  and  O_13
REMARK                            x       y       z     vdW  Elec       q    Type
REMARK                         _______ _______ _______ _____ _____    ______ ____
ROOT
ATOM      1  C   UNL     1      48.831   8.356  15.707  0.00  0.00    +0.000 A 
ATOM      2  C   UNL     1      49.977   7.570  15.885  0.00  0.00    +0.000 A 
ATOM      3  C   UNL     1      50.441   7.265  17.168  0.00  0.00    +0.000 A 
ATOM      4  C   UNL     1      49.775   7.752  18.301  0.00  0.00    +0.000 A 
ATOM      5  C   UNL     1      48.601   8.501  18.117  0.00  0.00    +0.000 A 
ATOM      6  C   UNL     1      48.133   8.799  16.836  0.00  0.00    +0.000 A 
ENDROOT
BRANCH   1   7
ATOM      7  C   UNL     1      48.345   8.684  14.319  0.00  0.00    +0.000 C 
BRANCH   7  10
ATOM      8  O   UNL     1      48.867   6.329  12.861  0.00  0.00    +0.000 OA
ATOM      9  C   UNL     1      47.713   6.580  13.198  0.00  0.00    +0.000 C 
ATOM     10  N   UNL     1      47.372   7.728  13.862  0.00  0.00    +0.000 N 
ATOM     11  H   UNL     1      46.446   7.811  14.266  0.00  0.00    +0.000 HD
BRANCH   9  12
ATOM     12  C   UNL     1      46.605   5.679  12.859  0.00  0.00    +0.000 A 
ATOM     13  C   UNL     1      46.695   4.327  13.169  0.00  0.00    +0.000 A 
ATOM     14  S   UNL     1      45.320   3.428  12.710  0.00  0.00    +0.000 S 
ATOM     15  C   UNL     1      44.539   4.820  12.118  0.00  0.00    +0.000 A 
ATOM     16  N   UNL     1      43.281   4.752  11.608  0.00  0.00    +0.000 NA
ATOM     17  C   UNL     1      42.795   5.888  11.232  0.00  0.00    +0.000 A 
ATOM     18  N   UNL     1      43.462   7.084  11.304  0.00  0.00    +0.000 N 
ATOM     19  C   UNL     1      44.762   7.186  11.734  0.00  0.00    +0.000 A 
ATOM     20  O   UNL     1      45.375   8.246  11.642  0.00  0.00    +0.000 OA
ATOM     21  C   UNL     1      45.334   5.949  12.227  0.00  0.00    +0.000 A 
ATOM     22  H   UNL     1      43.040   7.933  10.956  0.00  0.00    +0.000 HD
ENDBRANCH   9  12
ENDBRANCH   7  10
ENDBRANCH   1   7
BRANCH   4  23
ATOM     23  C   UNL     1      50.226   7.423  19.706  0.00  0.00    +0.000 C 
BRANCH  23  24
ATOM     24  N   UNL     1      50.248   5.990  19.998  0.00  0.00    +0.000 NA
ATOM     25  H   UNL     1      50.778   5.800  20.844  0.00  0.00    +0.000 HD
BRANCH  24  26
ATOM     26  CA  UNL     1      48.905   5.382  20.058  0.00  0.00    +0.000 C 
BRANCH  26  27
ATOM     27  C   UNL     1      48.662   4.574  18.785  0.00  0.00    +0.000 A 
ATOM     28  C   UNL     1      47.524   4.838  18.010  0.00  0.00    +0.000 A 
ATOM     29  C   UNL     1      47.310   4.099  16.853  0.00  0.00    +0.000 A 
ATOM     30  N   UNL     1      48.137   3.134  16.409  0.00  0.00    +0.000 NA
ATOM     31  C   UNL     1      49.238   2.904  17.151  0.00  0.00    +0.000 A 
ATOM     32  C   UNL     1      49.542   3.588  18.321  0.00  0.00    +0.000 A 
ENDBRANCH  26  27
BRANCH  26  33
ATOM     33  C   UNL     1      48.609   4.594  21.370  0.00  0.00    +0.000 C 
BRANCH  33  34
ATOM     34  O   UNL     1      47.315   4.860  21.915  0.00  0.00    +0.000 OA
ATOM     35  H   UNL     1      46.898   5.540  21.360  0.00  0.00    +0.000 HD
ENDBRANCH  33  34
ENDBRANCH  26  33
ENDBRANCH  24  26
ENDBRANCH  23  24
ENDBRANCH   4  23
TORSDOF 9
ENDMDL
