MODEL 1
REMARK VINA RESULT:    -8.467      0.000      0.000
REMARK INTER + INTRA:         -13.025
REMARK INTER:                 -11.932
REMARK INTRA:                  -1.092
REMARK UNBOUND:                -1.092
REMARK  Name = 
REMARK  8 active torsions:
REMARK  status: ('A' for Active; 'I' for Inactive)
REMARK    1  A    between atoms: C_1  and  C_2
REMARK    2  A    between atoms: C_2  and  N_3
REMARK    3  A    between atoms: C_2  and  C_11
REMARK    4  A    between atoms: N_3  and  C_4
REMARK    5  A    between atoms: C_4  and  C_5
REMARK    6  A    between atoms: C_14  and  C_15
REMARK    7  A    between atoms: C_15  and  N_16
REMARK    8  A    between atoms: C_17  and  C_19
REMARK                            x       y       z     vdW  Elec       q    Type
REMARK                         _______ _______ _______ _____ _____    ______ ____
ROOT
ATOM      1  C   UNL     1      45.478   4.600  12.014  0.00  0.00    +0.000 A 
ATOM      2  C   UNL     1      45.953   5.776  11.407  0.00  0.00    +0.000 A 
ATOM      3  C   UNL     1      46.903   6.580  12.039  0.00  0.00    +0.000 A 
ATOM      4  C   UNL     1      47.436   6.211  13.280  0.00  0.00    +0.000 A 
ATOM      5  C   UNL     1      46.971   5.039  13.889  0.00  0.00    +0.000 A 
ATOM      6  C   UNL     1      45.999   4.249  13.268  0.00  0.00    +0.000 A 
ENDROOT
BRANCH   1   8
ATOM      7  C   UNL     1      43.605   4.629  10.291  0.00  0.00    +0.000 C 
ATOM      8  C   UNL     1      44.371   3.803  11.337  0.00  0.00    +0.000 C 
BRANCH   8   9
ATOM      9  N   UNL     1      44.877   2.591  10.673  0.00  0.00    +0.000 NA
ATOM     10  H   UNL     1      44.573   1.771  11.193  0.00  0.00    +0.000 HD
BRANCH   9  11
ATOM     11  C   UNL     1      44.418   2.459   9.289  0.00  0.00    +0.000 C 
BRANCH  11  12
ATOM     12  C   UNL     1      45.577   2.437   8.323  0.00  0.00    +0.000 A 
ATOM     13  C   UNL     1      45.984   3.613   7.670  0.00  0.00    +0.000 A 
ATOM     14  C   UNL     1      47.068   3.598   6.795  0.00  0.00    +0.000 A 
ATOM     15  C   UNL     1      47.758   2.411   6.560  0.00  0.00    +0.000 A 
ATOM     16  C   UNL     1      47.365   1.236   7.200  0.00  0.00    +0.000 A 
ATOM     17  C   UNL     1      46.281   1.249   8.078  0.00  0.00    +0.000 A 
ENDBRANCH  11  12
ENDBRANCH   9  11
ENDBRANCH   8   9
ENDBRANCH   1   8
BRANCH   4  18
ATOM     18  C   UNL     1      48.474   7.071  13.951  0.00  0.00    +0.000 C 
BRANCH  18  19
ATOM     19  N   UNL     1      48.249   7.187  15.371  0.00  0.00    +0.000 N 
ATOM     20  C   UNL     1      49.138   6.712  16.300  0.00  0.00    +0.000 C 
ATOM     21  O   UNL     1      50.199   6.180  15.981  0.00  0.00    +0.000 OA
ATOM     22  H   UNL     1      47.340   7.521  15.668  0.00  0.00    +0.000 HD
BRANCH  20  23
ATOM     23  C   UNL     1      48.777   6.902  17.712  0.00  0.00    +0.000 A 
ATOM     24  C   UNL     1      48.513   8.182  18.182  0.00  0.00    +0.000 A 
ATOM     25  S   UNL     1      48.109   8.235  19.836  0.00  0.00    +0.000 S 
ATOM     26  C   UNL     1      48.310   6.553  19.994  0.00  0.00    +0.000 A 
ATOM     27  N   UNL     1      48.143   5.944  21.199  0.00  0.00    +0.000 NA
ATOM     28  C   UNL     1      48.363   4.670  21.187  0.00  0.00    +0.000 A 
ATOM     29  N   UNL     1      48.723   3.952  20.077  0.00  0.00    +0.000 N 
ATOM     30  C   UNL     1      48.854   4.518  18.830  0.00  0.00    +0.000 A 
ATOM     31  O   UNL     1      49.087   3.829  17.840  0.00  0.00    +0.000 OA
ATOM     32  C   UNL     1      48.654   5.955  18.796  0.00  0.00    +0.000 A 
ATOM     33  H   UNL     1      48.857   2.953  20.131  0.00  0.00    +0.000 HD
ENDBRANCH  20  23
ENDBRANCH  18  19
ENDBRANCH   4  18
TORSDOF 7
ENDMDL
MODEL 2
REMARK VINA RESULT:    -8.084      1.529      2.352
REMARK INTER + INTRA:         -12.484
REMARK INTER:                 -11.296
REMARK INTRA:                  -1.189
REMARK UNBOUND:                -1.092
REMARK  Name = 
REMARK  8 active torsions:
REMARK  status: ('A' for Active; 'I' for Inactive)
REMARK    1  A    between atoms: C_1  and  C_2
REMARK    2  A    between atoms: C_2  and  N_3
REMARK    3  A    between atoms: C_2  and  C_11
REMARK    4  A    between atoms: N_3  and  C_4
REMARK    5  A    between atoms: C_4  and  C_5
REMARK    6  A    between atoms: C_14  and  C_15
REMARK    7  A    between atoms: C_15  and  N_16
REMARK    8  A    between atoms: C_17  and  C_19
REMARK                            x       y       z     vdW  Elec       q    Type
REMARK                         _______ _______ _______ _____ _____    ______ ____
ROOT
ATOM      1  C   UNL     1      45.210   4.826  11.918  0.00  0.00    +0.000 A 
ATOM      2  C   UNL     1      45.737   6.057  11.487  0.00  0.00    +0.000 A 
ATOM      3  C   UNL     1      46.776   6.679  12.182  0.00  0.00    +0.000 A 
ATOM      4  C   UNL     1      47.346   6.070  13.306  0.00  0.00    +0.000 A 
ATOM      5  C   UNL     1      46.830   4.842  13.739  0.00  0.00    +0.000 A 
ATOM      6  C   UNL     1      45.771   4.233  13.059  0.00  0.00    +0.000 A 
ENDROOT
BRANCH   1   8
ATOM      7  C   UNL     1      42.781   5.147  11.230  0.00  0.00    +0.000 C 
ATOM      8  C   UNL     1      44.013   4.229  11.190  0.00  0.00    +0.000 C 
BRANCH   8   9
ATOM      9  N   UNL     1      44.306   3.929   9.779  0.00  0.00    +0.000 NA
ATOM     10  H   UNL     1      45.030   4.561   9.444  0.00  0.00    +0.000 HD
BRANCH   9  11
ATOM     11  C   UNL     1      44.758   2.553   9.567  0.00  0.00    +0.000 C 
BRANCH  11  12
ATOM     12  C   UNL     1      45.679   2.452   8.374  0.00  0.00    +0.000 A 
ATOM     13  C   UNL     1      45.887   3.563   7.539  0.00  0.00    +0.000 A 
ATOM     14  C   UNL     1      46.754   3.478   6.452  0.00  0.00    +0.000 A 
ATOM     15  C   UNL     1      47.422   2.286   6.184  0.00  0.00    +0.000 A 
ATOM     16  C   UNL     1      47.225   1.175   7.004  0.00  0.00    +0.000 A 
ATOM     17  C   UNL     1      46.358   1.258   8.095  0.00  0.00    +0.000 A 
ENDBRANCH  11  12
ENDBRANCH   9  11
ENDBRANCH   8   9
ENDBRANCH   1   8
BRANCH   4  18
ATOM     18  C   UNL     1      48.478   6.734  14.043  0.00  0.00    +0.000 C 
BRANCH  18  19
ATOM     19  N   UNL     1      48.171   6.946  15.436  0.00  0.00    +0.000 N 
ATOM     20  C   UNL     1      48.908   6.387  16.447  0.00  0.00    +0.000 C 
ATOM     21  O   UNL     1      49.896   5.689  16.231  0.00  0.00    +0.000 OA
ATOM     22  H   UNL     1      47.304   7.425  15.649  0.00  0.00    +0.000 HD
BRANCH  20  23
ATOM     23  C   UNL     1      48.478   6.692  17.819  0.00  0.00    +0.000 A 
ATOM     24  C   UNL     1      48.384   5.665  18.749  0.00  0.00    +0.000 A 
ATOM     25  S   UNL     1      47.874   6.180  20.291  0.00  0.00    +0.000 S 
ATOM     26  C   UNL     1      47.723   7.791  19.762  0.00  0.00    +0.000 A 
ATOM     27  N   UNL     1      47.283   8.761  20.608  0.00  0.00    +0.000 NA
ATOM     28  C   UNL     1      47.179   9.931  20.067  0.00  0.00    +0.000 A 
ATOM     29  N   UNL     1      47.486  10.217  18.763  0.00  0.00    +0.000 N 
ATOM     30  C   UNL     1      47.982   9.278  17.888  0.00  0.00    +0.000 A 
ATOM     31  O   UNL     1      48.335   9.591  16.753  0.00  0.00    +0.000 OA
ATOM     32  C   UNL     1      48.082   7.938  18.434  0.00  0.00    +0.000 A 
ATOM     33  H   UNL     1      47.405  11.159  18.410  0.00  0.00    +0.000 HD
ENDBRANCH  20  23
ENDBRANCH  18  19
ENDBRANCH   4  18
TORSDOF 7
ENDMDL
MODEL 3
REMARK VINA RESULT:    -7.970      2.456      3.161
REMARK INTER + INTRA:         -12.324
REMARK INTER:                 -11.287
REMARK INTRA:                  -1.037
REMARK UNBOUND:                -1.092
REMARK  Name = 
REMARK  8 active torsions:
REMARK  status: ('A' for Active; 'I' for Inactive)
REMARK    1  A    between atoms: C_1  and  C_2
REMARK    2  A    between atoms: C_2  and  N_3
REMARK    3  A    between atoms: C_2  and  C_11
REMARK    4  A    between atoms: N_3  and  C_4
REMARK    5  A    between atoms: C_4  and  C_5
REMARK    6  A    between atoms: C_14  and  C_15
REMARK    7  A    between atoms: C_15  and  N_16
REMARK    8  A    between atoms: C_17  and  C_19
REMARK                            x       y       z     vdW  Elec       q    Type
REMARK                         _______ _______ _______ _____ _____    ______ ____
ROOT
ATOM      1  C   UNL     1      45.964   4.654  12.659  0.00  0.00    +0.000 A 
ATOM      2  C   UNL     1      46.436   4.185  13.897  0.00  0.00    +0.000 A 
ATOM      3  C   UNL     1      47.315   4.947  14.669  0.00  0.00    +0.000 A 
ATOM      4  C   UNL     1      47.717   6.218  14.242  0.00  0.00    +0.000 A 
ATOM      5  C   UNL     1      47.249   6.694  13.012  0.00  0.00    +0.000 A 
ATOM      6  C   UNL     1      46.390   5.918  12.227  0.00  0.00    +0.000 A 
ENDROOT
BRANCH   1   8
ATOM      7  C   UNL     1      43.716   3.479  12.447  0.00  0.00    +0.000 C 
ATOM      8  C   UNL     1      45.085   3.751  11.803  0.00  0.00    +0.000 C 
BRANCH   8   9
ATOM      9  N   UNL     1      44.849   4.306  10.460  0.00  0.00    +0.000 NA
ATOM     10  H   UNL     1      45.719   4.692  10.099  0.00  0.00    +0.000 HD
BRANCH   9  11
ATOM     11  C   UNL     1      44.352   3.313   9.507  0.00  0.00    +0.000 C 
BRANCH  11  12
ATOM     12  C   UNL     1      45.436   2.871   8.554  0.00  0.00    +0.000 A 
ATOM     13  C   UNL     1      45.839   1.526   8.507  0.00  0.00    +0.000 A 
ATOM     14  C   UNL     1      46.824   1.113   7.613  0.00  0.00    +0.000 A 
ATOM     15  C   UNL     1      47.418   2.035   6.755  0.00  0.00    +0.000 A 
ATOM     16  C   UNL     1      47.029   3.373   6.790  0.00  0.00    +0.000 A 
ATOM     17  C   UNL     1      46.041   3.789   7.684  0.00  0.00    +0.000 A 
ENDBRANCH  11  12
ENDBRANCH   9  11
ENDBRANCH   8   9
ENDBRANCH   1   8
BRANCH   4  18
ATOM     18  C   UNL     1      48.652   7.046  15.085  0.00  0.00    +0.000 C 
BRANCH  18  19
ATOM     19  N   UNL     1      49.700   6.251  15.676  0.00  0.00    +0.000 N 
ATOM     20  C   UNL     1      49.683   5.869  16.992  0.00  0.00    +0.000 C 
ATOM     21  O   UNL     1      48.758   6.158  17.748  0.00  0.00    +0.000 OA
ATOM     22  H   UNL     1      50.527   6.087  15.114  0.00  0.00    +0.000 HD
BRANCH  20  23
ATOM     23  C   UNL     1      50.819   5.059  17.456  0.00  0.00    +0.000 A 
ATOM     24  C   UNL     1      51.943   5.692  17.969  0.00  0.00    +0.000 A 
ATOM     25  S   UNL     1      53.169   4.617  18.463  0.00  0.00    +0.000 S 
ATOM     26  C   UNL     1      52.257   3.266  17.972  0.00  0.00    +0.000 A 
ATOM     27  N   UNL     1      52.761   2.008  18.092  0.00  0.00    +0.000 NA
ATOM     28  C   UNL     1      51.980   1.079  17.646  0.00  0.00    +0.000 A 
ATOM     29  N   UNL     1      50.740   1.295  17.105  0.00  0.00    +0.000 N 
ATOM     30  C   UNL     1      50.172   2.544  17.013  0.00  0.00    +0.000 A 
ATOM     31  O   UNL     1      49.021   2.691  16.608  0.00  0.00    +0.000 OA
ATOM     32  C   UNL     1      51.023   3.629  17.464  0.00  0.00    +0.000 A 
ATOM     33  H   UNL     1      50.171   0.521  16.798  0.00  0.00    +0.000 HD
ENDBRANCH  20  23
ENDBRANCH  18  19
ENDBRANCH   4  18
TORSDOF 7
ENDMDL
MODEL 4
REMARK VINA RESULT:    -7.395      3.388      8.974
REMARK INTER + INTRA:         -11.513
REMARK INTER:                  -9.636
REMARK INTRA:                  -1.877
REMARK UNBOUND:                -1.092
REMARK  Name = 
REMARK  8 active torsions:
REMARK  status: ('A' for Active; 'I' for Inactive)
REMARK    1  A    between atoms: C_1  and  C_2
REMARK    2  A    between atoms: C_2  and  N_3
REMARK    3  A    between atoms: C_2  and  C_11
REMARK    4  A    between atoms: N_3  and  C_4
REMARK    5  A    between atoms: C_4  and  C_5
REMARK    6  A    between atoms: C_14  and  C_15
REMARK    7  A    between atoms: C_15  and  N_16
REMARK    8  A    between atoms: C_17  and  C_19
REMARK                            x       y       z     vdW  Elec       q    Type
REMARK                         _______ _______ _______ _____ _____    ______ ____
ROOT
ATOM      1  C   UNL     1      49.181   8.268  16.015  0.00  0.00    +0.000 A 
ATOM      2  C   UNL     1      49.691   7.254  15.186  0.00  0.00    +0.000 A 
ATOM      3  C   UNL     1      49.234   7.095  13.876  0.00  0.00    +0.000 A 
ATOM      4  C   UNL     1      48.282   7.972  13.344  0.00  0.00    +0.000 A 
ATOM      5  C   UNL     1      47.771   8.988  14.161  0.00  0.00    +0.000 A 
ATOM      6  C   UNL     1      48.209   9.128  15.482  0.00  0.00    +0.000 A 
ENDROOT
BRANCH   1   8
ATOM      7  C   UNL     1      48.477   8.660  18.429  0.00  0.00    +0.000 C 
ATOM      8  C   UNL     1      49.633   8.346  17.467  0.00  0.00    +0.000 C 
BRANCH   8   9
ATOM      9  N   UNL     1      50.275   7.102  17.922  0.00  0.00    +0.000 NA
ATOM     10  H   UNL     1      51.099   7.332  18.473  0.00  0.00    +0.000 HD
BRANCH   9  11
ATOM     11  C   UNL     1      49.392   6.264  18.735  0.00  0.00    +0.000 C 
BRANCH  11  12
ATOM     12  C   UNL     1      49.029   4.986  18.017  0.00  0.00    +0.000 A 
ATOM     13  C   UNL     1      49.952   3.931  17.930  0.00  0.00    +0.000 A 
ATOM     14  C   UNL     1      49.611   2.743  17.287  0.00  0.00    +0.000 A 
ATOM     15  C   UNL     1      48.346   2.594  16.723  0.00  0.00    +0.000 A 
ATOM     16  C   UNL     1      47.419   3.633  16.802  0.00  0.00    +0.000 A 
ATOM     17  C   UNL     1      47.759   4.823  17.447  0.00  0.00    +0.000 A 
ENDBRANCH  11  12
ENDBRANCH   9  11
ENDBRANCH   8   9
ENDBRANCH   1   8
BRANCH   4  18
ATOM     18  C   UNL     1      47.804   7.810  11.925  0.00  0.00    +0.000 C 
BRANCH  18  19
ATOM     19  N   UNL     1      47.021   6.611  11.747  0.00  0.00    +0.000 N 
ATOM     20  C   UNL     1      45.652   6.612  11.788  0.00  0.00    +0.000 C 
ATOM     21  O   UNL     1      45.000   7.640  11.953  0.00  0.00    +0.000 OA
ATOM     22  H   UNL     1      47.525   5.733  11.718  0.00  0.00    +0.000 HD
BRANCH  20  23
ATOM     23  C   UNL     1      44.989   5.315  11.589  0.00  0.00    +0.000 A 
ATOM     24  C   UNL     1      44.274   4.747  12.635  0.00  0.00    +0.000 A 
ATOM     25  S   UNL     1      43.565   3.247  12.247  0.00  0.00    +0.000 S 
ATOM     26  C   UNL     1      44.220   3.284  10.677  0.00  0.00    +0.000 A 
ATOM     27  N   UNL     1      44.014   2.252   9.815  0.00  0.00    +0.000 NA
ATOM     28  C   UNL     1      44.599   2.391   8.670  0.00  0.00    +0.000 A 
ATOM     29  N   UNL     1      45.359   3.472   8.308  0.00  0.00    +0.000 N 
ATOM     30  C   UNL     1      45.552   4.559   9.130  0.00  0.00    +0.000 A 
ATOM     31  O   UNL     1      46.162   5.551   8.739  0.00  0.00    +0.000 OA
ATOM     32  C   UNL     1      44.947   4.437  10.443  0.00  0.00    +0.000 A 
ATOM     33  H   UNL     1      45.770   3.528   7.389  0.00  0.00    +0.000 HD
ENDBRANCH  20  23
ENDBRANCH  18  19
ENDBRANCH   4  18
TORSDOF 7
ENDMDL
MODEL 5
REMARK VINA RESULT:    -7.376      4.532      6.396
REMARK INTER + INTRA:         -11.486
REMARK INTER:                 -10.057
REMARK INTRA:                  -1.429
REMARK UNBOUND:                -1.092
REMARK  Name = 
REMARK  8 active torsions:
REMARK  status: ('A' for Active; 'I' for Inactive)
REMARK    1  A    between atoms: C_1  and  C_2
REMARK    2  A    between atoms: C_2  and  N_3
REMARK    3  A    between atoms: C_2  and  C_11
REMARK    4  A    between atoms: N_3  and  C_4
REMARK    5  A    between atoms: C_4  and  C_5
REMARK    6  A    between atoms: C_14  and  C_15
REMARK    7  A    between atoms: C_15  and  N_16
REMARK    8  A    between atoms: C_17  and  C_19
REMARK                            x       y       z     vdW  Elec       q    Type
REMARK                         _______ _______ _______ _____ _____    ______ ____
ROOT
ATOM      1  C   UNL     1      45.369   4.432  11.787  0.00  0.00    +0.000 A 
ATOM      2  C   UNL     1      45.418   5.509  10.885  0.00  0.00    +0.000 A 
ATOM      3  C   UNL     1      45.968   6.737  11.257  0.00  0.00    +0.000 A 
ATOM      4  C   UNL     1      46.521   6.911  12.532  0.00  0.00    +0.000 A 
ATOM      5  C   UNL     1      46.480   5.842  13.435  0.00  0.00    +0.000 A 
ATOM      6  C   UNL     1      45.904   4.621  13.069  0.00  0.00    +0.000 A 
ENDROOT
BRANCH   1   8
ATOM      7  C   UNL     1      43.449   2.827  12.247  0.00  0.00    +0.000 C 
ATOM      8  C   UNL     1      44.674   3.142  11.374  0.00  0.00    +0.000 C 
BRANCH   8   9
ATOM      9  N   UNL     1      44.232   3.166   9.969  0.00  0.00    +0.000 NA
ATOM     10  H   UNL     1      44.672   3.951   9.493  0.00  0.00    +0.000 HD
BRANCH   9  11
ATOM     11  C   UNL     1      44.559   1.939   9.242  0.00  0.00    +0.000 C 
BRANCH  11  12
ATOM     12  C   UNL     1      45.690   2.161   8.266  0.00  0.00    +0.000 A 
ATOM     13  C   UNL     1      46.531   1.098   7.897  0.00  0.00    +0.000 A 
ATOM     14  C   UNL     1      47.561   1.296   6.980  0.00  0.00    +0.000 A 
ATOM     15  C   UNL     1      47.765   2.555   6.422  0.00  0.00    +0.000 A 
ATOM     16  C   UNL     1      46.939   3.620   6.780  0.00  0.00    +0.000 A 
ATOM     17  C   UNL     1      45.905   3.424   7.697  0.00  0.00    +0.000 A 
ENDBRANCH  11  12
ENDBRANCH   9  11
ENDBRANCH   8   9
ENDBRANCH   1   8
BRANCH   4  18
ATOM     18  C   UNL     1      47.130   8.231  12.926  0.00  0.00    +0.000 C 
BRANCH  18  19
ATOM     19  N   UNL     1      48.274   8.567  12.114  0.00  0.00    +0.000 N 
ATOM     20  C   UNL     1      49.533   8.099  12.384  0.00  0.00    +0.000 C 
ATOM     21  O   UNL     1      49.764   7.339  13.322  0.00  0.00    +0.000 OA
ATOM     22  H   UNL     1      48.141   9.275  11.401  0.00  0.00    +0.000 HD
BRANCH  20  23
ATOM     23  C   UNL     1      50.602   8.524  11.470  0.00  0.00    +0.000 A 
ATOM     24  C   UNL     1      51.367   7.564  10.821  0.00  0.00    +0.000 A 
ATOM     25  S   UNL     1      52.562   8.215   9.796  0.00  0.00    +0.000 S 
ATOM     26  C   UNL     1      52.126   9.807  10.212  0.00  0.00    +0.000 A 
ATOM     27  N   UNL     1      52.800  10.869   9.694  0.00  0.00    +0.000 NA
ATOM     28  C   UNL     1      52.391  12.018  10.121  0.00  0.00    +0.000 A 
ATOM     29  N   UNL     1      51.363  12.200  11.009  0.00  0.00    +0.000 N 
ATOM     30  C   UNL     1      50.622  11.158  11.518  0.00  0.00    +0.000 A 
ATOM     31  O   UNL     1      49.649  11.363  12.239  0.00  0.00    +0.000 OA
ATOM     32  C   UNL     1      51.066   9.841  11.099  0.00  0.00    +0.000 A 
ATOM     33  H   UNL     1      51.078  13.127  11.285  0.00  0.00    +0.000 HD
ENDBRANCH  20  23
ENDBRANCH  18  19
ENDBRANCH   4  18
TORSDOF 7
ENDMDL
MODEL 6
REMARK VINA RESULT:    -7.117      1.509      2.112
REMARK INTER + INTRA:         -11.121
REMARK INTER:                 -10.260
REMARK INTRA:                  -0.861
REMARK UNBOUND:                -1.092
REMARK  Name = 
REMARK  8 active torsions:
REMARK  status: ('A' for Active; 'I' for Inactive)
REMARK    1  A    between atoms: C_1  and  C_2
REMARK    2  A    between atoms: C_2  and  N_3
REMARK    3  A    between atoms: C_2  and  C_11
REMARK    4  A    between atoms: N_3  and  C_4
REMARK    5  A    between atoms: C_4  and  C_5
REMARK    6  A    between atoms: C_14  and  C_15
REMARK    7  A    between atoms: C_15  and  N_16
REMARK    8  A    between atoms: C_17  and  C_19
REMARK                            x       y       z     vdW  Elec       q    Type
REMARK                         _______ _______ _______ _____ _____    ______ ____
ROOT
ATOM      1  C   UNL     1      45.097   4.858  12.081  0.00  0.00    +0.000 A 
ATOM      2  C   UNL     1      45.731   4.303  13.207  0.00  0.00    +0.000 A 
ATOM      3  C   UNL     1      46.794   4.958  13.832  0.00  0.00    +0.000 A 
ATOM      4  C   UNL     1      47.229   6.207  13.372  0.00  0.00    +0.000 A 
ATOM      5  C   UNL     1      46.601   6.768  12.254  0.00  0.00    +0.000 A 
ATOM      6  C   UNL     1      45.554   6.098  11.612  0.00  0.00    +0.000 A 
ENDROOT
BRANCH   1   8
ATOM      7  C   UNL     1      42.932   4.971  10.749  0.00  0.00    +0.000 C 
ATOM      8  C   UNL     1      44.008   4.066  11.371  0.00  0.00    +0.000 C 
BRANCH   8   9
ATOM      9  N   UNL     1      44.544   3.204  10.305  0.00  0.00    +0.000 NA
ATOM     10  H   UNL     1      43.848   2.505  10.057  0.00  0.00    +0.000 HD
BRANCH   9  11
ATOM     11  C   UNL     1      44.910   3.944   9.096  0.00  0.00    +0.000 C 
BRANCH  11  12
ATOM     12  C   UNL     1      45.735   3.096   8.158  0.00  0.00    +0.000 A 
ATOM     13  C   UNL     1      46.019   1.756   8.473  0.00  0.00    +0.000 A 
ATOM     14  C   UNL     1      46.761   0.966   7.598  0.00  0.00    +0.000 A 
ATOM     15  C   UNL     1      47.229   1.502   6.401  0.00  0.00    +0.000 A 
ATOM     16  C   UNL     1      46.955   2.830   6.075  0.00  0.00    +0.000 A 
ATOM     17  C   UNL     1      46.210   3.623   6.950  0.00  0.00    +0.000 A 
ENDBRANCH  11  12
ENDBRANCH   9  11
ENDBRANCH   8   9
ENDBRANCH   1   8
BRANCH   4  18
ATOM     18  C   UNL     1      48.364   6.920  14.059  0.00  0.00    +0.000 C 
BRANCH  18  19
ATOM     19  N   UNL     1      48.804   6.228  15.245  0.00  0.00    +0.000 N 
ATOM     20  C   UNL     1      49.163   6.885  16.392  0.00  0.00    +0.000 C 
ATOM     21  O   UNL     1      49.106   8.108  16.494  0.00  0.00    +0.000 OA
ATOM     22  H   UNL     1      48.966   5.231  15.163  0.00  0.00    +0.000 HD
BRANCH  20  23
ATOM     23  C   UNL     1      49.589   6.048  17.523  0.00  0.00    +0.000 A 
ATOM     24  C   UNL     1      50.764   5.314  17.423  0.00  0.00    +0.000 A 
ATOM     25  S   UNL     1      51.121   4.397  18.814  0.00  0.00    +0.000 S 
ATOM     26  C   UNL     1      49.697   4.918  19.587  0.00  0.00    +0.000 A 
ATOM     27  N   UNL     1      49.375   4.464  20.829  0.00  0.00    +0.000 NA
ATOM     28  C   UNL     1      48.249   4.909  21.283  0.00  0.00    +0.000 A 
ATOM     29  N   UNL     1      47.425   5.775  20.612  0.00  0.00    +0.000 N 
ATOM     30  C   UNL     1      47.736   6.298  19.378  0.00  0.00    +0.000 A 
ATOM     31  O   UNL     1      47.019   7.143  18.847  0.00  0.00    +0.000 OA
ATOM     32  C   UNL     1      48.973   5.800  18.806  0.00  0.00    +0.000 A 
ATOM     33  H   UNL     1      46.570   6.102  21.035  0.00  0.00    +0.000 HD
ENDBRANCH  20  23
ENDBRANCH  18  19
ENDBRANCH   4  18
TORSDOF 7
ENDMDL
MODEL 7
REMARK VINA RESULT:    -7.024      1.884      2.406
REMARK INTER + INTRA:         -10.991
REMARK INTER:                  -9.649
REMARK INTRA:                  -1.342
REMARK UNBOUND:                -1.092
REMARK  Name = 
REMARK  8 active torsions:
REMARK  status: ('A' for Active; 'I' for Inactive)
REMARK    1  A    between atoms: C_1  and  C_2
REMARK    2  A    between atoms: C_2  and  N_3
REMARK    3  A    between atoms: C_2  and  C_11
REMARK    4  A    between atoms: N_3  and  C_4
REMARK    5  A    between atoms: C_4  and  C_5
REMARK    6  A    between atoms: C_14  and  C_15
REMARK    7  A    between atoms: C_15  and  N_16
REMARK    8  A    between atoms: C_17  and  C_19
REMARK                            x       y       z     vdW  Elec       q    Type
REMARK                         _______ _______ _______ _____ _____    ______ ____
ROOT
ATOM      1  C   UNL     1      45.438   6.390  12.495  0.00  0.00    +0.000 A 
ATOM      2  C   UNL     1      45.281   7.773  12.693  0.00  0.00    +0.000 A 
ATOM      3  C   UNL     1      46.353   8.569  13.101  0.00  0.00    +0.000 A 
ATOM      4  C   UNL     1      47.623   8.011  13.285  0.00  0.00    +0.000 A 
ATOM      5  C   UNL     1      47.789   6.635  13.087  0.00  0.00    +0.000 A 
ATOM      6  C   UNL     1      46.709   5.834  12.705  0.00  0.00    +0.000 A 
ENDROOT
BRANCH   1   8
ATOM      7  C   UNL     1      43.204   6.299  11.279  0.00  0.00    +0.000 C 
ATOM      8  C   UNL     1      44.222   5.541  12.146  0.00  0.00    +0.000 C 
BRANCH   8   9
ATOM      9  N   UNL     1      44.586   4.304  11.437  0.00  0.00    +0.000 NA
ATOM     10  H   UNL     1      44.247   3.502  11.964  0.00  0.00    +0.000 HD
BRANCH   9  11
ATOM     11  C   UNL     1      44.037   4.234  10.082  0.00  0.00    +0.000 C 
BRANCH  11  12
ATOM     12  C   UNL     1      45.001   3.569   9.129  0.00  0.00    +0.000 A 
ATOM     13  C   UNL     1      45.176   2.175   9.151  0.00  0.00    +0.000 A 
ATOM     14  C   UNL     1      46.048   1.557   8.257  0.00  0.00    +0.000 A 
ATOM     15  C   UNL     1      46.756   2.321   7.333  0.00  0.00    +0.000 A 
ATOM     16  C   UNL     1      46.594   3.706   7.300  0.00  0.00    +0.000 A 
ATOM     17  C   UNL     1      45.719   4.327   8.194  0.00  0.00    +0.000 A 
ENDBRANCH  11  12
ENDBRANCH   9  11
ENDBRANCH   8   9
ENDBRANCH   1   8
BRANCH   4  18
ATOM     18  C   UNL     1      48.782   8.875  13.708  0.00  0.00    +0.000 C 
BRANCH  18  19
ATOM     19  N   UNL     1      49.436   8.369  14.890  0.00  0.00    +0.000 N 
ATOM     20  C   UNL     1      49.002   8.662  16.156  0.00  0.00    +0.000 C 
ATOM     21  O   UNL     1      48.009   9.354  16.366  0.00  0.00    +0.000 OA
ATOM     22  H   UNL     1      50.317   7.886  14.757  0.00  0.00    +0.000 HD
BRANCH  20  23
ATOM     23  C   UNL     1      49.767   8.073  17.265  0.00  0.00    +0.000 A 
ATOM     24  C   UNL     1      50.386   8.909  18.185  0.00  0.00    +0.000 A 
ATOM     25  S   UNL     1      51.231   8.075  19.408  0.00  0.00    +0.000 S 
ATOM     26  C   UNL     1      50.832   6.567  18.730  0.00  0.00    +0.000 A 
ATOM     27  N   UNL     1      51.286   5.413  19.289  0.00  0.00    +0.000 NA
ATOM     28  C   UNL     1      50.941   4.341  18.652  0.00  0.00    +0.000 A 
ATOM     29  N   UNL     1      50.175   4.322  17.516  0.00  0.00    +0.000 N 
ATOM     30  C   UNL     1      49.653   5.461  16.947  0.00  0.00    +0.000 A 
ATOM     31  O   UNL     1      48.894   5.399  15.982  0.00  0.00    +0.000 OA
ATOM     32  C   UNL     1      50.043   6.695  17.601  0.00  0.00    +0.000 A 
ATOM     33  H   UNL     1      49.922   3.448  17.081  0.00  0.00    +0.000 HD
ENDBRANCH  20  23
ENDBRANCH  18  19
ENDBRANCH   4  18
TORSDOF 7
ENDMDL
MODEL 8
REMARK VINA RESULT:    -6.776      1.945      3.086
REMARK INTER + INTRA:         -10.641
REMARK INTER:                  -9.593
REMARK INTRA:                  -1.047
REMARK UNBOUND:                -1.092
REMARK  Name = 
REMARK  8 active torsions:
REMARK  status: ('A' for Active; 'I' for Inactive)
REMARK    1  A    between atoms: C_1  and  C_2
REMARK    2  A    between atoms: C_2  and  N_3
REMARK    3  A    between atoms: C_2  and  C_11
REMARK    4  A    between atoms: N_3  and  C_4
REMARK    5  A    between atoms: C_4  and  C_5
REMARK    6  A    between atoms: C_14  and  C_15
REMARK    7  A    between atoms: C_15  and  N_16
REMARK    8  A    between atoms: C_17  and  C_19
REMARK                            x       y       z     vdW  Elec       q    Type
REMARK                         _______ _______ _______ _____ _____    ______ ____
ROOT
ATOM      1  C   UNL     1      46.104   7.412  12.492  0.00  0.00    +0.000 A 
ATOM      2  C   UNL     1      46.465   8.484  13.328  0.00  0.00    +0.000 A 
ATOM      3  C   UNL     1      47.632   8.439  14.093  0.00  0.00    +0.000 A 
ATOM      4  C   UNL     1      48.493   7.338  14.015  0.00  0.00    +0.000 A 
ATOM      5  C   UNL     1      48.143   6.269  13.182  0.00  0.00    +0.000 A 
ATOM      6  C   UNL     1      46.960   6.302  12.437  0.00  0.00    +0.000 A 
ENDROOT
BRANCH   1   8
ATOM      7  C   UNL     1      44.387   8.882  11.322  0.00  0.00    +0.000 C 
ATOM      8  C   UNL     1      44.775   7.458  11.750  0.00  0.00    +0.000 C 
BRANCH   8   9
ATOM      9  N   UNL     1      44.774   6.609  10.547  0.00  0.00    +0.000 NA
ATOM     10  H   UNL     1      45.730   6.487  10.221  0.00  0.00    +0.000 HD
BRANCH   9  11
ATOM     11  C   UNL     1      44.190   5.287  10.777  0.00  0.00    +0.000 C 
BRANCH  11  12
ATOM     12  C   UNL     1      44.762   4.259   9.831  0.00  0.00    +0.000 A 
ATOM     13  C   UNL     1      44.452   2.897   9.985  0.00  0.00    +0.000 A 
ATOM     14  C   UNL     1      44.962   1.950   9.099  0.00  0.00    +0.000 A 
ATOM     15  C   UNL     1      45.787   2.350   8.051  0.00  0.00    +0.000 A 
ATOM     16  C   UNL     1      46.103   3.697   7.885  0.00  0.00    +0.000 A 
ATOM     17  C   UNL     1      45.592   4.648   8.770  0.00  0.00    +0.000 A 
ENDBRANCH  11  12
ENDBRANCH   9  11
ENDBRANCH   8   9
ENDBRANCH   1   8
BRANCH   4  18
ATOM     18  C   UNL     1      49.760   7.301  14.827  0.00  0.00    +0.000 C 
BRANCH  18  19
ATOM     19  N   UNL     1      49.497   7.256  16.244  0.00  0.00    +0.000 N 
ATOM     20  C   UNL     1      49.056   6.124  16.877  0.00  0.00    +0.000 C 
ATOM     21  O   UNL     1      48.881   5.064  16.281  0.00  0.00    +0.000 OA
ATOM     22  H   UNL     1      49.526   8.136  16.746  0.00  0.00    +0.000 HD
BRANCH  20  23
ATOM     23  C   UNL     1      48.832   6.226  18.326  0.00  0.00    +0.000 A 
ATOM     24  C   UNL     1      49.172   5.159  19.147  0.00  0.00    +0.000 A 
ATOM     25  S   UNL     1      48.852   5.433  20.798  0.00  0.00    +0.000 S 
ATOM     26  C   UNL     1      48.210   6.975  20.472  0.00  0.00    +0.000 A 
ATOM     27  N   UNL     1      47.712   7.746  21.476  0.00  0.00    +0.000 NA
ATOM     28  C   UNL     1      47.222   8.877  21.086  0.00  0.00    +0.000 A 
ATOM     29  N   UNL     1      47.196   9.308  19.785  0.00  0.00    +0.000 N 
ATOM     30  C   UNL     1      47.734   8.584  18.746  0.00  0.00    +0.000 A 
ATOM     31  O   UNL     1      47.777   9.042  17.607  0.00  0.00    +0.000 OA
ATOM     32  C   UNL     1      48.264   7.288  19.126  0.00  0.00    +0.000 A 
ATOM     33  H   UNL     1      46.819  10.214  19.551  0.00  0.00    +0.000 HD
ENDBRANCH  20  23
ENDBRANCH  18  19
ENDBRANCH   4  18
TORSDOF 7
ENDMDL
MODEL 9
REMARK VINA RESULT:    -6.658      3.441     10.191
REMARK INTER + INTRA:         -10.475
REMARK INTER:                  -9.101
REMARK INTRA:                  -1.374
REMARK UNBOUND:                -1.092
REMARK  Name = 
REMARK  8 active torsions:
REMARK  status: ('A' for Active; 'I' for Inactive)
REMARK    1  A    between atoms: C_1  and  C_2
REMARK    2  A    between atoms: C_2  and  N_3
REMARK    3  A    between atoms: C_2  and  C_11
REMARK    4  A    between atoms: N_3  and  C_4
REMARK    5  A    between atoms: C_4  and  C_5
REMARK    6  A    between atoms: C_14  and  C_15
REMARK    7  A    between atoms: C_15  and  N_16
REMARK    8  A    between atoms: C_17  and  C_19
REMARK                            x       y       z     vdW  Elec       q    Type
REMARK                         _______ _______ _______ _____ _____    ______ ____
ROOT
ATOM      1  C   UNL     1      47.739   6.467  19.959  0.00  0.00    +0.000 A 
ATOM      2  C   UNL     1      48.608   7.398  19.363  0.00  0.00    +0.000 A 
ATOM      3  C   UNL     1      48.991   7.274  18.027  0.00  0.00    +0.000 A 
ATOM      4  C   UNL     1      48.484   6.237  17.235  0.00  0.00    +0.000 A 
ATOM      5  C   UNL     1      47.615   5.308  17.819  0.00  0.00    +0.000 A 
ATOM      6  C   UNL     1      47.254   5.417  19.166  0.00  0.00    +0.000 A 
ENDROOT
BRANCH   1   8
ATOM      7  C   UNL     1      47.948   5.386  22.253  0.00  0.00    +0.000 C 
ATOM      8  C   UNL     1      47.423   6.583  21.444  0.00  0.00    +0.000 C 
BRANCH   8   9
ATOM      9  N   UNL     1      47.976   7.809  22.042  0.00  0.00    +0.000 NA
ATOM     10  H   UNL     1      48.685   8.195  21.423  0.00  0.00    +0.000 HD
BRANCH   9  11
ATOM     11  C   UNL     1      46.963   8.838  22.285  0.00  0.00    +0.000 C 
BRANCH  11  12
ATOM     12  C   UNL     1      47.151  10.024  21.371  0.00  0.00    +0.000 A 
ATOM     13  C   UNL     1      46.093  10.479  20.566  0.00  0.00    +0.000 A 
ATOM     14  C   UNL     1      46.259  11.588  19.739  0.00  0.00    +0.000 A 
ATOM     15  C   UNL     1      47.481  12.255  19.703  0.00  0.00    +0.000 A 
ATOM     16  C   UNL     1      48.540  11.815  20.496  0.00  0.00    +0.000 A 
ATOM     17  C   UNL     1      48.376  10.705  21.327  0.00  0.00    +0.000 A 
ENDBRANCH  11  12
ENDBRANCH   9  11
ENDBRANCH   8   9
ENDBRANCH   1   8
BRANCH   4  18
ATOM     18  C   UNL     1      48.885   6.115  15.788  0.00  0.00    +0.000 C 
BRANCH  18  19
ATOM     19  N   UNL     1      47.743   6.032  14.912  0.00  0.00    +0.000 N 
ATOM     20  C   UNL     1      47.845   6.172  13.552  0.00  0.00    +0.000 C 
ATOM     21  O   UNL     1      48.922   6.350  12.989  0.00  0.00    +0.000 OA
ATOM     22  H   UNL     1      46.829   5.995  15.348  0.00  0.00    +0.000 HD
BRANCH  20  23
ATOM     23  C   UNL     1      46.595   6.063  12.786  0.00  0.00    +0.000 A 
ATOM     24  C   UNL     1      46.053   7.199  12.201  0.00  0.00    +0.000 A 
ATOM     25  S   UNL     1      44.607   6.908  11.347  0.00  0.00    +0.000 S 
ATOM     26  C   UNL     1      44.633   5.257  11.762  0.00  0.00    +0.000 A 
ATOM     27  N   UNL     1      43.632   4.426  11.363  0.00  0.00    +0.000 NA
ATOM     28  C   UNL     1      43.756   3.208  11.778  0.00  0.00    +0.000 A 
ATOM     29  N   UNL     1      44.795   2.746  12.544  0.00  0.00    +0.000 N 
ATOM     30  C   UNL     1      45.852   3.539  12.926  0.00  0.00    +0.000 A 
ATOM     31  O   UNL     1      46.812   3.071  13.532  0.00  0.00    +0.000 OA
ATOM     32  C   UNL     1      45.743   4.927  12.518  0.00  0.00    +0.000 A 
ATOM     33  H   UNL     1      44.843   1.776  12.814  0.00  0.00    +0.000 HD
ENDBRANCH  20  23
ENDBRANCH  18  19
ENDBRANCH   4  18
TORSDOF 7
ENDMDL
