MODEL 1
REMARK VINA RESULT:    -8.291      0.000      0.000
REMARK INTER + INTRA:         -11.285
REMARK INTER:                 -10.714
REMARK INTRA:                  -0.571
REMARK UNBOUND:                -0.571
REMARK  Name = 
REMARK  6 active torsions:
REMARK  status: ('A' for Active; 'I' for Inactive)
REMARK    1  A    between atoms: C_1  and  C_2
REMARK    2  A    between atoms: C_7  and  C_8
REMARK    3  A    between atoms: N_10  and  C_11
REMARK    4  A    between atoms: C_11  and  C_12
REMARK    5  A    between atoms: C_15  and  C_16
REMARK    6  A    between atoms: C_16  and  N_17
REMARK                            x       y       z     vdW  Elec       q    Type
REMARK                         _______ _______ _______ _____ _____    ______ ____
ROOT
ATOM      1  C   UNL     1      46.211   4.511  13.968  0.00  0.00    +0.000 C 
ATOM      2  O   UNL     1      46.294   3.320  13.679  0.00  0.00    +0.000 OA
ATOM      3  N   UNL     1      45.130   5.265  13.586  0.00  0.00    +0.000 N 
ATOM      4  H   UNL     1      45.031   6.219  13.921  0.00  0.00    +0.000 HD
ENDROOT
BRANCH   1  11
ATOM      5  C   UNL     1      49.498   5.412  19.916  0.00  0.00    +0.000 C 
ATOM      6  C   UNL     1      48.934   5.352  18.527  0.00  0.00    +0.000 A 
ATOM      7  N   UNL     1      49.357   6.141  17.592  0.00  0.00    +0.000 NA
ATOM      8  C   UNL     1      48.746   5.978  16.386  0.00  0.00    +0.000 A 
ATOM      9  S   UNL     1      49.171   6.951  15.058  0.00  0.00    +0.000 S 
ATOM     10  C   UNL     1      48.014   6.191  14.063  0.00  0.00    +0.000 A 
ATOM     11  C   UNL     1      47.286   5.197  14.704  0.00  0.00    +0.000 A 
ATOM     12  C   UNL     1      47.754   5.066  16.067  0.00  0.00    +0.000 A 
ATOM     13  C   UNL     1      47.346   4.172  17.135  0.00  0.00    +0.000 A 
ATOM     14  O   UNL     1      46.540   3.255  17.006  0.00  0.00    +0.000 OA
ATOM     15  N   UNL     1      47.953   4.406  18.346  0.00  0.00    +0.000 N 
ATOM     16  H   UNL     1      47.685   3.789  19.098  0.00  0.00    +0.000 HD
ENDBRANCH   1  11
BRANCH   3  17
ATOM     17  C   UNL     1      44.038   4.744  12.802  0.00  0.00    +0.000 C 
BRANCH  17  18
ATOM     18  C   UNL     1      44.473   4.381  11.409  0.00  0.00    +0.000 A 
ATOM     19  C   UNL     1      45.171   5.301  10.615  0.00  0.00    +0.000 A 
ATOM     20  C   UNL     1      45.539   4.977   9.305  0.00  0.00    +0.000 A 
ATOM     21  C   UNL     1      45.210   3.731   8.754  0.00  0.00    +0.000 A 
ATOM     22  C   UNL     1      44.519   2.809   9.554  0.00  0.00    +0.000 A 
ATOM     23  C   UNL     1      44.147   3.135  10.864  0.00  0.00    +0.000 A 
BRANCH  21  24
ATOM     24  C   UNL     1      45.464   3.441   7.291  0.00  0.00    +0.000 C 
BRANCH  24  25
ATOM     25  N   UNL     1      46.813   3.107   6.849  0.00  0.00    +0.000 NA
ATOM     26  C   UNL     1      47.105   3.203   5.418  0.00  0.00    +0.000 C 
ATOM     27  C   UNL     1      47.073   1.874   4.639  0.00  0.00    +0.000 C 
ATOM     28  O   UNL     1      47.763   0.815   5.315  0.00  0.00    +0.000 OA
ATOM     29  C   UNL     1      47.257   0.645   6.643  0.00  0.00    +0.000 C 
ATOM     30  C   UNL     1      47.432   1.930   7.457  0.00  0.00    +0.000 C 
ENDBRANCH  24  25
ENDBRANCH  21  24
ENDBRANCH  17  18
ENDBRANCH   3  17
TORSDOF 5
ENDMDL
MODEL 2
REMARK VINA RESULT:    -7.761      2.061      3.152
REMARK INTER + INTRA:         -10.600
REMARK INTER:                  -9.690
REMARK INTRA:                  -0.910
REMARK UNBOUND:                -0.571
REMARK  Name = 
REMARK  6 active torsions:
REMARK  status: ('A' for Active; 'I' for Inactive)
REMARK    1  A    between atoms: C_1  and  C_2
REMARK    2  A    between atoms: C_7  and  C_8
REMARK    3  A    between atoms: N_10  and  C_11
REMARK    4  A    between atoms: C_11  and  C_12
REMARK    5  A    between atoms: C_15  and  C_16
REMARK    6  A    between atoms: C_16  and  N_17
REMARK                            x       y       z     vdW  Elec       q    Type
REMARK                         _______ _______ _______ _____ _____    ______ ____
ROOT
ATOM      1  C   UNL     1      46.631   5.002  13.997  0.00  0.00    +0.000 C 
ATOM      2  O   UNL     1      46.647   3.774  13.989  0.00  0.00    +0.000 OA
ATOM      3  N   UNL     1      45.581   5.707  13.466  0.00  0.00    +0.000 N 
ATOM      4  H   UNL     1      45.539   6.716  13.574  0.00  0.00    +0.000 HD
ENDROOT
BRANCH   1  11
ATOM      5  C   UNL     1      51.700   9.462  12.810  0.00  0.00    +0.000 C 
ATOM      6  C   UNL     1      50.651   8.501  13.286  0.00  0.00    +0.000 A 
ATOM      7  N   UNL     1      50.648   8.052  14.500  0.00  0.00    +0.000 NA
ATOM      8  C   UNL     1      49.641   7.181  14.784  0.00  0.00    +0.000 A 
ATOM      9  S   UNL     1      49.507   6.483  16.329  0.00  0.00    +0.000 S 
ATOM     10  C   UNL     1      48.140   5.578  15.860  0.00  0.00    +0.000 A 
ATOM     11  C   UNL     1      47.758   5.777  14.540  0.00  0.00    +0.000 A 
ATOM     12  C   UNL     1      48.639   6.750  13.930  0.00  0.00    +0.000 A 
ATOM     13  C   UNL     1      48.658   7.317  12.594  0.00  0.00    +0.000 A 
ATOM     14  O   UNL     1      47.804   7.108  11.737  0.00  0.00    +0.000 OA
ATOM     15  N   UNL     1      49.719   8.152  12.338  0.00  0.00    +0.000 N 
ATOM     16  H   UNL     1      49.744   8.559  11.414  0.00  0.00    +0.000 HD
ENDBRANCH   1  11
BRANCH   3  17
ATOM     17  C   UNL     1      44.444   5.081  12.839  0.00  0.00    +0.000 C 
BRANCH  17  18
ATOM     18  C   UNL     1      44.768   4.589  11.455  0.00  0.00    +0.000 A 
ATOM     19  C   UNL     1      45.315   5.454  10.498  0.00  0.00    +0.000 A 
ATOM     20  C   UNL     1      45.579   5.006   9.199  0.00  0.00    +0.000 A 
ATOM     21  C   UNL     1      45.294   3.687   8.824  0.00  0.00    +0.000 A 
ATOM     22  C   UNL     1      44.755   2.820   9.786  0.00  0.00    +0.000 A 
ATOM     23  C   UNL     1      44.487   3.270  11.085  0.00  0.00    +0.000 A 
BRANCH  21  24
ATOM     24  C   UNL     1      45.427   3.247   7.382  0.00  0.00    +0.000 C 
BRANCH  24  25
ATOM     25  N   UNL     1      46.750   2.961   6.839  0.00  0.00    +0.000 NA
ATOM     26  C   UNL     1      46.955   3.165   5.404  0.00  0.00    +0.000 C 
ATOM     27  C   UNL     1      46.886   1.897   4.532  0.00  0.00    +0.000 C 
ATOM     28  O   UNL     1      47.621   0.798   5.086  0.00  0.00    +0.000 OA
ATOM     29  C   UNL     1      47.196   0.525   6.425  0.00  0.00    +0.000 C 
ATOM     30  C   UNL     1      47.411   1.749   7.320  0.00  0.00    +0.000 C 
ENDBRANCH  24  25
ENDBRANCH  21  24
ENDBRANCH  17  18
ENDBRANCH   3  17
TORSDOF 5
ENDMDL
MODEL 3
REMARK VINA RESULT:    -6.848      3.484      5.243
REMARK INTER + INTRA:          -9.421
REMARK INTER:                  -8.822
REMARK INTRA:                  -0.598
REMARK UNBOUND:                -0.571
REMARK  Name = 
REMARK  6 active torsions:
REMARK  status: ('A' for Active; 'I' for Inactive)
REMARK    1  A    between atoms: C_1  and  C_2
REMARK    2  A    between atoms: C_7  and  C_8
REMARK    3  A    between atoms: N_10  and  C_11
REMARK    4  A    between atoms: C_11  and  C_12
REMARK    5  A    between atoms: C_15  and  C_16
REMARK    6  A    between atoms: C_16  and  N_17
REMARK                            x       y       z     vdW  Elec       q    Type
REMARK                         _______ _______ _______ _____ _____    ______ ____
ROOT
ATOM      1  C   UNL     1      45.658   6.727  12.944  0.00  0.00    +0.000 C 
ATOM      2  O   UNL     1      46.359   5.726  13.070  0.00  0.00    +0.000 OA
ATOM      3  N   UNL     1      44.291   6.638  12.879  0.00  0.00    +0.000 N 
ATOM      4  H   UNL     1      43.726   7.482  12.878  0.00  0.00    +0.000 HD
ENDROOT
BRANCH   1  11
ATOM      5  C   UNL     1      45.439  12.904   9.980  0.00  0.00    +0.000 C 
ATOM      6  C   UNL     1      45.656  11.635  10.750  0.00  0.00    +0.000 A 
ATOM      7  N   UNL     1      46.687  11.480  11.518  0.00  0.00    +0.000 NA
ATOM      8  C   UNL     1      46.756  10.274  12.146  0.00  0.00    +0.000 A 
ATOM      9  S   UNL     1      48.059   9.903  13.173  0.00  0.00    +0.000 S 
ATOM     10  C   UNL     1      47.444   8.342  13.477  0.00  0.00    +0.000 A 
ATOM     11  C   UNL     1      46.255   8.066  12.814  0.00  0.00    +0.000 A 
ATOM     12  C   UNL     1      45.849   9.231  12.057  0.00  0.00    +0.000 A 
ATOM     13  C   UNL     1      44.687   9.470  11.222  0.00  0.00    +0.000 A 
ATOM     14  O   UNL     1      43.749   8.688  11.093  0.00  0.00    +0.000 OA
ATOM     15  N   UNL     1      44.685  10.680  10.570  0.00  0.00    +0.000 N 
ATOM     16  H   UNL     1      43.881  10.864   9.989  0.00  0.00    +0.000 HD
ENDBRANCH   1  11
BRANCH   3  17
ATOM     17  C   UNL     1      43.576   5.388  12.922  0.00  0.00    +0.000 C 
BRANCH  17  18
ATOM     18  C   UNL     1      43.870   4.533  11.719  0.00  0.00    +0.000 A 
ATOM     19  C   UNL     1      44.205   3.181  11.867  0.00  0.00    +0.000 A 
ATOM     20  C   UNL     1      44.518   2.398  10.751  0.00  0.00    +0.000 A 
ATOM     21  C   UNL     1      44.512   2.950   9.463  0.00  0.00    +0.000 A 
ATOM     22  C   UNL     1      44.166   4.301   9.316  0.00  0.00    +0.000 A 
ATOM     23  C   UNL     1      43.858   5.086  10.434  0.00  0.00    +0.000 A 
BRANCH  21  24
ATOM     24  C   UNL     1      45.005   2.149   8.277  0.00  0.00    +0.000 C 
BRANCH  24  25
ATOM     25  N   UNL     1      46.405   2.243   7.879  0.00  0.00    +0.000 NA
ATOM     26  C   UNL     1      46.787   3.338   6.986  0.00  0.00    +0.000 C 
ATOM     27  C   UNL     1      46.920   2.970   5.496  0.00  0.00    +0.000 C 
ATOM     28  O   UNL     1      47.647   1.752   5.285  0.00  0.00    +0.000 OA
ATOM     29  C   UNL     1      47.064   0.678   6.030  0.00  0.00    +0.000 C 
ATOM     30  C   UNL     1      47.075   0.992   7.529  0.00  0.00    +0.000 C 
ENDBRANCH  24  25
ENDBRANCH  21  24
ENDBRANCH  17  18
ENDBRANCH   3  17
TORSDOF 5
ENDMDL
MODEL 4
REMARK VINA RESULT:    -6.737      4.632      9.650
REMARK INTER + INTRA:          -9.277
REMARK INTER:                  -8.324
REMARK INTRA:                  -0.953
REMARK UNBOUND:                -0.571
REMARK  Name = 
REMARK  6 active torsions:
REMARK  status: ('A' for Active; 'I' for Inactive)
REMARK    1  A    between atoms: C_1  and  C_2
REMARK    2  A    between atoms: C_7  and  C_8
REMARK    3  A    between atoms: N_10  and  C_11
REMARK    4  A    between atoms: C_11  and  C_12
REMARK    5  A    between atoms: C_15  and  C_16
REMARK    6  A    between atoms: C_16  and  N_17
REMARK                            x       y       z     vdW  Elec       q    Type
REMARK                         _______ _______ _______ _____ _____    ______ ____
ROOT
ATOM      1  C   UNL     1      46.957   4.119  14.607  0.00  0.00    +0.000 C 
ATOM      2  O   UNL     1      47.319   3.033  14.164  0.00  0.00    +0.000 OA
ATOM      3  N   UNL     1      47.012   4.398  15.950  0.00  0.00    +0.000 N 
ATOM      4  H   UNL     1      46.805   5.335  16.283  0.00  0.00    +0.000 HD
ENDROOT
BRANCH   1  11
ATOM      5  C   UNL     1      47.638  10.392  11.928  0.00  0.00    +0.000 C 
ATOM      6  C   UNL     1      47.309   9.001  12.381  0.00  0.00    +0.000 A 
ATOM      7  N   UNL     1      46.197   8.428  12.048  0.00  0.00    +0.000 NA
ATOM      8  C   UNL     1      46.033   7.169  12.540  0.00  0.00    +0.000 A 
ATOM      9  S   UNL     1      44.617   6.287  12.214  0.00  0.00    +0.000 S 
ATOM     10  C   UNL     1      45.160   4.967  13.147  0.00  0.00    +0.000 A 
ATOM     11  C   UNL     1      46.408   5.161  13.724  0.00  0.00    +0.000 A 
ATOM     12  C   UNL     1      46.921   6.456  13.329  0.00  0.00    +0.000 A 
ATOM     13  C   UNL     1      48.172   7.122  13.636  0.00  0.00    +0.000 A 
ATOM     14  O   UNL     1      49.101   6.608  14.253  0.00  0.00    +0.000 OA
ATOM     15  N   UNL     1      48.273   8.407  13.161  0.00  0.00    +0.000 N 
ATOM     16  H   UNL     1      49.140   8.883  13.361  0.00  0.00    +0.000 HD
ENDBRANCH   1  11
BRANCH   3  17
ATOM     17  C   UNL     1      47.460   3.449  16.937  0.00  0.00    +0.000 C 
BRANCH  17  18
ATOM     18  C   UNL     1      48.929   3.595  17.228  0.00  0.00    +0.000 A 
ATOM     19  C   UNL     1      49.503   4.862  17.392  0.00  0.00    +0.000 A 
ATOM     20  C   UNL     1      50.876   4.999  17.622  0.00  0.00    +0.000 A 
ATOM     21  C   UNL     1      51.708   3.873  17.685  0.00  0.00    +0.000 A 
ATOM     22  C   UNL     1      51.130   2.605  17.530  0.00  0.00    +0.000 A 
ATOM     23  C   UNL     1      49.756   2.469  17.295  0.00  0.00    +0.000 A 
BRANCH  21  24
ATOM     24  C   UNL     1      53.211   4.027  17.772  0.00  0.00    +0.000 C 
BRANCH  24  25
ATOM     25  N   UNL     1      53.827   4.342  19.056  0.00  0.00    +0.000 NA
ATOM     26  C   UNL     1      53.249   3.733  20.256  0.00  0.00    +0.000 C 
ATOM     27  C   UNL     1      52.300   4.632  21.071  0.00  0.00    +0.000 C 
ATOM     28  O   UNL     1      52.816   5.955  21.267  0.00  0.00    +0.000 OA
ATOM     29  C   UNL     1      53.149   6.561  20.014  0.00  0.00    +0.000 C 
ATOM     30  C   UNL     1      54.209   5.735  19.279  0.00  0.00    +0.000 C 
ENDBRANCH  24  25
ENDBRANCH  21  24
ENDBRANCH  17  18
ENDBRANCH   3  17
TORSDOF 5
ENDMDL
MODEL 5
REMARK VINA RESULT:    -6.512      3.773      5.335
REMARK INTER + INTRA:          -8.986
REMARK INTER:                  -8.103
REMARK INTRA:                  -0.883
REMARK UNBOUND:                -0.571
REMARK  Name = 
REMARK  6 active torsions:
REMARK  status: ('A' for Active; 'I' for Inactive)
REMARK    1  A    between atoms: C_1  and  C_2
REMARK    2  A    between atoms: C_7  and  C_8
REMARK    3  A    between atoms: N_10  and  C_11
REMARK    4  A    between atoms: C_11  and  C_12
REMARK    5  A    between atoms: C_15  and  C_16
REMARK    6  A    between atoms: C_16  and  N_17
REMARK                            x       y       z     vdW  Elec       q    Type
REMARK                         _______ _______ _______ _____ _____    ______ ____
ROOT
ATOM      1  C   UNL     1      48.377   9.531  16.127  0.00  0.00    +0.000 C 
ATOM      2  O   UNL     1      49.091  10.493  15.855  0.00  0.00    +0.000 OA
ATOM      3  N   UNL     1      47.690   8.853  15.152  0.00  0.00    +0.000 N 
ATOM      4  H   UNL     1      47.188   8.001  15.382  0.00  0.00    +0.000 HD
ENDROOT
BRANCH   1  11
ATOM      5  C   UNL     1      48.566   4.359  20.622  0.00  0.00    +0.000 C 
ATOM      6  C   UNL     1      48.480   5.621  19.816  0.00  0.00    +0.000 A 
ATOM      7  N   UNL     1      48.049   6.726  20.335  0.00  0.00    +0.000 NA
ATOM      8  C   UNL     1      48.019   7.786  19.481  0.00  0.00    +0.000 A 
ATOM      9  S   UNL     1      47.458   9.304  20.000  0.00  0.00    +0.000 S 
ATOM     10  C   UNL     1      47.694   9.980  18.453  0.00  0.00    +0.000 A 
ATOM     11  C   UNL     1      48.193   9.084  17.517  0.00  0.00    +0.000 A 
ATOM     12  C   UNL     1      48.407   7.801  18.151  0.00  0.00    +0.000 A 
ATOM     13  C   UNL     1      48.927   6.551  17.628  0.00  0.00    +0.000 A 
ATOM     14  O   UNL     1      49.387   6.407  16.499  0.00  0.00    +0.000 OA
ATOM     15  N   UNL     1      48.892   5.498  18.510  0.00  0.00    +0.000 N 
ATOM     16  H   UNL     1      49.255   4.623  18.163  0.00  0.00    +0.000 HD
ENDBRANCH   1  11
BRANCH   3  17
ATOM     17  C   UNL     1      47.720   9.223  13.759  0.00  0.00    +0.000 C 
BRANCH  17  18
ATOM     18  C   UNL     1      46.875   8.306  12.917  0.00  0.00    +0.000 A 
ATOM     19  C   UNL     1      47.315   7.013  12.606  0.00  0.00    +0.000 A 
ATOM     20  C   UNL     1      46.547   6.175  11.790  0.00  0.00    +0.000 A 
ATOM     21  C   UNL     1      45.327   6.614  11.258  0.00  0.00    +0.000 A 
ATOM     22  C   UNL     1      44.884   7.905  11.579  0.00  0.00    +0.000 A 
ATOM     23  C   UNL     1      45.655   8.745  12.392  0.00  0.00    +0.000 A 
BRANCH  21  24
ATOM     24  C   UNL     1      44.576   5.772  10.249  0.00  0.00    +0.000 C 
BRANCH  24  25
ATOM     25  N   UNL     1      43.635   4.762  10.716  0.00  0.00    +0.000 NA
ATOM     26  C   UNL     1      42.728   5.128  11.806  0.00  0.00    +0.000 C 
ATOM     27  C   UNL     1      43.144   4.652  13.211  0.00  0.00    +0.000 C 
ATOM     28  O   UNL     1      43.575   3.285  13.232  0.00  0.00    +0.000 OA
ATOM     29  C   UNL     1      44.624   3.068  12.283  0.00  0.00    +0.000 C 
ATOM     30  C   UNL     1      44.150   3.401  10.866  0.00  0.00    +0.000 C 
ENDBRANCH  24  25
ENDBRANCH  21  24
ENDBRANCH  17  18
ENDBRANCH   3  17
TORSDOF 5
ENDMDL
MODEL 6
REMARK VINA RESULT:    -6.453      3.432      5.275
REMARK INTER + INTRA:          -8.910
REMARK INTER:                  -8.114
REMARK INTRA:                  -0.796
REMARK UNBOUND:                -0.571
REMARK  Name = 
REMARK  6 active torsions:
REMARK  status: ('A' for Active; 'I' for Inactive)
REMARK    1  A    between atoms: C_1  and  C_2
REMARK    2  A    between atoms: C_7  and  C_8
REMARK    3  A    between atoms: N_10  and  C_11
REMARK    4  A    between atoms: C_11  and  C_12
REMARK    5  A    between atoms: C_15  and  C_16
REMARK    6  A    between atoms: C_16  and  N_17
REMARK                            x       y       z     vdW  Elec       q    Type
REMARK                         _______ _______ _______ _____ _____    ______ ____
ROOT
ATOM      1  C   UNL     1      49.548   6.840  17.030  0.00  0.00    +0.000 C 
ATOM      2  O   UNL     1      48.632   6.941  17.843  0.00  0.00    +0.000 OA
ATOM      3  N   UNL     1      49.488   7.456  15.806  0.00  0.00    +0.000 N 
ATOM      4  H   UNL     1      50.296   7.444  15.191  0.00  0.00    +0.000 HD
ENDROOT
BRANCH   1  11
ATOM      5  C   UNL     1      52.197   0.572  17.862  0.00  0.00    +0.000 C 
ATOM      6  C   UNL     1      51.828   2.018  17.702  0.00  0.00    +0.000 A 
ATOM      7  N   UNL     1      52.683   2.962  17.934  0.00  0.00    +0.000 NA
ATOM      8  C   UNL     1      52.203   4.223  17.757  0.00  0.00    +0.000 A 
ATOM      9  S   UNL     1      53.193   5.576  18.040  0.00  0.00    +0.000 S 
ATOM     10  C   UNL     1      51.925   6.650  17.660  0.00  0.00    +0.000 A 
ATOM     11  C   UNL     1      50.736   6.020  17.316  0.00  0.00    +0.000 A 
ATOM     12  C   UNL     1      50.930   4.586  17.350  0.00  0.00    +0.000 A 
ATOM     13  C   UNL     1      50.022   3.492  17.058  0.00  0.00    +0.000 A 
ATOM     14  O   UNL     1      48.886   3.630  16.612  0.00  0.00    +0.000 OA
ATOM     15  N   UNL     1      50.533   2.239  17.298  0.00  0.00    +0.000 N 
ATOM     16  H   UNL     1      49.916   1.467  17.095  0.00  0.00    +0.000 HD
ENDBRANCH   1  11
BRANCH   3  17
ATOM     17  C   UNL     1      48.357   8.231  15.364  0.00  0.00    +0.000 C 
BRANCH  17  18
ATOM     18  C   UNL     1      47.642   7.574  14.215  0.00  0.00    +0.000 A 
ATOM     19  C   UNL     1      47.735   6.192  14.011  0.00  0.00    +0.000 A 
ATOM     20  C   UNL     1      47.103   5.587  12.919  0.00  0.00    +0.000 A 
ATOM     21  C   UNL     1      46.371   6.352  12.000  0.00  0.00    +0.000 A 
ATOM     22  C   UNL     1      46.271   7.735  12.212  0.00  0.00    +0.000 A 
ATOM     23  C   UNL     1      46.908   8.340  13.303  0.00  0.00    +0.000 A 
BRANCH  21  24
ATOM     24  C   UNL     1      45.824   5.727  10.736  0.00  0.00    +0.000 C 
BRANCH  24  25
ATOM     25  N   UNL     1      44.426   5.315  10.685  0.00  0.00    +0.000 NA
ATOM     26  C   UNL     1      43.725   5.128  11.956  0.00  0.00    +0.000 C 
ATOM     27  C   UNL     1      43.603   3.673  12.445  0.00  0.00    +0.000 C 
ATOM     28  O   UNL     1      43.201   2.768  11.408  0.00  0.00    +0.000 OA
ATOM     29  C   UNL     1      44.082   2.861  10.284  0.00  0.00    +0.000 C 
ATOM     30  C   UNL     1      44.079   4.281   9.711  0.00  0.00    +0.000 C 
ENDBRANCH  24  25
ENDBRANCH  21  24
ENDBRANCH  17  18
ENDBRANCH   3  17
TORSDOF 5
ENDMDL
MODEL 7
REMARK VINA RESULT:    -6.433      3.341      3.962
REMARK INTER + INTRA:          -8.885
REMARK INTER:                  -8.766
REMARK INTRA:                  -0.119
REMARK UNBOUND:                -0.571
REMARK  Name = 
REMARK  6 active torsions:
REMARK  status: ('A' for Active; 'I' for Inactive)
REMARK    1  A    between atoms: C_1  and  C_2
REMARK    2  A    between atoms: C_7  and  C_8
REMARK    3  A    between atoms: N_10  and  C_11
REMARK    4  A    between atoms: C_11  and  C_12
REMARK    5  A    between atoms: C_15  and  C_16
REMARK    6  A    between atoms: C_16  and  N_17
REMARK                            x       y       z     vdW  Elec       q    Type
REMARK                         _______ _______ _______ _____ _____    ______ ____
ROOT
ATOM      1  C   UNL     1      45.666   6.907  12.880  0.00  0.00    +0.000 C 
ATOM      2  O   UNL     1      46.099   5.963  13.536  0.00  0.00    +0.000 OA
ATOM      3  N   UNL     1      44.452   6.840  12.244  0.00  0.00    +0.000 N 
ATOM      4  H   UNL     1      44.068   7.664  11.794  0.00  0.00    +0.000 HD
ENDROOT
BRANCH   1  11
ATOM      5  C   UNL     1      51.820   9.926  12.974  0.00  0.00    +0.000 C 
ATOM      6  C   UNL     1      50.396   9.464  12.884  0.00  0.00    +0.000 A 
ATOM      7  N   UNL     1      49.427  10.300  12.685  0.00  0.00    +0.000 NA
ATOM      8  C   UNL     1      48.188   9.737  12.636  0.00  0.00    +0.000 A 
ATOM      9  S   UNL     1      46.806  10.699  12.404  0.00  0.00    +0.000 S 
ATOM     10  C   UNL     1      45.779   9.341  12.501  0.00  0.00    +0.000 A 
ATOM     11  C   UNL     1      46.448   8.143  12.712  0.00  0.00    +0.000 A 
ATOM     12  C   UNL     1      47.873   8.393  12.759  0.00  0.00    +0.000 A 
ATOM     13  C   UNL     1      48.997   7.492  12.932  0.00  0.00    +0.000 A 
ATOM     14  O   UNL     1      48.906   6.268  12.979  0.00  0.00    +0.000 OA
ATOM     15  N   UNL     1      50.221   8.108  13.027  0.00  0.00    +0.000 N 
ATOM     16  H   UNL     1      51.014   7.494  13.142  0.00  0.00    +0.000 HD
ENDBRANCH   1  11
BRANCH   3  17
ATOM     17  C   UNL     1      43.613   5.668  12.264  0.00  0.00    +0.000 C 
BRANCH  17  18
ATOM     18  C   UNL     1      43.974   4.702  11.169  0.00  0.00    +0.000 A 
ATOM     19  C   UNL     1      43.804   3.323  11.347  0.00  0.00    +0.000 A 
ATOM     20  C   UNL     1      44.178   2.422  10.344  0.00  0.00    +0.000 A 
ATOM     21  C   UNL     1      44.739   2.879   9.143  0.00  0.00    +0.000 A 
ATOM     22  C   UNL     1      44.900   4.260   8.963  0.00  0.00    +0.000 A 
ATOM     23  C   UNL     1      44.529   5.161   9.970  0.00  0.00    +0.000 A 
BRANCH  21  24
ATOM     24  C   UNL     1      45.291   1.902   8.128  0.00  0.00    +0.000 C 
BRANCH  24  25
ATOM     25  N   UNL     1      46.659   2.062   7.647  0.00  0.00    +0.000 NA
ATOM     26  C   UNL     1      46.933   3.171   6.732  0.00  0.00    +0.000 C 
ATOM     27  C   UNL     1      46.996   2.805   5.237  0.00  0.00    +0.000 C 
ATOM     28  O   UNL     1      47.766   1.623   4.984  0.00  0.00    +0.000 OA
ATOM     29  C   UNL     1      47.282   0.524   5.763  0.00  0.00    +0.000 C 
ATOM     30  C   UNL     1      47.367   0.843   7.259  0.00  0.00    +0.000 C 
ENDBRANCH  24  25
ENDBRANCH  21  24
ENDBRANCH  17  18
ENDBRANCH   3  17
TORSDOF 5
ENDMDL
MODEL 8
REMARK VINA RESULT:    -6.414      4.274      9.723
REMARK INTER + INTRA:          -8.859
REMARK INTER:                  -7.898
REMARK INTRA:                  -0.961
REMARK UNBOUND:                -0.571
REMARK  Name = 
REMARK  6 active torsions:
REMARK  status: ('A' for Active; 'I' for Inactive)
REMARK    1  A    between atoms: C_1  and  C_2
REMARK    2  A    between atoms: C_7  and  C_8
REMARK    3  A    between atoms: N_10  and  C_11
REMARK    4  A    between atoms: C_11  and  C_12
REMARK    5  A    between atoms: C_15  and  C_16
REMARK    6  A    between atoms: C_16  and  N_17
REMARK                            x       y       z     vdW  Elec       q    Type
REMARK                         _______ _______ _______ _____ _____    ______ ____
ROOT
ATOM      1  C   UNL     1      46.691   4.194  14.100  0.00  0.00    +0.000 C 
ATOM      2  O   UNL     1      47.255   3.161  13.747  0.00  0.00    +0.000 OA
ATOM      3  N   UNL     1      46.732   4.622  15.403  0.00  0.00    +0.000 N 
ATOM      4  H   UNL     1      46.348   5.528  15.653  0.00  0.00    +0.000 HD
ENDROOT
BRANCH   1  11
ATOM      5  C   UNL     1      45.230  10.412  11.614  0.00  0.00    +0.000 C 
ATOM      6  C   UNL     1      45.412   8.974  11.998  0.00  0.00    +0.000 A 
ATOM      7  N   UNL     1      44.674   8.040  11.487  0.00  0.00    +0.000 NA
ATOM      8  C   UNL     1      44.949   6.785  11.937  0.00  0.00    +0.000 A 
ATOM      9  S   UNL     1      44.056   5.449  11.383  0.00  0.00    +0.000 S 
ATOM     10  C   UNL     1      44.934   4.381  12.379  0.00  0.00    +0.000 A 
ATOM     11  C   UNL     1      45.910   5.001  13.149  0.00  0.00    +0.000 A 
ATOM     12  C   UNL     1      45.924   6.417  12.851  0.00  0.00    +0.000 A 
ATOM     13  C   UNL     1      46.755   7.492  13.359  0.00  0.00    +0.000 A 
ATOM     14  O   UNL     1      47.713   7.335  14.111  0.00  0.00    +0.000 OA
ATOM     15  N   UNL     1      46.410   8.746  12.916  0.00  0.00    +0.000 N 
ATOM     16  H   UNL     1      46.982   9.505  13.255  0.00  0.00    +0.000 HD
ENDBRANCH   1  11
BRANCH   3  17
ATOM     17  C   UNL     1      47.400   3.895  16.454  0.00  0.00    +0.000 C 
BRANCH  17  18
ATOM     18  C   UNL     1      48.058   4.819  17.442  0.00  0.00    +0.000 A 
ATOM     19  C   UNL     1      47.332   5.354  18.514  0.00  0.00    +0.000 A 
ATOM     20  C   UNL     1      47.935   6.245  19.409  0.00  0.00    +0.000 A 
ATOM     21  C   UNL     1      49.273   6.628  19.248  0.00  0.00    +0.000 A 
ATOM     22  C   UNL     1      50.000   6.083  18.180  0.00  0.00    +0.000 A 
ATOM     23  C   UNL     1      49.396   5.195  17.282  0.00  0.00    +0.000 A 
BRANCH  21  24
ATOM     24  C   UNL     1      49.877   7.710  20.116  0.00  0.00    +0.000 C 
BRANCH  24  25
ATOM     25  N   UNL     1      49.606   9.110  19.811  0.00  0.00    +0.000 NA
ATOM     26  C   UNL     1      48.425   9.724  20.419  0.00  0.00    +0.000 C 
ATOM     27  C   UNL     1      47.179   9.818  19.517  0.00  0.00    +0.000 C 
ATOM     28  O   UNL     1      47.481  10.292  18.198  0.00  0.00    +0.000 OA
ATOM     29  C   UNL     1      48.498   9.490  17.590  0.00  0.00    +0.000 C 
ATOM     30  C   UNL     1      49.784   9.527  18.420  0.00  0.00    +0.000 C 
ENDBRANCH  24  25
ENDBRANCH  21  24
ENDBRANCH  17  18
ENDBRANCH   3  17
TORSDOF 5
ENDMDL
MODEL 9
REMARK VINA RESULT:    -6.218      4.258     10.117
REMARK INTER + INTRA:          -8.607
REMARK INTER:                  -7.781
REMARK INTRA:                  -0.826
REMARK UNBOUND:                -0.571
REMARK  Name = 
REMARK  6 active torsions:
REMARK  status: ('A' for Active; 'I' for Inactive)
REMARK    1  A    between atoms: C_1  and  C_2
REMARK    2  A    between atoms: C_7  and  C_8
REMARK    3  A    between atoms: N_10  and  C_11
REMARK    4  A    between atoms: C_11  and  C_12
REMARK    5  A    between atoms: C_15  and  C_16
REMARK    6  A    between atoms: C_16  and  N_17
REMARK                            x       y       z     vdW  Elec       q    Type
REMARK                         _______ _______ _______ _____ _____    ______ ____
ROOT
ATOM      1  C   UNL     1      46.648   4.178  14.042  0.00  0.00    +0.000 C 
ATOM      2  O   UNL     1      47.259   3.172  13.691  0.00  0.00    +0.000 OA
ATOM      3  N   UNL     1      46.655   4.599  15.348  0.00  0.00    +0.000 N 
ATOM      4  H   UNL     1      46.230   5.486  15.599  0.00  0.00    +0.000 HD
ENDROOT
BRANCH   1  11
ATOM      5  C   UNL     1      45.075  10.336  11.472  0.00  0.00    +0.000 C 
ATOM      6  C   UNL     1      45.282   8.906  11.877  0.00  0.00    +0.000 A 
ATOM      7  N   UNL     1      44.553   7.954  11.388  0.00  0.00    +0.000 NA
ATOM      8  C   UNL     1      44.850   6.710  11.855  0.00  0.00    +0.000 A 
ATOM      9  S   UNL     1      43.971   5.353  11.330  0.00  0.00    +0.000 S 
ATOM     10  C   UNL     1      44.873   4.313  12.336  0.00  0.00    +0.000 A 
ATOM     11  C   UNL     1      45.847   4.959  13.086  0.00  0.00    +0.000 A 
ATOM     12  C   UNL     1      45.838   6.371  12.766  0.00  0.00    +0.000 A 
ATOM     13  C   UNL     1      46.658   7.465  13.248  0.00  0.00    +0.000 A 
ATOM     14  O   UNL     1      47.625   7.334  13.995  0.00  0.00    +0.000 OA
ATOM     15  N   UNL     1      46.291   8.707  12.789  0.00  0.00    +0.000 N 
ATOM     16  H   UNL     1      46.856   9.479  13.111  0.00  0.00    +0.000 HD
ENDBRANCH   1  11
BRANCH   3  17
ATOM     17  C   UNL     1      47.337   3.893  16.404  0.00  0.00    +0.000 C 
BRANCH  17  18
ATOM     18  C   UNL     1      47.947   4.836  17.405  0.00  0.00    +0.000 A 
ATOM     19  C   UNL     1      47.212   5.277  18.513  0.00  0.00    +0.000 A 
ATOM     20  C   UNL     1      47.766   6.185  19.421  0.00  0.00    +0.000 A 
ATOM     21  C   UNL     1      49.063   6.682  19.238  0.00  0.00    +0.000 A 
ATOM     22  C   UNL     1      49.801   6.232  18.133  0.00  0.00    +0.000 A 
ATOM     23  C   UNL     1      49.244   5.326  17.221  0.00  0.00    +0.000 A 
BRANCH  21  24
ATOM     24  C   UNL     1      49.602   7.782  20.125  0.00  0.00    +0.000 C 
BRANCH  24  25
ATOM     25  N   UNL     1      50.545   7.451  21.188  0.00  0.00    +0.000 NA
ATOM     26  C   UNL     1      51.968   7.412  20.848  0.00  0.00    +0.000 C 
ATOM     27  C   UNL     1      52.556   6.011  20.590  0.00  0.00    +0.000 C 
ATOM     28  O   UNL     1      52.154   5.048  21.574  0.00  0.00    +0.000 OA
ATOM     29  C   UNL     1      50.728   4.996  21.681  0.00  0.00    +0.000 C 
ATOM     30  C   UNL     1      50.166   6.361  22.087  0.00  0.00    +0.000 C 
ENDBRANCH  24  25
ENDBRANCH  21  24
ENDBRANCH  17  18
ENDBRANCH   3  17
TORSDOF 5
ENDMDL
