MODEL 1
REMARK VINA RESULT:    -8.892      0.000      0.000
REMARK INTER + INTRA:         -13.158
REMARK INTER:                 -12.011
REMARK INTRA:                  -1.147
REMARK UNBOUND:                -1.147
REMARK  Name = 
REMARK  6 active torsions:
REMARK  status: ('A' for Active; 'I' for Inactive)
REMARK    1  A    between atoms: C_2  and  C_4
REMARK    2  A    between atoms: C_7  and  C_8
REMARK    3  A    between atoms: C_8  and  C_9
REMARK    4  A    between atoms: C_12  and  C_13
REMARK    5  A    between atoms: C_13  and  N_14
REMARK    6  A    between atoms: C_15  and  C_17
REMARK                            x       y       z     vdW  Elec       q    Type
REMARK                         _______ _______ _______ _____ _____    ______ ____
ROOT
ATOM      1  C   UNL     1      44.728   5.364  11.188  0.00  0.00    +0.000 A 
ATOM      2  C   UNL     1      44.395   6.722  11.288  0.00  0.00    +0.000 A 
ATOM      3  C   UNL     1      45.164   7.588  12.072  0.00  0.00    +0.000 A 
ATOM      4  C   UNL     1      46.287   7.115  12.761  0.00  0.00    +0.000 A 
ATOM      5  C   UNL     1      46.579   5.746  12.716  0.00  0.00    +0.000 A 
ATOM      6  C   UNL     1      45.813   4.880  11.931  0.00  0.00    +0.000 A 
ENDROOT
BRANCH   1   7
ATOM      7  C   UNL     1      43.970   4.451  10.251  0.00  0.00    +0.000 C 
BRANCH   7  11
ATOM      8  C   UNL     1      46.552   2.362   7.469  0.00  0.00    +0.000 A 
ATOM      9  C   UNL     1      45.814   1.644   8.417  0.00  0.00    +0.000 A 
ATOM     10  C   UNL     1      44.977   2.319   9.311  0.00  0.00    +0.000 A 
ATOM     11  C   UNL     1      44.864   3.718   9.272  0.00  0.00    +0.000 A 
ATOM     12  C   UNL     1      45.625   4.430   8.333  0.00  0.00    +0.000 A 
ATOM     13  C   UNL     1      46.466   3.758   7.440  0.00  0.00    +0.000 A 
BRANCH   8  15
ATOM     14  N   UNL     1      48.542   2.389   6.062  0.00  0.00    +0.000 N 
ATOM     15  C   UNL     1      47.450   1.688   6.495  0.00  0.00    +0.000 C 
ATOM     16  O   UNL     1      47.254   0.538   6.124  0.00  0.00    +0.000 OA
ATOM     17  H   UNL     1      49.202   1.876   5.492  0.00  0.00    +0.000 HD
ATOM     18  H   UNL     1      48.874   3.215   6.539  0.00  0.00    +0.000 HD
ENDBRANCH   8  15
ENDBRANCH   7  11
ENDBRANCH   1   7
BRANCH   4  19
ATOM     19  C   UNL     1      47.174   8.055  13.533  0.00  0.00    +0.000 C 
BRANCH  19  20
ATOM     20  N   UNL     1      47.629   7.472  14.768  0.00  0.00    +0.000 N 
ATOM     21  C   UNL     1      48.883   6.923  14.864  0.00  0.00    +0.000 C 
ATOM     22  O   UNL     1      49.678   6.948  13.928  0.00  0.00    +0.000 OA
ATOM     23  H   UNL     1      46.922   7.238  15.458  0.00  0.00    +0.000 HD
BRANCH  21  24
ATOM     24  C   UNL     1      49.253   6.355  16.164  0.00  0.00    +0.000 A 
ATOM     25  C   UNL     1      50.254   6.958  16.917  0.00  0.00    +0.000 A 
ATOM     26  S   UNL     1      50.527   6.202  18.421  0.00  0.00    +0.000 S 
ATOM     27  C   UNL     1      49.357   5.011  18.095  0.00  0.00    +0.000 A 
ATOM     28  N   UNL     1      49.107   4.013  18.988  0.00  0.00    +0.000 NA
ATOM     29  C   UNL     1      48.219   3.163  18.602  0.00  0.00    +0.000 A 
ATOM     30  N   UNL     1      47.550   3.220  17.406  0.00  0.00    +0.000 N 
ATOM     31  C   UNL     1      47.747   4.223  16.487  0.00  0.00    +0.000 A 
ATOM     32  O   UNL     1      47.099   4.267  15.448  0.00  0.00    +0.000 OA
ATOM     33  C   UNL     1      48.749   5.199  16.868  0.00  0.00    +0.000 A 
ATOM     34  H   UNL     1      46.858   2.524  17.167  0.00  0.00    +0.000 HD
ENDBRANCH  21  24
ENDBRANCH  19  20
ENDBRANCH   4  19
TORSDOF 6
ENDMDL
MODEL 2
REMARK VINA RESULT:    -8.041      1.687      2.103
REMARK INTER + INTRA:         -12.009
REMARK INTER:                 -10.956
REMARK INTRA:                  -1.053
REMARK UNBOUND:                -1.147
REMARK  Name = 
REMARK  6 active torsions:
REMARK  status: ('A' for Active; 'I' for Inactive)
REMARK    1  A    between atoms: C_2  and  C_4
REMARK    2  A    between atoms: C_7  and  C_8
REMARK    3  A    between atoms: C_8  and  C_9
REMARK    4  A    between atoms: C_12  and  C_13
REMARK    5  A    between atoms: C_13  and  N_14
REMARK    6  A    between atoms: C_15  and  C_17
REMARK                            x       y       z     vdW  Elec       q    Type
REMARK                         _______ _______ _______ _____ _____    ______ ____
ROOT
ATOM      1  C   UNL     1      45.063   5.346  11.391  0.00  0.00    +0.000 A 
ATOM      2  C   UNL     1      45.147   6.744  11.343  0.00  0.00    +0.000 A 
ATOM      3  C   UNL     1      45.990   7.437  12.218  0.00  0.00    +0.000 A 
ATOM      4  C   UNL     1      46.772   6.744  13.150  0.00  0.00    +0.000 A 
ATOM      5  C   UNL     1      46.637   5.353  13.243  0.00  0.00    +0.000 A 
ATOM      6  C   UNL     1      45.797   4.659  12.367  0.00  0.00    +0.000 A 
ENDROOT
BRANCH   1   7
ATOM      7  C   UNL     1      44.243   4.587  10.371  0.00  0.00    +0.000 C 
BRANCH   7  11
ATOM      8  C   UNL     1      46.626   2.476   7.433  0.00  0.00    +0.000 A 
ATOM      9  C   UNL     1      46.577   3.875   7.424  0.00  0.00    +0.000 A 
ATOM     10  C   UNL     1      45.812   4.555   8.376  0.00  0.00    +0.000 A 
ATOM     11  C   UNL     1      45.086   3.851   9.350  0.00  0.00    +0.000 A 
ATOM     12  C   UNL     1      45.124   2.449   9.336  0.00  0.00    +0.000 A 
ATOM     13  C   UNL     1      45.885   1.765   8.383  0.00  0.00    +0.000 A 
BRANCH   8  15
ATOM     14  N   UNL     1      48.542   2.324   5.935  0.00  0.00    +0.000 N 
ATOM     15  C   UNL     1      47.431   1.710   6.445  0.00  0.00    +0.000 C 
ATOM     16  O   UNL     1      47.145   0.563   6.128  0.00  0.00    +0.000 OA
ATOM     17  H   UNL     1      49.140   1.749   5.355  0.00  0.00    +0.000 HD
ATOM     18  H   UNL     1      48.949   3.143   6.362  0.00  0.00    +0.000 HD
ENDBRANCH   8  15
ENDBRANCH   7  11
ENDBRANCH   1   7
BRANCH   4  19
ATOM     19  C   UNL     1      47.751   7.473  14.033  0.00  0.00    +0.000 C 
BRANCH  19  20
ATOM     20  N   UNL     1      48.174   6.664  15.145  0.00  0.00    +0.000 N 
ATOM     21  C   UNL     1      48.815   7.229  16.219  0.00  0.00    +0.000 C 
ATOM     22  O   UNL     1      49.008   8.439  16.298  0.00  0.00    +0.000 OA
ATOM     23  H   UNL     1      48.233   5.662  14.994  0.00  0.00    +0.000 HD
BRANCH  21  24
ATOM     24  C   UNL     1      49.206   6.321  17.303  0.00  0.00    +0.000 A 
ATOM     25  C   UNL     1      50.158   5.338  17.065  0.00  0.00    +0.000 A 
ATOM     26  S   UNL     1      50.534   4.403  18.441  0.00  0.00    +0.000 S 
ATOM     27  C   UNL     1      49.397   5.243  19.387  0.00  0.00    +0.000 A 
ATOM     28  N   UNL     1      49.193   4.912  20.693  0.00  0.00    +0.000 NA
ATOM     29  C   UNL     1      48.284   5.609  21.283  0.00  0.00    +0.000 A 
ATOM     30  N   UNL     1      47.562   6.614  20.692  0.00  0.00    +0.000 N 
ATOM     31  C   UNL     1      47.753   7.003  19.388  0.00  0.00    +0.000 A 
ATOM     32  O   UNL     1      47.121   7.934  18.904  0.00  0.00    +0.000 OA
ATOM     33  C   UNL     1      48.758   6.238  18.673  0.00  0.00    +0.000 A 
ATOM     34  H   UNL     1      46.867   7.127  21.214  0.00  0.00    +0.000 HD
ENDBRANCH  21  24
ENDBRANCH  19  20
ENDBRANCH   4  19
TORSDOF 6
ENDMDL
MODEL 3
REMARK VINA RESULT:    -7.659      3.325      4.627
REMARK INTER + INTRA:         -11.493
REMARK INTER:                 -10.256
REMARK INTRA:                  -1.236
REMARK UNBOUND:                -1.147
REMARK  Name = 
REMARK  6 active torsions:
REMARK  status: ('A' for Active; 'I' for Inactive)
REMARK    1  A    between atoms: C_2  and  C_4
REMARK    2  A    between atoms: C_7  and  C_8
REMARK    3  A    between atoms: C_8  and  C_9
REMARK    4  A    between atoms: C_12  and  C_13
REMARK    5  A    between atoms: C_13  and  N_14
REMARK    6  A    between atoms: C_15  and  C_17
REMARK                            x       y       z     vdW  Elec       q    Type
REMARK                         _______ _______ _______ _____ _____    ______ ____
ROOT
ATOM      1  C   UNL     1      44.681   5.272  11.254  0.00  0.00    +0.000 A 
ATOM      2  C   UNL     1      44.427   6.650  11.200  0.00  0.00    +0.000 A 
ATOM      3  C   UNL     1      45.175   7.543  11.975  0.00  0.00    +0.000 A 
ATOM      4  C   UNL     1      46.196   7.076  12.811  0.00  0.00    +0.000 A 
ATOM      5  C   UNL     1      46.403   5.695  12.916  0.00  0.00    +0.000 A 
ATOM      6  C   UNL     1      45.660   4.802  12.140  0.00  0.00    +0.000 A 
ENDROOT
BRANCH   1   7
ATOM      7  C   UNL     1      43.956   4.317  10.333  0.00  0.00    +0.000 C 
BRANCH   7  11
ATOM      8  C   UNL     1      46.591   2.385   7.488  0.00  0.00    +0.000 A 
ATOM      9  C   UNL     1      45.900   1.622   8.437  0.00  0.00    +0.000 A 
ATOM     10  C   UNL     1      45.046   2.246   9.351  0.00  0.00    +0.000 A 
ATOM     11  C   UNL     1      44.868   3.639   9.332  0.00  0.00    +0.000 A 
ATOM     12  C   UNL     1      45.582   4.397   8.392  0.00  0.00    +0.000 A 
ATOM     13  C   UNL     1      46.440   3.776   7.479  0.00  0.00    +0.000 A 
BRANCH   8  15
ATOM     14  N   UNL     1      48.687   2.407   6.246  0.00  0.00    +0.000 N 
ATOM     15  C   UNL     1      47.504   1.765   6.492  0.00  0.00    +0.000 C 
ATOM     16  O   UNL     1      47.239   0.703   5.945  0.00  0.00    +0.000 OA
ATOM     17  H   UNL     1      49.345   1.914   5.656  0.00  0.00    +0.000 HD
ATOM     18  H   UNL     1      49.050   3.121   6.860  0.00  0.00    +0.000 HD
ENDBRANCH   8  15
ENDBRANCH   7  11
ENDBRANCH   1   7
BRANCH   4  19
ATOM     19  C   UNL     1      47.067   8.035  13.578  0.00  0.00    +0.000 C 
BRANCH  19  20
ATOM     20  N   UNL     1      48.297   8.315  12.885  0.00  0.00    +0.000 N 
ATOM     21  C   UNL     1      49.463   7.687  13.245  0.00  0.00    +0.000 C 
ATOM     22  O   UNL     1      49.497   6.835  14.130  0.00  0.00    +0.000 OA
ATOM     23  H   UNL     1      48.333   9.163  12.328  0.00  0.00    +0.000 HD
BRANCH  21  24
ATOM     24  C   UNL     1      50.663   8.039  12.478  0.00  0.00    +0.000 A 
ATOM     25  C   UNL     1      50.760   7.661  11.144  0.00  0.00    +0.000 A 
ATOM     26  S   UNL     1      52.194   8.190  10.387  0.00  0.00    +0.000 S 
ATOM     27  C   UNL     1      52.758   8.893  11.830  0.00  0.00    +0.000 A 
ATOM     28  N   UNL     1      53.974   9.507  11.879  0.00  0.00    +0.000 NA
ATOM     29  C   UNL     1      54.290   9.969  13.040  0.00  0.00    +0.000 A 
ATOM     30  N   UNL     1      53.500   9.883  14.157  0.00  0.00    +0.000 N 
ATOM     31  C   UNL     1      52.255   9.300  14.149  0.00  0.00    +0.000 A 
ATOM     32  O   UNL     1      51.558   9.278  15.157  0.00  0.00    +0.000 OA
ATOM     33  C   UNL     1      51.858   8.749  12.868  0.00  0.00    +0.000 A 
ATOM     34  H   UNL     1      53.805  10.273  15.038  0.00  0.00    +0.000 HD
ENDBRANCH  21  24
ENDBRANCH  19  20
ENDBRANCH   4  19
TORSDOF 6
ENDMDL
MODEL 4
REMARK VINA RESULT:    -7.577      2.171      3.880
REMARK INTER + INTRA:         -11.382
REMARK INTER:                 -10.099
REMARK INTRA:                  -1.282
REMARK UNBOUND:                -1.147
REMARK  Name = 
REMARK  6 active torsions:
REMARK  status: ('A' for Active; 'I' for Inactive)
REMARK    1  A    between atoms: C_2  and  C_4
REMARK    2  A    between atoms: C_7  and  C_8
REMARK    3  A    between atoms: C_8  and  C_9
REMARK    4  A    between atoms: C_12  and  C_13
REMARK    5  A    between atoms: C_13  and  N_14
REMARK    6  A    between atoms: C_15  and  C_17
REMARK                            x       y       z     vdW  Elec       q    Type
REMARK                         _______ _______ _______ _____ _____    ______ ____
ROOT
ATOM      1  C   UNL     1      45.337   4.391  11.648  0.00  0.00    +0.000 A 
ATOM      2  C   UNL     1      45.693   3.326  12.486  0.00  0.00    +0.000 A 
ATOM      3  C   UNL     1      46.411   3.555  13.664  0.00  0.00    +0.000 A 
ATOM      4  C   UNL     1      46.777   4.856  14.031  0.00  0.00    +0.000 A 
ATOM      5  C   UNL     1      46.481   5.912  13.160  0.00  0.00    +0.000 A 
ATOM      6  C   UNL     1      45.761   5.684  11.984  0.00  0.00    +0.000 A 
ENDROOT
BRANCH   1   7
ATOM      7  C   UNL     1      44.461   4.161  10.436  0.00  0.00    +0.000 C 
BRANCH   7  11
ATOM      8  C   UNL     1      46.619   2.446   7.094  0.00  0.00    +0.000 A 
ATOM      9  C   UNL     1      46.031   1.612   8.054  0.00  0.00    +0.000 A 
ATOM     10  C   UNL     1      45.331   2.167   9.129  0.00  0.00    +0.000 A 
ATOM     11  C   UNL     1      45.206   3.559   9.262  0.00  0.00    +0.000 A 
ATOM     12  C   UNL     1      45.817   4.386   8.308  0.00  0.00    +0.000 A 
ATOM     13  C   UNL     1      46.522   3.834   7.234  0.00  0.00    +0.000 A 
BRANCH   8  15
ATOM     14  N   UNL     1      48.097   2.788   5.187  0.00  0.00    +0.000 N 
ATOM     15  C   UNL     1      47.368   1.901   5.931  0.00  0.00    +0.000 C 
ATOM     16  O   UNL     1      47.374   0.706   5.669  0.00  0.00    +0.000 OA
ATOM     17  H   UNL     1      48.690   2.386   4.473  0.00  0.00    +0.000 HD
ATOM     18  H   UNL     1      48.326   3.712   5.523  0.00  0.00    +0.000 HD
ENDBRANCH   8  15
ENDBRANCH   7  11
ENDBRANCH   1   7
BRANCH   4  19
ATOM     19  C   UNL     1      47.469   5.124  15.342  0.00  0.00    +0.000 C 
BRANCH  19  20
ATOM     20  N   UNL     1      48.112   6.411  15.355  0.00  0.00    +0.000 N 
ATOM     21  C   UNL     1      49.353   6.569  15.919  0.00  0.00    +0.000 C 
ATOM     22  O   UNL     1      49.980   5.623  16.387  0.00  0.00    +0.000 OA
ATOM     23  H   UNL     1      47.526   7.224  15.191  0.00  0.00    +0.000 HD
BRANCH  21  24
ATOM     24  C   UNL     1      49.925   7.919  15.882  0.00  0.00    +0.000 A 
ATOM     25  C   UNL     1      50.208   8.578  17.072  0.00  0.00    +0.000 A 
ATOM     26  S   UNL     1      50.913  10.115  16.853  0.00  0.00    +0.000 S 
ATOM     27  C   UNL     1      50.813   9.977  15.160  0.00  0.00    +0.000 A 
ATOM     28  N   UNL     1      51.234  10.989  14.350  0.00  0.00    +0.000 NA
ATOM     29  C   UNL     1      51.074  10.764  13.091  0.00  0.00    +0.000 A 
ATOM     30  N   UNL     1      50.539   9.617  12.563  0.00  0.00    +0.000 N 
ATOM     31  C   UNL     1      50.128   8.559  13.338  0.00  0.00    +0.000 A 
ATOM     32  O   UNL     1      49.695   7.531  12.831  0.00  0.00    +0.000 OA
ATOM     33  C   UNL     1      50.273   8.768  14.766  0.00  0.00    +0.000 A 
ATOM     34  H   UNL     1      50.447   9.501  11.564  0.00  0.00    +0.000 HD
ENDBRANCH  21  24
ENDBRANCH  19  20
ENDBRANCH   4  19
TORSDOF 6
ENDMDL
MODEL 5
REMARK VINA RESULT:    -7.409      5.083      7.325
REMARK INTER + INTRA:         -11.155
REMARK INTER:                 -10.018
REMARK INTRA:                  -1.137
REMARK UNBOUND:                -1.147
REMARK  Name = 
REMARK  6 active torsions:
REMARK  status: ('A' for Active; 'I' for Inactive)
REMARK    1  A    between atoms: C_2  and  C_4
REMARK    2  A    between atoms: C_7  and  C_8
REMARK    3  A    between atoms: C_8  and  C_9
REMARK    4  A    between atoms: C_12  and  C_13
REMARK    5  A    between atoms: C_13  and  N_14
REMARK    6  A    between atoms: C_15  and  C_17
REMARK                            x       y       z     vdW  Elec       q    Type
REMARK                         _______ _______ _______ _____ _____    ______ ____
ROOT
ATOM      1  C   UNL     1      51.200   8.619  11.093  0.00  0.00    +0.000 A 
ATOM      2  C   UNL     1      50.526   7.429  11.399  0.00  0.00    +0.000 A 
ATOM      3  C   UNL     1      49.181   7.451  11.782  0.00  0.00    +0.000 A 
ATOM      4  C   UNL     1      48.483   8.663  11.856  0.00  0.00    +0.000 A 
ATOM      5  C   UNL     1      49.175   9.856  11.617  0.00  0.00    +0.000 A 
ATOM      6  C   UNL     1      50.518   9.835  11.231  0.00  0.00    +0.000 A 
ENDROOT
BRANCH   1   7
ATOM      7  C   UNL     1      52.618   8.589  10.567  0.00  0.00    +0.000 C 
BRANCH   7  11
ATOM      8  C   UNL     1      53.230   5.562   7.529  0.00  0.00    +0.000 A 
ATOM      9  C   UNL     1      52.590   6.764   7.205  0.00  0.00    +0.000 A 
ATOM     10  C   UNL     1      52.398   7.742   8.185  0.00  0.00    +0.000 A 
ATOM     11  C   UNL     1      52.841   7.536   9.501  0.00  0.00    +0.000 A 
ATOM     12  C   UNL     1      53.461   6.319   9.821  0.00  0.00    +0.000 A 
ATOM     13  C   UNL     1      53.651   5.337   8.844  0.00  0.00    +0.000 A 
BRANCH   8  15
ATOM     14  N   UNL     1      53.187   3.209   6.894  0.00  0.00    +0.000 N 
ATOM     15  C   UNL     1      53.462   4.496   6.519  0.00  0.00    +0.000 C 
ATOM     16  O   UNL     1      53.841   4.752   5.383  0.00  0.00    +0.000 OA
ATOM     17  H   UNL     1      53.239   2.512   6.162  0.00  0.00    +0.000 HD
ATOM     18  H   UNL     1      52.633   2.994   7.710  0.00  0.00    +0.000 HD
ENDBRANCH   8  15
ENDBRANCH   7  11
ENDBRANCH   1   7
BRANCH   4  19
ATOM     19  C   UNL     1      47.011   8.689  12.177  0.00  0.00    +0.000 C 
BRANCH  19  20
ATOM     20  N   UNL     1      46.432   7.372  12.148  0.00  0.00    +0.000 N 
ATOM     21  C   UNL     1      45.187   7.166  11.611  0.00  0.00    +0.000 C 
ATOM     22  O   UNL     1      44.541   8.075  11.095  0.00  0.00    +0.000 OA
ATOM     23  H   UNL     1      46.837   6.674  12.764  0.00  0.00    +0.000 HD
BRANCH  21  24
ATOM     24  C   UNL     1      44.684   5.788  11.627  0.00  0.00    +0.000 A 
ATOM     25  C   UNL     1      44.005   5.318  12.745  0.00  0.00    +0.000 A 
ATOM     26  S   UNL     1      43.446   3.715  12.582  0.00  0.00    +0.000 S 
ATOM     27  C   UNL     1      44.139   3.576  11.035  0.00  0.00    +0.000 A 
ATOM     28  N   UNL     1      44.047   2.412  10.330  0.00  0.00    +0.000 NA
ATOM     29  C   UNL     1      44.641   2.435   9.187  0.00  0.00    +0.000 A 
ATOM     30  N   UNL     1      45.313   3.516   8.676  0.00  0.00    +0.000 N 
ATOM     31  C   UNL     1      45.407   4.718   9.336  0.00  0.00    +0.000 A 
ATOM     32  O   UNL     1      45.978   5.677   8.830  0.00  0.00    +0.000 OA
ATOM     33  C   UNL     1      44.766   4.740  10.637  0.00  0.00    +0.000 A 
ATOM     34  H   UNL     1      45.752   3.469   7.767  0.00  0.00    +0.000 HD
ENDBRANCH  21  24
ENDBRANCH  19  20
ENDBRANCH   4  19
TORSDOF 6
ENDMDL
MODEL 6
REMARK VINA RESULT:    -7.333      2.562      3.288
REMARK INTER + INTRA:         -11.052
REMARK INTER:                  -9.944
REMARK INTRA:                  -1.108
REMARK UNBOUND:                -1.147
REMARK  Name = 
REMARK  6 active torsions:
REMARK  status: ('A' for Active; 'I' for Inactive)
REMARK    1  A    between atoms: C_2  and  C_4
REMARK    2  A    between atoms: C_7  and  C_8
REMARK    3  A    between atoms: C_8  and  C_9
REMARK    4  A    between atoms: C_12  and  C_13
REMARK    5  A    between atoms: C_13  and  N_14
REMARK    6  A    between atoms: C_15  and  C_17
REMARK                            x       y       z     vdW  Elec       q    Type
REMARK                         _______ _______ _______ _____ _____    ______ ____
ROOT
ATOM      1  C   UNL     1      45.418   4.350  11.888  0.00  0.00    +0.000 A 
ATOM      2  C   UNL     1      45.859   3.174  12.511  0.00  0.00    +0.000 A 
ATOM      3  C   UNL     1      46.606   3.231  13.692  0.00  0.00    +0.000 A 
ATOM      4  C   UNL     1      46.917   4.465  14.277  0.00  0.00    +0.000 A 
ATOM      5  C   UNL     1      46.536   5.640  13.618  0.00  0.00    +0.000 A 
ATOM      6  C   UNL     1      45.786   5.584  12.440  0.00  0.00    +0.000 A 
ENDROOT
BRANCH   1   7
ATOM      7  C   UNL     1      44.512   4.288  10.678  0.00  0.00    +0.000 C 
BRANCH   7  11
ATOM      8  C   UNL     1      46.498   2.728   7.158  0.00  0.00    +0.000 A 
ATOM      9  C   UNL     1      45.888   1.855   8.066  0.00  0.00    +0.000 A 
ATOM     10  C   UNL     1      45.243   2.360   9.199  0.00  0.00    +0.000 A 
ATOM     11  C   UNL     1      45.196   3.742   9.442  0.00  0.00    +0.000 A 
ATOM     12  C   UNL     1      45.830   4.607   8.538  0.00  0.00    +0.000 A 
ATOM     13  C   UNL     1      46.480   4.105   7.406  0.00  0.00    +0.000 A 
BRANCH   8  15
ATOM     14  N   UNL     1      48.492   1.840   6.074  0.00  0.00    +0.000 N 
ATOM     15  C   UNL     1      47.190   2.238   5.937  0.00  0.00    +0.000 C 
ATOM     16  O   UNL     1      46.615   2.148   4.861  0.00  0.00    +0.000 OA
ATOM     17  H   UNL     1      48.910   1.402   5.264  0.00  0.00    +0.000 HD
ATOM     18  H   UNL     1      48.905   1.651   6.976  0.00  0.00    +0.000 HD
ENDBRANCH   8  15
ENDBRANCH   7  11
ENDBRANCH   1   7
BRANCH   4  19
ATOM     19  C   UNL     1      47.641   4.534  15.596  0.00  0.00    +0.000 C 
BRANCH  19  20
ATOM     20  N   UNL     1      47.718   5.882  16.095  0.00  0.00    +0.000 N 
ATOM     21  C   UNL     1      48.929   6.448  16.404  0.00  0.00    +0.000 C 
ATOM     22  O   UNL     1      49.989   5.853  16.226  0.00  0.00    +0.000 OA
ATOM     23  H   UNL     1      46.863   6.290  16.461  0.00  0.00    +0.000 HD
BRANCH  21  24
ATOM     24  C   UNL     1      48.903   7.826  16.905  0.00  0.00    +0.000 A 
ATOM     25  C   UNL     1      49.474   8.842  16.149  0.00  0.00    +0.000 A 
ATOM     26  S   UNL     1      49.314  10.389  16.849  0.00  0.00    +0.000 S 
ATOM     27  C   UNL     1      48.525   9.747  18.213  0.00  0.00    +0.000 A 
ATOM     28  N   UNL     1      48.131  10.555  19.237  0.00  0.00    +0.000 NA
ATOM     29  C   UNL     1      47.573   9.934  20.219  0.00  0.00    +0.000 A 
ATOM     30  N   UNL     1      47.363   8.580  20.271  0.00  0.00    +0.000 N 
ATOM     31  C   UNL     1      47.716   7.730  19.251  0.00  0.00    +0.000 A 
ATOM     32  O   UNL     1      47.474   6.530  19.312  0.00  0.00    +0.000 OA
ATOM     33  C   UNL     1      48.364   8.377  18.126  0.00  0.00    +0.000 A 
ATOM     34  H   UNL     1      46.912   8.157  21.070  0.00  0.00    +0.000 HD
ENDBRANCH  21  24
ENDBRANCH  19  20
ENDBRANCH   4  19
TORSDOF 6
ENDMDL
MODEL 7
REMARK VINA RESULT:    -7.201      2.033      3.029
REMARK INTER + INTRA:         -10.873
REMARK INTER:                  -9.703
REMARK INTRA:                  -1.170
REMARK UNBOUND:                -1.147
REMARK  Name = 
REMARK  6 active torsions:
REMARK  status: ('A' for Active; 'I' for Inactive)
REMARK    1  A    between atoms: C_2  and  C_4
REMARK    2  A    between atoms: C_7  and  C_8
REMARK    3  A    between atoms: C_8  and  C_9
REMARK    4  A    between atoms: C_12  and  C_13
REMARK    5  A    between atoms: C_13  and  N_14
REMARK    6  A    between atoms: C_15  and  C_17
REMARK                            x       y       z     vdW  Elec       q    Type
REMARK                         _______ _______ _______ _____ _____    ______ ____
ROOT
ATOM      1  C   UNL     1      45.203   4.710  11.598  0.00  0.00    +0.000 A 
ATOM      2  C   UNL     1      45.770   3.843  12.543  0.00  0.00    +0.000 A 
ATOM      3  C   UNL     1      46.466   4.350  13.646  0.00  0.00    +0.000 A 
ATOM      4  C   UNL     1      46.598   5.731  13.830  0.00  0.00    +0.000 A 
ATOM      5  C   UNL     1      46.091   6.594  12.850  0.00  0.00    +0.000 A 
ATOM      6  C   UNL     1      45.392   6.090  11.750  0.00  0.00    +0.000 A 
ENDROOT
BRANCH   1   7
ATOM      7  C   UNL     1      44.352   4.170  10.470  0.00  0.00    +0.000 C 
BRANCH   7  11
ATOM      8  C   UNL     1      46.637   2.353   7.270  0.00  0.00    +0.000 A 
ATOM      9  C   UNL     1      46.467   3.741   7.311  0.00  0.00    +0.000 A 
ATOM     10  C   UNL     1      45.733   4.327   8.347  0.00  0.00    +0.000 A 
ATOM     11  C   UNL     1      45.161   3.537   9.357  0.00  0.00    +0.000 A 
ATOM     12  C   UNL     1      45.318   2.145   9.294  0.00  0.00    +0.000 A 
ATOM     13  C   UNL     1      46.048   1.555   8.257  0.00  0.00    +0.000 A 
BRANCH   8  15
ATOM     14  N   UNL     1      48.382   2.427   5.570  0.00  0.00    +0.000 N 
ATOM     15  C   UNL     1      47.414   1.686   6.192  0.00  0.00    +0.000 C 
ATOM     16  O   UNL     1      47.234   0.512   5.896  0.00  0.00    +0.000 OA
ATOM     17  H   UNL     1      48.977   1.926   4.922  0.00  0.00    +0.000 HD
ATOM     18  H   UNL     1      48.732   3.289   5.960  0.00  0.00    +0.000 HD
ENDBRANCH   8  15
ENDBRANCH   7  11
ENDBRANCH   1   7
BRANCH   4  19
ATOM     19  C   UNL     1      47.264   6.288  15.060  0.00  0.00    +0.000 C 
BRANCH  19  20
ATOM     20  N   UNL     1      48.347   5.453  15.508  0.00  0.00    +0.000 N 
ATOM     21  C   UNL     1      48.239   4.725  16.666  0.00  0.00    +0.000 C 
ATOM     22  O   UNL     1      47.210   4.718  17.336  0.00  0.00    +0.000 OA
ATOM     23  H   UNL     1      49.263   5.626  15.105  0.00  0.00    +0.000 HD
BRANCH  21  24
ATOM     24  C   UNL     1      49.397   3.904  17.037  0.00  0.00    +0.000 A 
ATOM     25  C   UNL     1      49.276   2.519  17.061  0.00  0.00    +0.000 A 
ATOM     26  S   UNL     1      50.725   1.714  17.464  0.00  0.00    +0.000 S 
ATOM     27  C   UNL     1      51.548   3.189  17.673  0.00  0.00    +0.000 A 
ATOM     28  N   UNL     1      52.855   3.211  18.057  0.00  0.00    +0.000 NA
ATOM     29  C   UNL     1      53.345   4.394  18.206  0.00  0.00    +0.000 A 
ATOM     30  N   UNL     1      52.653   5.559  18.001  0.00  0.00    +0.000 N 
ATOM     31  C   UNL     1      51.343   5.586  17.586  0.00  0.00    +0.000 A 
ATOM     32  O   UNL     1      50.767   6.646  17.370  0.00  0.00    +0.000 OA
ATOM     33  C   UNL     1      50.738   4.279  17.417  0.00  0.00    +0.000 A 
ATOM     34  H   UNL     1      53.099   6.456  18.129  0.00  0.00    +0.000 HD
ENDBRANCH  21  24
ENDBRANCH  19  20
ENDBRANCH   4  19
TORSDOF 6
ENDMDL
MODEL 8
REMARK VINA RESULT:    -7.185      4.098      8.773
REMARK INTER + INTRA:         -10.852
REMARK INTER:                  -9.808
REMARK INTRA:                  -1.044
REMARK UNBOUND:                -1.147
REMARK  Name = 
REMARK  6 active torsions:
REMARK  status: ('A' for Active; 'I' for Inactive)
REMARK    1  A    between atoms: C_2  and  C_4
REMARK    2  A    between atoms: C_7  and  C_8
REMARK    3  A    between atoms: C_8  and  C_9
REMARK    4  A    between atoms: C_12  and  C_13
REMARK    5  A    between atoms: C_13  and  N_14
REMARK    6  A    between atoms: C_15  and  C_17
REMARK                            x       y       z     vdW  Elec       q    Type
REMARK                         _______ _______ _______ _____ _____    ______ ____
ROOT
ATOM      1  C   UNL     1      49.952   5.757  17.029  0.00  0.00    +0.000 A 
ATOM      2  C   UNL     1      50.658   6.647  16.208  0.00  0.00    +0.000 A 
ATOM      3  C   UNL     1      50.072   7.165  15.048  0.00  0.00    +0.000 A 
ATOM      4  C   UNL     1      48.765   6.809  14.693  0.00  0.00    +0.000 A 
ATOM      5  C   UNL     1      48.086   5.867  15.476  0.00  0.00    +0.000 A 
ATOM      6  C   UNL     1      48.669   5.353  16.637  0.00  0.00    +0.000 A 
ENDROOT
BRANCH   1   7
ATOM      7  C   UNL     1      50.538   5.288  18.342  0.00  0.00    +0.000 C 
BRANCH   7  11
ATOM      8  C   UNL     1      52.758   1.581  18.036  0.00  0.00    +0.000 A 
ATOM      9  C   UNL     1      51.508   1.704  17.419  0.00  0.00    +0.000 A 
ATOM     10  C   UNL     1      50.795   2.903  17.514  0.00  0.00    +0.000 A 
ATOM     11  C   UNL     1      51.318   3.995  18.224  0.00  0.00    +0.000 A 
ATOM     12  C   UNL     1      52.562   3.854  18.858  0.00  0.00    +0.000 A 
ATOM     13  C   UNL     1      53.276   2.654  18.769  0.00  0.00    +0.000 A 
BRANCH   8  15
ATOM     14  N   UNL     1      53.671  -0.262  16.728  0.00  0.00    +0.000 N 
ATOM     15  C   UNL     1      53.555   0.328  17.957  0.00  0.00    +0.000 C 
ATOM     16  O   UNL     1      54.124  -0.139  18.935  0.00  0.00    +0.000 OA
ATOM     17  H   UNL     1      54.309  -1.045  16.670  0.00  0.00    +0.000 HD
ATOM     18  H   UNL     1      53.446   0.226  15.874  0.00  0.00    +0.000 HD
ENDBRANCH   8  15
ENDBRANCH   7  11
ENDBRANCH   1   7
BRANCH   4  19
ATOM     19  C   UNL     1      48.092   7.431  13.498  0.00  0.00    +0.000 C 
BRANCH  19  20
ATOM     20  N   UNL     1      47.411   6.449  12.696  0.00  0.00    +0.000 N 
ATOM     21  C   UNL     1      46.341   6.803  11.913  0.00  0.00    +0.000 C 
ATOM     22  O   UNL     1      45.954   7.966  11.828  0.00  0.00    +0.000 OA
ATOM     23  H   UNL     1      47.562   5.473  12.930  0.00  0.00    +0.000 HD
BRANCH  21  24
ATOM     24  C   UNL     1      45.714   5.732  11.132  0.00  0.00    +0.000 A 
ATOM     25  C   UNL     1      45.846   5.724   9.749  0.00  0.00    +0.000 A 
ATOM     26  S   UNL     1      45.101   4.386   8.998  0.00  0.00    +0.000 S 
ATOM     27  C   UNL     1      44.530   3.801  10.490  0.00  0.00    +0.000 A 
ATOM     28  N   UNL     1      43.774   2.668  10.554  0.00  0.00    +0.000 NA
ATOM     29  C   UNL     1      43.385   2.356  11.742  0.00  0.00    +0.000 A 
ATOM     30  N   UNL     1      43.686   3.065  12.876  0.00  0.00    +0.000 N 
ATOM     31  C   UNL     1      44.468   4.195  12.865  0.00  0.00    +0.000 A 
ATOM     32  O   UNL     1      44.753   4.780  13.903  0.00  0.00    +0.000 OA
ATOM     33  C   UNL     1      44.921   4.599  11.548  0.00  0.00    +0.000 A 
ATOM     34  H   UNL     1      43.354   2.760  13.780  0.00  0.00    +0.000 HD
ENDBRANCH  21  24
ENDBRANCH  19  20
ENDBRANCH   4  19
TORSDOF 6
ENDMDL
MODEL 9
REMARK VINA RESULT:    -7.165      3.989      5.178
REMARK INTER + INTRA:         -10.824
REMARK INTER:                  -9.648
REMARK INTRA:                  -1.177
REMARK UNBOUND:                -1.147
REMARK  Name = 
REMARK  6 active torsions:
REMARK  status: ('A' for Active; 'I' for Inactive)
REMARK    1  A    between atoms: C_2  and  C_4
REMARK    2  A    between atoms: C_7  and  C_8
REMARK    3  A    between atoms: C_8  and  C_9
REMARK    4  A    between atoms: C_12  and  C_13
REMARK    5  A    between atoms: C_13  and  N_14
REMARK    6  A    between atoms: C_15  and  C_17
REMARK                            x       y       z     vdW  Elec       q    Type
REMARK                         _______ _______ _______ _____ _____    ______ ____
ROOT
ATOM      1  C   UNL     1      44.627   5.451  11.502  0.00  0.00    +0.000 A 
ATOM      2  C   UNL     1      44.111   6.742  11.324  0.00  0.00    +0.000 A 
ATOM      3  C   UNL     1      44.771   7.853  11.860  0.00  0.00    +0.000 A 
ATOM      4  C   UNL     1      45.964   7.694  12.575  0.00  0.00    +0.000 A 
ATOM      5  C   UNL     1      46.442   6.399  12.812  0.00  0.00    +0.000 A 
ATOM      6  C   UNL     1      45.786   5.289  12.274  0.00  0.00    +0.000 A 
ENDROOT
BRANCH   1   7
ATOM      7  C   UNL     1      43.981   4.262  10.827  0.00  0.00    +0.000 C 
BRANCH   7  11
ATOM      8  C   UNL     1      46.328   2.702   7.537  0.00  0.00    +0.000 A 
ATOM      9  C   UNL     1      45.745   1.827   8.461  0.00  0.00    +0.000 A 
ATOM     10  C   UNL     1      44.984   2.332   9.519  0.00  0.00    +0.000 A 
ATOM     11  C   UNL     1      44.792   3.714   9.670  0.00  0.00    +0.000 A 
ATOM     12  C   UNL     1      45.400   4.583   8.752  0.00  0.00    +0.000 A 
ATOM     13  C   UNL     1      46.166   4.082   7.695  0.00  0.00    +0.000 A 
BRANCH   8  15
ATOM     14  N   UNL     1      47.979   1.155   6.629  0.00  0.00    +0.000 N 
ATOM     15  C   UNL     1      47.141   2.211   6.392  0.00  0.00    +0.000 C 
ATOM     16  O   UNL     1      47.039   2.695   5.273  0.00  0.00    +0.000 OA
ATOM     17  H   UNL     1      48.436   0.761   5.817  0.00  0.00    +0.000 HD
ATOM     18  H   UNL     1      47.893   0.573   7.449  0.00  0.00    +0.000 HD
ENDBRANCH   8  15
ENDBRANCH   7  11
ENDBRANCH   1   7
BRANCH   4  19
ATOM     19  C   UNL     1      46.731   8.890  13.077  0.00  0.00    +0.000 C 
BRANCH  19  20
ATOM     20  N   UNL     1      47.910   9.138  12.291  0.00  0.00    +0.000 N 
ATOM     21  C   UNL     1      48.647  10.281  12.475  0.00  0.00    +0.000 C 
ATOM     22  O   UNL     1      48.363  11.107  13.339  0.00  0.00    +0.000 OA
ATOM     23  H   UNL     1      48.022   8.599  11.438  0.00  0.00    +0.000 HD
BRANCH  21  24
ATOM     24  C   UNL     1      49.833  10.443  11.627  0.00  0.00    +0.000 A 
ATOM     25  C   UNL     1      50.134  11.693  11.099  0.00  0.00    +0.000 A 
ATOM     26  S   UNL     1      51.569  11.718  10.178  0.00  0.00    +0.000 S 
ATOM     27  C   UNL     1      51.807  10.049  10.406  0.00  0.00    +0.000 A 
ATOM     28  N   UNL     1      52.870   9.411   9.840  0.00  0.00    +0.000 NA
ATOM     29  C   UNL     1      52.912   8.144  10.069  0.00  0.00    +0.000 A 
ATOM     30  N   UNL     1      51.995   7.453  10.818  0.00  0.00    +0.000 N 
ATOM     31  C   UNL     1      50.924   8.058  11.431  0.00  0.00    +0.000 A 
ATOM     32  O   UNL     1      50.147   7.416  12.129  0.00  0.00    +0.000 OA
ATOM     33  C   UNL     1      50.821   9.485  11.192  0.00  0.00    +0.000 A 
ATOM     34  H   UNL     1      52.091   6.458  10.965  0.00  0.00    +0.000 HD
ENDBRANCH  21  24
ENDBRANCH  19  20
ENDBRANCH   4  19
TORSDOF 6
ENDMDL
