MODEL 1
REMARK VINA RESULT:    -8.486      0.000      0.000
REMARK INTER + INTRA:         -13.792
REMARK INTER:                 -12.455
REMARK INTRA:                  -1.337
REMARK UNBOUND:                -1.337
REMARK  Name = 
REMARK  9 active torsions:
REMARK  status: ('A' for Active; 'I' for Inactive)
REMARK    1  A    between atoms: C_1  and  C_2
REMARK    2  A    between atoms: C_2  and  C_3
REMARK    3  A    between atoms: C_3  and  N_4
REMARK    4  A    between atoms: C_3  and  C_12
REMARK    5  A    between atoms: N_4  and  C_5
REMARK    6  A    between atoms: C_5  and  C_6
REMARK    7  A    between atoms: C_15  and  C_16
REMARK    8  A    between atoms: C_16  and  N_17
REMARK    9  A    between atoms: C_18  and  C_20
REMARK                            x       y       z     vdW  Elec       q    Type
REMARK                         _______ _______ _______ _____ _____    ______ ____
ROOT
ATOM      1  C   UNL     1      45.443   4.406  12.262  0.00  0.00    +0.000 A 
ATOM      2  C   UNL     1      45.905   5.538  11.562  0.00  0.00    +0.000 A 
ATOM      3  C   UNL     1      46.841   6.409  12.131  0.00  0.00    +0.000 A 
ATOM      4  C   UNL     1      47.390   6.133  13.387  0.00  0.00    +0.000 A 
ATOM      5  C   UNL     1      46.960   4.993  14.074  0.00  0.00    +0.000 A 
ATOM      6  C   UNL     1      45.994   4.151  13.525  0.00  0.00    +0.000 A 
ENDROOT
BRANCH   1   7
ATOM      7  C   UNL     1      44.291   3.572  11.687  0.00  0.00    +0.000 C 
BRANCH   7   9
ATOM      8  C   UNL     1      42.434   5.422  11.835  0.00  0.00    +0.000 C 
ATOM      9  C   UNL     1      43.251   4.479  10.962  0.00  0.00    +0.000 C 
ENDBRANCH   7   9
BRANCH   7  10
ATOM     10  N   UNL     1      44.785   2.508  10.788  0.00  0.00    +0.000 NA
ATOM     11  H   UNL     1      44.446   1.610  11.125  0.00  0.00    +0.000 HD
BRANCH  10  12
ATOM     12  C   UNL     1      44.335   2.671   9.399  0.00  0.00    +0.000 C 
BRANCH  12  13
ATOM     13  C   UNL     1      45.466   2.578   8.403  0.00  0.00    +0.000 A 
ATOM     14  C   UNL     1      45.879   3.706   7.675  0.00  0.00    +0.000 A 
ATOM     15  C   UNL     1      46.945   3.618   6.776  0.00  0.00    +0.000 A 
ATOM     16  C   UNL     1      47.608   2.406   6.606  0.00  0.00    +0.000 A 
ATOM     17  C   UNL     1      47.212   1.284   7.332  0.00  0.00    +0.000 A 
ATOM     18  C   UNL     1      46.147   1.368   8.227  0.00  0.00    +0.000 A 
ENDBRANCH  12  13
ENDBRANCH  10  12
ENDBRANCH   7  10
ENDBRANCH   1   7
BRANCH   4  19
ATOM     19  C   UNL     1      48.409   7.039  14.019  0.00  0.00    +0.000 C 
BRANCH  19  20
ATOM     20  N   UNL     1      48.268   7.095  15.454  0.00  0.00    +0.000 N 
ATOM     21  C   UNL     1      49.259   6.678  16.304  0.00  0.00    +0.000 C 
ATOM     22  O   UNL     1      50.321   6.209  15.899  0.00  0.00    +0.000 OA
ATOM     23  H   UNL     1      47.340   7.282  15.818  0.00  0.00    +0.000 HD
BRANCH  21  24
ATOM     24  C   UNL     1      49.024   6.883  17.738  0.00  0.00    +0.000 A 
ATOM     25  C   UNL     1      48.956   8.173  18.243  0.00  0.00    +0.000 A 
ATOM     26  S   UNL     1      48.662   8.243  19.922  0.00  0.00    +0.000 S 
ATOM     27  C   UNL     1      48.650   6.546  20.040  0.00  0.00    +0.000 A 
ATOM     28  N   UNL     1      48.487   5.933  21.245  0.00  0.00    +0.000 NA
ATOM     29  C   UNL     1      48.530   4.645  21.195  0.00  0.00    +0.000 A 
ATOM     30  N   UNL     1      48.702   3.909  20.048  0.00  0.00    +0.000 N 
ATOM     31  C   UNL     1      48.813   4.488  18.805  0.00  0.00    +0.000 A 
ATOM     32  O   UNL     1      48.855   3.799  17.788  0.00  0.00    +0.000 OA
ATOM     33  C   UNL     1      48.828   5.937  18.812  0.00  0.00    +0.000 A 
ATOM     34  H   UNL     1      48.695   2.905  20.075  0.00  0.00    +0.000 HD
ENDBRANCH  21  24
ENDBRANCH  19  20
ENDBRANCH   4  19
TORSDOF 8
ENDMDL
MODEL 2
REMARK VINA RESULT:    -8.145      1.477      2.212
REMARK INTER + INTRA:         -13.291
REMARK INTER:                 -11.881
REMARK INTRA:                  -1.410
REMARK UNBOUND:                -1.337
REMARK  Name = 
REMARK  9 active torsions:
REMARK  status: ('A' for Active; 'I' for Inactive)
REMARK    1  A    between atoms: C_1  and  C_2
REMARK    2  A    between atoms: C_2  and  C_3
REMARK    3  A    between atoms: C_3  and  N_4
REMARK    4  A    between atoms: C_3  and  C_12
REMARK    5  A    between atoms: N_4  and  C_5
REMARK    6  A    between atoms: C_5  and  C_6
REMARK    7  A    between atoms: C_15  and  C_16
REMARK    8  A    between atoms: C_16  and  N_17
REMARK    9  A    between atoms: C_18  and  C_20
REMARK                            x       y       z     vdW  Elec       q    Type
REMARK                         _______ _______ _______ _____ _____    ______ ____
ROOT
ATOM      1  C   UNL     1      45.702   5.015  11.948  0.00  0.00    +0.000 A 
ATOM      2  C   UNL     1      46.012   4.438  13.195  0.00  0.00    +0.000 A 
ATOM      3  C   UNL     1      46.950   5.026  14.051  0.00  0.00    +0.000 A 
ATOM      4  C   UNL     1      47.553   6.241  13.711  0.00  0.00    +0.000 A 
ATOM      5  C   UNL     1      47.225   6.837  12.489  0.00  0.00    +0.000 A 
ATOM      6  C   UNL     1      46.323   6.227  11.618  0.00  0.00    +0.000 A 
ENDROOT
BRANCH   1   7
ATOM      7  C   UNL     1      44.806   4.258  10.959  0.00  0.00    +0.000 C 
BRANCH   7   9
ATOM      8  C   UNL     1      42.645   5.560  11.685  0.00  0.00    +0.000 C 
ATOM      9  C   UNL     1      43.331   4.219  11.459  0.00  0.00    +0.000 C 
ENDBRANCH   7   9
BRANCH   7  10
ATOM     10  N   UNL     1      44.890   4.833   9.599  0.00  0.00    +0.000 NA
ATOM     11  H   UNL     1      45.861   5.066   9.402  0.00  0.00    +0.000 HD
BRANCH  10  12
ATOM     12  C   UNL     1      44.424   3.912   8.554  0.00  0.00    +0.000 C 
BRANCH  12  13
ATOM     13  C   UNL     1      45.534   3.058   7.990  0.00  0.00    +0.000 A 
ATOM     14  C   UNL     1      46.474   3.596   7.095  0.00  0.00    +0.000 A 
ATOM     15  C   UNL     1      47.515   2.806   6.600  0.00  0.00    +0.000 A 
ATOM     16  C   UNL     1      47.626   1.478   7.002  0.00  0.00    +0.000 A 
ATOM     17  C   UNL     1      46.704   0.938   7.897  0.00  0.00    +0.000 A 
ATOM     18  C   UNL     1      45.664   1.723   8.390  0.00  0.00    +0.000 A 
ENDBRANCH  12  13
ENDBRANCH  10  12
ENDBRANCH   7  10
ENDBRANCH   1   7
BRANCH   4  19
ATOM     19  C   UNL     1      48.552   6.906  14.616  0.00  0.00    +0.000 C 
BRANCH  19  20
ATOM     20  N   UNL     1      48.305   6.611  16.006  0.00  0.00    +0.000 N 
ATOM     21  C   UNL     1      49.246   6.020  16.808  0.00  0.00    +0.000 C 
ATOM     22  O   UNL     1      50.352   5.683  16.389  0.00  0.00    +0.000 OA
ATOM     23  H   UNL     1      47.346   6.687  16.329  0.00  0.00    +0.000 HD
BRANCH  21  24
ATOM     24  C   UNL     1      48.900   5.868  18.226  0.00  0.00    +0.000 A 
ATOM     25  C   UNL     1      49.081   4.640  18.847  0.00  0.00    +0.000 A 
ATOM     26  S   UNL     1      48.648   4.631  20.496  0.00  0.00    +0.000 S 
ATOM     27  C   UNL     1      48.169   6.261  20.431  0.00  0.00    +0.000 A 
ATOM     28  N   UNL     1      47.645   6.878  21.526  0.00  0.00    +0.000 NA
ATOM     29  C   UNL     1      47.296   8.103  21.330  0.00  0.00    +0.000 A 
ATOM     30  N   UNL     1      47.439   8.779  20.142  0.00  0.00    +0.000 N 
ATOM     31  C   UNL     1      48.015   8.211  19.030  0.00  0.00    +0.000 A 
ATOM     32  O   UNL     1      48.227   8.876  18.018  0.00  0.00    +0.000 OA
ATOM     33  C   UNL     1      48.374   6.815  19.181  0.00  0.00    +0.000 A 
ATOM     34  H   UNL     1      47.173   9.745  20.065  0.00  0.00    +0.000 HD
ENDBRANCH  21  24
ENDBRANCH  19  20
ENDBRANCH   4  19
TORSDOF 8
ENDMDL
MODEL 3
REMARK VINA RESULT:    -8.089      1.992      2.478
REMARK INTER + INTRA:         -13.209
REMARK INTER:                 -11.662
REMARK INTRA:                  -1.547
REMARK UNBOUND:                -1.337
REMARK  Name = 
REMARK  9 active torsions:
REMARK  status: ('A' for Active; 'I' for Inactive)
REMARK    1  A    between atoms: C_1  and  C_2
REMARK    2  A    between atoms: C_2  and  C_3
REMARK    3  A    between atoms: C_3  and  N_4
REMARK    4  A    between atoms: C_3  and  C_12
REMARK    5  A    between atoms: N_4  and  C_5
REMARK    6  A    between atoms: C_5  and  C_6
REMARK    7  A    between atoms: C_15  and  C_16
REMARK    8  A    between atoms: C_16  and  N_17
REMARK    9  A    between atoms: C_18  and  C_20
REMARK                            x       y       z     vdW  Elec       q    Type
REMARK                         _______ _______ _______ _____ _____    ______ ____
ROOT
ATOM      1  C   UNL     1      45.561   4.972  12.055  0.00  0.00    +0.000 A 
ATOM      2  C   UNL     1      46.368   4.909  13.209  0.00  0.00    +0.000 A 
ATOM      3  C   UNL     1      47.451   5.778  13.383  0.00  0.00    +0.000 A 
ATOM      4  C   UNL     1      47.714   6.776  12.439  0.00  0.00    +0.000 A 
ATOM      5  C   UNL     1      46.897   6.867  11.308  0.00  0.00    +0.000 A 
ATOM      6  C   UNL     1      45.846   5.971  11.114  0.00  0.00    +0.000 A 
ENDROOT
BRANCH   1   7
ATOM      7  C   UNL     1      44.495   3.896  11.810  0.00  0.00    +0.000 C 
BRANCH   7   9
ATOM      8  C   UNL     1      42.371   5.437  11.890  0.00  0.00    +0.000 C 
ATOM      9  C   UNL     1      43.254   4.495  11.082  0.00  0.00    +0.000 C 
ENDBRANCH   7   9
BRANCH   7  10
ATOM     10  N   UNL     1      45.046   2.745  11.063  0.00  0.00    +0.000 NA
ATOM     11  H   UNL     1      44.892   1.899  11.605  0.00  0.00    +0.000 HD
BRANCH  10  12
ATOM     12  C   UNL     1      44.420   2.560   9.747  0.00  0.00    +0.000 C 
BRANCH  12  13
ATOM     13  C   UNL     1      45.425   2.538   8.620  0.00  0.00    +0.000 A 
ATOM     14  C   UNL     1      45.703   3.699   7.879  0.00  0.00    +0.000 A 
ATOM     15  C   UNL     1      46.656   3.676   6.857  0.00  0.00    +0.000 A 
ATOM     16  C   UNL     1      47.338   2.497   6.574  0.00  0.00    +0.000 A 
ATOM     17  C   UNL     1      47.077   1.343   7.310  0.00  0.00    +0.000 A 
ATOM     18  C   UNL     1      46.125   1.362   8.328  0.00  0.00    +0.000 A 
ENDBRANCH  12  13
ENDBRANCH  10  12
ENDBRANCH   7  10
ENDBRANCH   1   7
BRANCH   4  19
ATOM     19  C   UNL     1      48.859   7.736  12.604  0.00  0.00    +0.000 C 
BRANCH  19  20
ATOM     20  N   UNL     1      49.847   7.244  13.533  0.00  0.00    +0.000 N 
ATOM     21  C   UNL     1      49.987   7.758  14.796  0.00  0.00    +0.000 C 
ATOM     22  O   UNL     1      49.294   8.686  15.210  0.00  0.00    +0.000 OA
ATOM     23  H   UNL     1      50.562   6.627  13.160  0.00  0.00    +0.000 HD
BRANCH  21  24
ATOM     24  C   UNL     1      50.964   7.100  15.670  0.00  0.00    +0.000 A 
ATOM     25  C   UNL     1      52.306   7.438  15.574  0.00  0.00    +0.000 A 
ATOM     26  S   UNL     1      53.310   6.597  16.667  0.00  0.00    +0.000 S 
ATOM     27  C   UNL     1      51.988   5.724  17.286  0.00  0.00    +0.000 A 
ATOM     28  N   UNL     1      52.167   4.776  18.247  0.00  0.00    +0.000 NA
ATOM     29  C   UNL     1      51.087   4.169  18.603  0.00  0.00    +0.000 A 
ATOM     30  N   UNL     1      49.836   4.435  18.100  0.00  0.00    +0.000 N 
ATOM     31  C   UNL     1      49.604   5.422  17.171  0.00  0.00    +0.000 A 
ATOM     32  O   UNL     1      48.460   5.706  16.824  0.00  0.00    +0.000 OA
ATOM     33  C   UNL     1      50.795   6.097  16.695  0.00  0.00    +0.000 A 
ATOM     34  H   UNL     1      49.029   3.944  18.444  0.00  0.00    +0.000 HD
ENDBRANCH  21  24
ENDBRANCH  19  20
ENDBRANCH   4  19
TORSDOF 8
ENDMDL
MODEL 4
REMARK VINA RESULT:    -7.356      3.502      8.599
REMARK INTER + INTRA:         -12.133
REMARK INTER:                 -10.150
REMARK INTRA:                  -1.984
REMARK UNBOUND:                -1.337
REMARK  Name = 
REMARK  9 active torsions:
REMARK  status: ('A' for Active; 'I' for Inactive)
REMARK    1  A    between atoms: C_1  and  C_2
REMARK    2  A    between atoms: C_2  and  C_3
REMARK    3  A    between atoms: C_3  and  N_4
REMARK    4  A    between atoms: C_3  and  C_12
REMARK    5  A    between atoms: N_4  and  C_5
REMARK    6  A    between atoms: C_5  and  C_6
REMARK    7  A    between atoms: C_15  and  C_16
REMARK    8  A    between atoms: C_16  and  N_17
REMARK    9  A    between atoms: C_18  and  C_20
REMARK                            x       y       z     vdW  Elec       q    Type
REMARK                         _______ _______ _______ _____ _____    ______ ____
ROOT
ATOM      1  C   UNL     1      48.632   7.838  16.586  0.00  0.00    +0.000 A 
ATOM      2  C   UNL     1      49.050   6.757  15.785  0.00  0.00    +0.000 A 
ATOM      3  C   UNL     1      48.960   6.812  14.390  0.00  0.00    +0.000 A 
ATOM      4  C   UNL     1      48.513   7.975  13.757  0.00  0.00    +0.000 A 
ATOM      5  C   UNL     1      48.127   9.065  14.544  0.00  0.00    +0.000 A 
ATOM      6  C   UNL     1      48.175   8.993  15.935  0.00  0.00    +0.000 A 
ENDROOT
BRANCH   1   7
ATOM      7  C   UNL     1      48.577   7.682  18.111  0.00  0.00    +0.000 C 
BRANCH   7   9
ATOM      8  C   UNL     1      47.356   9.580  19.452  0.00  0.00    +0.000 C 
ATOM      9  C   UNL     1      48.643   9.069  18.817  0.00  0.00    +0.000 C 
ENDBRANCH   7   9
BRANCH   7  10
ATOM     10  N   UNL     1      47.380   6.925  18.538  0.00  0.00    +0.000 NA
ATOM     11  H   UNL     1      46.855   6.650  17.711  0.00  0.00    +0.000 HD
BRANCH  10  12
ATOM     12  C   UNL     1      47.707   5.708  19.293  0.00  0.00    +0.000 C 
BRANCH  12  13
ATOM     13  C   UNL     1      48.181   4.581  18.408  0.00  0.00    +0.000 A 
ATOM     14  C   UNL     1      49.493   4.087  18.510  0.00  0.00    +0.000 A 
ATOM     15  C   UNL     1      49.914   3.024  17.707  0.00  0.00    +0.000 A 
ATOM     16  C   UNL     1      49.027   2.446  16.803  0.00  0.00    +0.000 A 
ATOM     17  C   UNL     1      47.721   2.922  16.702  0.00  0.00    +0.000 A 
ATOM     18  C   UNL     1      47.299   3.984  17.501  0.00  0.00    +0.000 A 
ENDBRANCH  12  13
ENDBRANCH  10  12
ENDBRANCH   7  10
ENDBRANCH   1   7
BRANCH   4  19
ATOM     19  C   UNL     1      48.419   8.072  12.260  0.00  0.00    +0.000 C 
BRANCH  19  20
ATOM     20  N   UNL     1      47.695   6.963  11.689  0.00  0.00    +0.000 N 
ATOM     21  C   UNL     1      46.326   6.899  11.698  0.00  0.00    +0.000 C 
ATOM     22  O   UNL     1      45.629   7.770  12.215  0.00  0.00    +0.000 OA
ATOM     23  H   UNL     1      48.234   6.141  11.441  0.00  0.00    +0.000 HD
BRANCH  21  24
ATOM     24  C   UNL     1      45.716   5.765  10.996  0.00  0.00    +0.000 A 
ATOM     25  C   UNL     1      45.888   5.635   9.625  0.00  0.00    +0.000 A 
ATOM     26  S   UNL     1      45.132   4.258   8.961  0.00  0.00    +0.000 S 
ATOM     27  C   UNL     1      44.517   3.802  10.480  0.00  0.00    +0.000 A 
ATOM     28  N   UNL     1      43.723   2.704  10.610  0.00  0.00    +0.000 NA
ATOM     29  C   UNL     1      43.301   2.492  11.809  0.00  0.00    +0.000 A 
ATOM     30  N   UNL     1      43.615   3.266  12.900  0.00  0.00    +0.000 N 
ATOM     31  C   UNL     1      44.458   4.350  12.822  0.00  0.00    +0.000 A 
ATOM     32  O   UNL     1      44.804   4.955  13.834  0.00  0.00    +0.000 OA
ATOM     33  C   UNL     1      44.915   4.666  11.484  0.00  0.00    +0.000 A 
ATOM     34  H   UNL     1      43.275   3.027  13.815  0.00  0.00    +0.000 HD
ENDBRANCH  21  24
ENDBRANCH  19  20
ENDBRANCH   4  19
TORSDOF 8
ENDMDL
MODEL 5
REMARK VINA RESULT:    -7.278      2.332      3.329
REMARK INTER + INTRA:         -12.018
REMARK INTER:                 -10.692
REMARK INTRA:                  -1.326
REMARK UNBOUND:                -1.337
REMARK  Name = 
REMARK  9 active torsions:
REMARK  status: ('A' for Active; 'I' for Inactive)
REMARK    1  A    between atoms: C_1  and  C_2
REMARK    2  A    between atoms: C_2  and  C_3
REMARK    3  A    between atoms: C_3  and  N_4
REMARK    4  A    between atoms: C_3  and  C_12
REMARK    5  A    between atoms: N_4  and  C_5
REMARK    6  A    between atoms: C_5  and  C_6
REMARK    7  A    between atoms: C_15  and  C_16
REMARK    8  A    between atoms: C_16  and  N_17
REMARK    9  A    between atoms: C_18  and  C_20
REMARK                            x       y       z     vdW  Elec       q    Type
REMARK                         _______ _______ _______ _____ _____    ______ ____
ROOT
ATOM      1  C   UNL     1      45.787   5.882  11.720  0.00  0.00    +0.000 A 
ATOM      2  C   UNL     1      46.634   5.503  12.780  0.00  0.00    +0.000 A 
ATOM      3  C   UNL     1      47.327   6.459  13.530  0.00  0.00    +0.000 A 
ATOM      4  C   UNL     1      47.139   7.822  13.284  0.00  0.00    +0.000 A 
ATOM      5  C   UNL     1      46.273   8.208  12.256  0.00  0.00    +0.000 A 
ATOM      6  C   UNL     1      45.618   7.253  11.480  0.00  0.00    +0.000 A 
ENDROOT
BRANCH   1   7
ATOM      7  C   UNL     1      45.181   4.810  10.806  0.00  0.00    +0.000 C 
BRANCH   7   9
ATOM      8  C   UNL     1      43.359   3.721  12.351  0.00  0.00    +0.000 C 
ATOM      9  C   UNL     1      43.675   4.581  11.135  0.00  0.00    +0.000 C 
ENDBRANCH   7   9
BRANCH   7  10
ATOM     10  N   UNL     1      45.368   5.144   9.378  0.00  0.00    +0.000 NA
ATOM     11  H   UNL     1      46.363   5.154   9.172  0.00  0.00    +0.000 HD
BRANCH  10  12
ATOM     12  C   UNL     1      44.727   4.181   8.472  0.00  0.00    +0.000 C 
BRANCH  12  13
ATOM     13  C   UNL     1      45.693   3.153   7.934  0.00  0.00    +0.000 A 
ATOM     14  C   UNL     1      45.691   1.836   8.425  0.00  0.00    +0.000 A 
ATOM     15  C   UNL     1      46.568   0.884   7.901  0.00  0.00    +0.000 A 
ATOM     16  C   UNL     1      47.448   1.239   6.882  0.00  0.00    +0.000 A 
ATOM     17  C   UNL     1      47.450   2.540   6.382  0.00  0.00    +0.000 A 
ATOM     18  C   UNL     1      46.578   3.493   6.905  0.00  0.00    +0.000 A 
ENDBRANCH  12  13
ENDBRANCH  10  12
ENDBRANCH   7  10
ENDBRANCH   1   7
BRANCH   4  19
ATOM     19  C   UNL     1      47.856   8.874  14.083  0.00  0.00    +0.000 C 
BRANCH  19  20
ATOM     20  N   UNL     1      47.616   8.737  15.498  0.00  0.00    +0.000 N 
ATOM     21  C   UNL     1      48.599   8.361  16.376  0.00  0.00    +0.000 C 
ATOM     22  O   UNL     1      49.742   8.094  16.010  0.00  0.00    +0.000 OA
ATOM     23  H   UNL     1      46.648   8.751  15.804  0.00  0.00    +0.000 HD
BRANCH  21  24
ATOM     24  C   UNL     1      48.244   8.358  17.800  0.00  0.00    +0.000 A 
ATOM     25  C   UNL     1      48.311   7.173  18.519  0.00  0.00    +0.000 A 
ATOM     26  S   UNL     1      47.884   7.339  20.162  0.00  0.00    +0.000 S 
ATOM     27  C   UNL     1      47.561   8.997  19.962  0.00  0.00    +0.000 A 
ATOM     28  N   UNL     1      47.101   9.747  21.001  0.00  0.00    +0.000 NA
ATOM     29  C   UNL     1      46.867  10.980  20.704  0.00  0.00    +0.000 A 
ATOM     30  N   UNL     1      47.070  11.540  19.466  0.00  0.00    +0.000 N 
ATOM     31  C   UNL     1      47.586  10.831  18.406  0.00  0.00    +0.000 A 
ATOM     32  O   UNL     1      47.857  11.389  17.345  0.00  0.00    +0.000 OA
ATOM     33  C   UNL     1      47.813   9.425  18.672  0.00  0.00    +0.000 A 
ATOM     34  H   UNL     1      46.896  12.517  19.309  0.00  0.00    +0.000 HD
ENDBRANCH  21  24
ENDBRANCH  19  20
ENDBRANCH   4  19
TORSDOF 8
ENDMDL
MODEL 6
REMARK VINA RESULT:    -7.136      3.800      9.835
REMARK INTER + INTRA:         -11.811
REMARK INTER:                  -9.799
REMARK INTRA:                  -2.012
REMARK UNBOUND:                -1.337
REMARK  Name = 
REMARK  9 active torsions:
REMARK  status: ('A' for Active; 'I' for Inactive)
REMARK    1  A    between atoms: C_1  and  C_2
REMARK    2  A    between atoms: C_2  and  C_3
REMARK    3  A    between atoms: C_3  and  N_4
REMARK    4  A    between atoms: C_3  and  C_12
REMARK    5  A    between atoms: N_4  and  C_5
REMARK    6  A    between atoms: C_5  and  C_6
REMARK    7  A    between atoms: C_15  and  C_16
REMARK    8  A    between atoms: C_16  and  N_17
REMARK    9  A    between atoms: C_18  and  C_20
REMARK                            x       y       z     vdW  Elec       q    Type
REMARK                         _______ _______ _______ _____ _____    ______ ____
ROOT
ATOM      1  C   UNL     1      51.303   4.784  17.712  0.00  0.00    +0.000 A 
ATOM      2  C   UNL     1      50.938   3.424  17.771  0.00  0.00    +0.000 A 
ATOM      3  C   UNL     1      49.664   2.999  17.378  0.00  0.00    +0.000 A 
ATOM      4  C   UNL     1      48.746   3.912  16.850  0.00  0.00    +0.000 A 
ATOM      5  C   UNL     1      49.113   5.259  16.757  0.00  0.00    +0.000 A 
ATOM      6  C   UNL     1      50.367   5.688  17.192  0.00  0.00    +0.000 A 
ENDROOT
BRANCH   1   7
ATOM      7  C   UNL     1      52.637   5.242  18.314  0.00  0.00    +0.000 C 
BRANCH   7   9
ATOM      8  C   UNL     1      53.507   6.692  16.305  0.00  0.00    +0.000 C 
ATOM      9  C   UNL     1      53.702   5.475  17.200  0.00  0.00    +0.000 C 
ENDBRANCH   7   9
BRANCH   7  10
ATOM     10  N   UNL     1      52.470   6.451  19.149  0.00  0.00    +0.000 NA
ATOM     11  H   UNL     1      51.744   7.034  18.740  0.00  0.00    +0.000 HD
BRANCH  10  12
ATOM     12  C   UNL     1      52.082   6.146  20.533  0.00  0.00    +0.000 C 
BRANCH  12  13
ATOM     13  C   UNL     1      50.586   6.038  20.709  0.00  0.00    +0.000 A 
ATOM     14  C   UNL     1      49.741   7.105  20.365  0.00  0.00    +0.000 A 
ATOM     15  C   UNL     1      48.356   6.986  20.504  0.00  0.00    +0.000 A 
ATOM     16  C   UNL     1      47.809   5.799  20.983  0.00  0.00    +0.000 A 
ATOM     17  C   UNL     1      48.639   4.730  21.318  0.00  0.00    +0.000 A 
ATOM     18  C   UNL     1      50.021   4.848  21.182  0.00  0.00    +0.000 A 
ENDBRANCH  12  13
ENDBRANCH  10  12
ENDBRANCH   7  10
ENDBRANCH   1   7
BRANCH   4  19
ATOM     19  C   UNL     1      47.376   3.485  16.403  0.00  0.00    +0.000 C 
BRANCH  19  20
ATOM     20  N   UNL     1      46.773   4.446  15.512  0.00  0.00    +0.000 N 
ATOM     21  C   UNL     1      46.846   4.328  14.149  0.00  0.00    +0.000 C 
ATOM     22  O   UNL     1      47.450   3.409  13.598  0.00  0.00    +0.000 OA
ATOM     23  H   UNL     1      46.448   5.314  15.924  0.00  0.00    +0.000 HD
BRANCH  21  24
ATOM     24  C   UNL     1      46.105   5.319  13.362  0.00  0.00    +0.000 A 
ATOM     25  C   UNL     1      46.656   6.574  13.146  0.00  0.00    +0.000 A 
ATOM     26  S   UNL     1      45.680   7.604  12.200  0.00  0.00    +0.000 S 
ATOM     27  C   UNL     1      44.466   6.420  12.074  0.00  0.00    +0.000 A 
ATOM     28  N   UNL     1      43.305   6.680  11.413  0.00  0.00    +0.000 NA
ATOM     29  C   UNL     1      42.459   5.707  11.421  0.00  0.00    +0.000 A 
ATOM     30  N   UNL     1      42.674   4.485  12.013  0.00  0.00    +0.000 N 
ATOM     31  C   UNL     1      43.855   4.163  12.641  0.00  0.00    +0.000 A 
ATOM     32  O   UNL     1      44.056   3.027  13.064  0.00  0.00    +0.000 OA
ATOM     33  C   UNL     1      44.818   5.243  12.710  0.00  0.00    +0.000 A 
ATOM     34  H   UNL     1      41.984   3.757  11.956  0.00  0.00    +0.000 HD
ENDBRANCH  21  24
ENDBRANCH  19  20
ENDBRANCH   4  19
TORSDOF 8
ENDMDL
MODEL 7
REMARK VINA RESULT:    -7.048      3.748      9.223
REMARK INTER + INTRA:         -11.681
REMARK INTER:                  -9.252
REMARK INTRA:                  -2.429
REMARK UNBOUND:                -1.337
REMARK  Name = 
REMARK  9 active torsions:
REMARK  status: ('A' for Active; 'I' for Inactive)
REMARK    1  A    between atoms: C_1  and  C_2
REMARK    2  A    between atoms: C_2  and  C_3
REMARK    3  A    between atoms: C_3  and  N_4
REMARK    4  A    between atoms: C_3  and  C_12
REMARK    5  A    between atoms: N_4  and  C_5
REMARK    6  A    between atoms: C_5  and  C_6
REMARK    7  A    between atoms: C_15  and  C_16
REMARK    8  A    between atoms: C_16  and  N_17
REMARK    9  A    between atoms: C_18  and  C_20
REMARK                            x       y       z     vdW  Elec       q    Type
REMARK                         _______ _______ _______ _____ _____    ______ ____
ROOT
ATOM      1  C   UNL     1      50.177   5.154  19.339  0.00  0.00    +0.000 A 
ATOM      2  C   UNL     1      48.838   5.586  19.400  0.00  0.00    +0.000 A 
ATOM      3  C   UNL     1      47.871   5.072  18.530  0.00  0.00    +0.000 A 
ATOM      4  C   UNL     1      48.204   4.063  17.620  0.00  0.00    +0.000 A 
ATOM      5  C   UNL     1      49.525   3.605  17.577  0.00  0.00    +0.000 A 
ATOM      6  C   UNL     1      50.497   4.150  18.414  0.00  0.00    +0.000 A 
ENDROOT
BRANCH   1   7
ATOM      7  C   UNL     1      51.246   5.861  20.183  0.00  0.00    +0.000 C 
BRANCH   7   9
ATOM      8  C   UNL     1      53.075   4.238  21.141  0.00  0.00    +0.000 C 
ATOM      9  C   UNL     1      52.633   5.169  20.019  0.00  0.00    +0.000 C 
ENDBRANCH   7   9
BRANCH   7  10
ATOM     10  N   UNL     1      51.330   7.301  19.860  0.00  0.00    +0.000 NA
ATOM     11  H   UNL     1      51.931   7.755  20.543  0.00  0.00    +0.000 HD
BRANCH  10  12
ATOM     12  C   UNL     1      51.883   7.562  18.524  0.00  0.00    +0.000 C 
BRANCH  12  13
ATOM     13  C   UNL     1      50.813   7.768  17.479  0.00  0.00    +0.000 A 
ATOM     14  C   UNL     1      50.826   7.037  16.279  0.00  0.00    +0.000 A 
ATOM     15  C   UNL     1      49.816   7.214  15.330  0.00  0.00    +0.000 A 
ATOM     16  C   UNL     1      48.786   8.117  15.577  0.00  0.00    +0.000 A 
ATOM     17  C   UNL     1      48.758   8.839  16.769  0.00  0.00    +0.000 A 
ATOM     18  C   UNL     1      49.766   8.666  17.716  0.00  0.00    +0.000 A 
ENDBRANCH  12  13
ENDBRANCH  10  12
ENDBRANCH   7  10
ENDBRANCH   1   7
BRANCH   4  19
ATOM     19  C   UNL     1      47.185   3.478  16.683  0.00  0.00    +0.000 C 
BRANCH  19  20
ATOM     20  N   UNL     1      46.732   4.440  15.707  0.00  0.00    +0.000 N 
ATOM     21  C   UNL     1      46.766   4.189  14.360  0.00  0.00    +0.000 C 
ATOM     22  O   UNL     1      47.206   3.139  13.896  0.00  0.00    +0.000 OA
ATOM     23  H   UNL     1      46.557   5.383  16.038  0.00  0.00    +0.000 HD
BRANCH  21  24
ATOM     24  C   UNL     1      46.183   5.213  13.486  0.00  0.00    +0.000 A 
ATOM     25  C   UNL     1      46.901   6.366  13.208  0.00  0.00    +0.000 A 
ATOM     26  S   UNL     1      46.095   7.448  12.165  0.00  0.00    +0.000 S 
ATOM     27  C   UNL     1      44.738   6.426  12.074  0.00  0.00    +0.000 A 
ATOM     28  N   UNL     1      43.639   6.790  11.358  0.00  0.00    +0.000 NA
ATOM     29  C   UNL     1      42.672   5.938  11.400  0.00  0.00    +0.000 A 
ATOM     30  N   UNL     1      42.708   4.743  12.077  0.00  0.00    +0.000 N 
ATOM     31  C   UNL     1      43.818   4.313  12.765  0.00  0.00    +0.000 A 
ATOM     32  O   UNL     1      43.856   3.192  13.267  0.00  0.00    +0.000 OA
ATOM     33  C   UNL     1      44.914   5.261  12.796  0.00  0.00    +0.000 A 
ATOM     34  H   UNL     1      41.928   4.109  12.044  0.00  0.00    +0.000 HD
ENDBRANCH  21  24
ENDBRANCH  19  20
ENDBRANCH   4  19
TORSDOF 8
ENDMDL
MODEL 8
REMARK VINA RESULT:    -6.988      3.255      9.145
REMARK INTER + INTRA:         -11.594
REMARK INTER:                  -9.403
REMARK INTRA:                  -2.191
REMARK UNBOUND:                -1.337
REMARK  Name = 
REMARK  9 active torsions:
REMARK  status: ('A' for Active; 'I' for Inactive)
REMARK    1  A    between atoms: C_1  and  C_2
REMARK    2  A    between atoms: C_2  and  C_3
REMARK    3  A    between atoms: C_3  and  N_4
REMARK    4  A    between atoms: C_3  and  C_12
REMARK    5  A    between atoms: N_4  and  C_5
REMARK    6  A    between atoms: C_5  and  C_6
REMARK    7  A    between atoms: C_15  and  C_16
REMARK    8  A    between atoms: C_16  and  N_17
REMARK    9  A    between atoms: C_18  and  C_20
REMARK                            x       y       z     vdW  Elec       q    Type
REMARK                         _______ _______ _______ _____ _____    ______ ____
ROOT
ATOM      1  C   UNL     1      49.262   7.989  16.191  0.00  0.00    +0.000 A 
ATOM      2  C   UNL     1      49.732   7.002  15.303  0.00  0.00    +0.000 A 
ATOM      3  C   UNL     1      49.215   6.889  14.008  0.00  0.00    +0.000 A 
ATOM      4  C   UNL     1      48.263   7.803  13.545  0.00  0.00    +0.000 A 
ATOM      5  C   UNL     1      47.816   8.806  14.410  0.00  0.00    +0.000 A 
ATOM      6  C   UNL     1      48.299   8.890  15.715  0.00  0.00    +0.000 A 
ENDROOT
BRANCH   1   7
ATOM      7  C   UNL     1      49.718   7.976  17.656  0.00  0.00    +0.000 C 
BRANCH   7   9
ATOM      8  C   UNL     1      51.574   9.796  17.290  0.00  0.00    +0.000 C 
ATOM      9  C   UNL     1      50.339   9.347  18.060  0.00  0.00    +0.000 C 
ENDBRANCH   7   9
BRANCH   7  10
ATOM     10  N   UNL     1      48.614   7.605  18.567  0.00  0.00    +0.000 NA
ATOM     11  H   UNL     1      47.759   7.512  18.023  0.00  0.00    +0.000 HD
BRANCH  10  12
ATOM     12  C   UNL     1      48.846   6.335  19.268  0.00  0.00    +0.000 C 
BRANCH  12  13
ATOM     13  C   UNL     1      48.675   5.133  18.370  0.00  0.00    +0.000 A 
ATOM     14  C   UNL     1      49.699   4.179  18.242  0.00  0.00    +0.000 A 
ATOM     15  C   UNL     1      49.521   3.054  17.432  0.00  0.00    +0.000 A 
ATOM     16  C   UNL     1      48.320   2.875  16.751  0.00  0.00    +0.000 A 
ATOM     17  C   UNL     1      47.295   3.811  16.881  0.00  0.00    +0.000 A 
ATOM     18  C   UNL     1      47.471   4.934  17.686  0.00  0.00    +0.000 A 
ENDBRANCH  12  13
ENDBRANCH  10  12
ENDBRANCH   7  10
ENDBRANCH   1   7
BRANCH   4  19
ATOM     19  C   UNL     1      47.700   7.719  12.154  0.00  0.00    +0.000 C 
BRANCH  19  20
ATOM     20  N   UNL     1      46.971   6.493  11.938  0.00  0.00    +0.000 N 
ATOM     21  C   UNL     1      45.618   6.400  12.134  0.00  0.00    +0.000 C 
ATOM     22  O   UNL     1      44.943   7.349  12.528  0.00  0.00    +0.000 OA
ATOM     23  H   UNL     1      47.519   5.649  11.811  0.00  0.00    +0.000 HD
BRANCH  21  24
ATOM     24  C   UNL     1      44.988   5.123  11.781  0.00  0.00    +0.000 A 
ATOM     25  C   UNL     1      44.258   4.433  12.738  0.00  0.00    +0.000 A 
ATOM     26  S   UNL     1      43.577   2.977  12.168  0.00  0.00    +0.000 S 
ATOM     27  C   UNL     1      44.263   3.200  10.628  0.00  0.00    +0.000 A 
ATOM     28  N   UNL     1      44.100   2.267   9.650  0.00  0.00    +0.000 NA
ATOM     29  C   UNL     1      44.698   2.546   8.543  0.00  0.00    +0.000 A 
ATOM     30  N   UNL     1      45.433   3.685   8.315  0.00  0.00    +0.000 N 
ATOM     31  C   UNL     1      45.576   4.678   9.256  0.00  0.00    +0.000 A 
ATOM     32  O   UNL     1      46.147   5.731   8.983  0.00  0.00    +0.000 OA
ATOM     33  C   UNL     1      44.968   4.386  10.539  0.00  0.00    +0.000 A 
ATOM     34  H   UNL     1      45.850   3.856   7.416  0.00  0.00    +0.000 HD
ENDBRANCH  21  24
ENDBRANCH  19  20
ENDBRANCH   4  19
TORSDOF 8
ENDMDL
MODEL 9
REMARK VINA RESULT:    -6.734      3.491      8.886
REMARK INTER + INTRA:         -11.220
REMARK INTER:                  -8.686
REMARK INTRA:                  -2.534
REMARK UNBOUND:                -1.337
REMARK  Name = 
REMARK  9 active torsions:
REMARK  status: ('A' for Active; 'I' for Inactive)
REMARK    1  A    between atoms: C_1  and  C_2
REMARK    2  A    between atoms: C_2  and  C_3
REMARK    3  A    between atoms: C_3  and  N_4
REMARK    4  A    between atoms: C_3  and  C_12
REMARK    5  A    between atoms: N_4  and  C_5
REMARK    6  A    between atoms: C_5  and  C_6
REMARK    7  A    between atoms: C_15  and  C_16
REMARK    8  A    between atoms: C_16  and  N_17
REMARK    9  A    between atoms: C_18  and  C_20
REMARK                            x       y       z     vdW  Elec       q    Type
REMARK                         _______ _______ _______ _____ _____    ______ ____
ROOT
ATOM      1  C   UNL     1      49.559   7.585  18.489  0.00  0.00    +0.000 A 
ATOM      2  C   UNL     1      50.295   7.082  17.399  0.00  0.00    +0.000 A 
ATOM      3  C   UNL     1      49.910   7.349  16.080  0.00  0.00    +0.000 A 
ATOM      4  C   UNL     1      48.818   8.182  15.818  0.00  0.00    +0.000 A 
ATOM      5  C   UNL     1      48.102   8.713  16.896  0.00  0.00    +0.000 A 
ATOM      6  C   UNL     1      48.460   8.409  18.209  0.00  0.00    +0.000 A 
ENDROOT
BRANCH   1   7
ATOM      7  C   UNL     1      49.899   7.131  19.915  0.00  0.00    +0.000 C 
BRANCH   7   9
ATOM      8  C   UNL     1      51.291   9.292  20.449  0.00  0.00    +0.000 C 
ATOM      9  C   UNL     1      50.157   8.355  20.844  0.00  0.00    +0.000 C 
ENDBRANCH   7   9
BRANCH   7  10
ATOM     10  N   UNL     1      48.848   6.254  20.472  0.00  0.00    +0.000 NA
ATOM     11  H   UNL     1      47.972   6.448  19.993  0.00  0.00    +0.000 HD
BRANCH  10  12
ATOM     12  C   UNL     1      49.145   4.824  20.313  0.00  0.00    +0.000 C 
BRANCH  12  13
ATOM     13  C   UNL     1      48.695   4.279  18.978  0.00  0.00    +0.000 A 
ATOM     14  C   UNL     1      47.525   4.756  18.363  0.00  0.00    +0.000 A 
ATOM     15  C   UNL     1      47.131   4.266  17.115  0.00  0.00    +0.000 A 
ATOM     16  C   UNL     1      47.905   3.304  16.474  0.00  0.00    +0.000 A 
ATOM     17  C   UNL     1      49.072   2.832  17.072  0.00  0.00    +0.000 A 
ATOM     18  C   UNL     1      49.466   3.317  18.318  0.00  0.00    +0.000 A 
ENDBRANCH  12  13
ENDBRANCH  10  12
ENDBRANCH   7  10
ENDBRANCH   1   7
BRANCH   4  19
ATOM     19  C   UNL     1      48.389   8.502  14.414  0.00  0.00    +0.000 C 
BRANCH  19  20
ATOM     20  N   UNL     1      47.360   7.606  13.945  0.00  0.00    +0.000 N 
ATOM     21  C   UNL     1      47.646   6.461  13.248  0.00  0.00    +0.000 C 
ATOM     22  O   UNL     1      48.796   6.137  12.957  0.00  0.00    +0.000 OA
ATOM     23  H   UNL     1      46.403   7.942  13.988  0.00  0.00    +0.000 HD
BRANCH  21  24
ATOM     24  C   UNL     1      46.513   5.591  12.918  0.00  0.00    +0.000 A 
ATOM     25  C   UNL     1      46.594   4.231  13.182  0.00  0.00    +0.000 A 
ATOM     26  S   UNL     1      45.190   3.360  12.757  0.00  0.00    +0.000 S 
ATOM     27  C   UNL     1      44.435   4.767  12.171  0.00  0.00    +0.000 A 
ATOM     28  N   UNL     1      43.195   4.711  11.612  0.00  0.00    +0.000 NA
ATOM     29  C   UNL     1      42.754   5.843  11.182  0.00  0.00    +0.000 A 
ATOM     30  N   UNL     1      43.431   7.035  11.275  0.00  0.00    +0.000 N 
ATOM     31  C   UNL     1      44.660   7.145  11.883  0.00  0.00    +0.000 A 
ATOM     32  O   UNL     1      45.188   8.242  12.047  0.00  0.00    +0.000 OA
ATOM     33  C   UNL     1      45.226   5.890  12.334  0.00  0.00    +0.000 A 
ATOM     34  H   UNL     1      43.016   7.890  10.946  0.00  0.00    +0.000 HD
ENDBRANCH  21  24
ENDBRANCH  19  20
ENDBRANCH   4  19
TORSDOF 8
ENDMDL
