MODEL 1
REMARK VINA RESULT:    -7.731      0.000      0.000
REMARK INTER + INTRA:         -10.891
REMARK INTER:                  -9.991
REMARK INTRA:                  -0.900
REMARK UNBOUND:                -0.900
REMARK  Name = 
REMARK  5 active torsions:
REMARK  status: ('A' for Active; 'I' for Inactive)
REMARK    1  A    between atoms: C_2  and  C_4
REMARK    2  A    between atoms: C_7  and  C_8
REMARK    3  A    between atoms: C_8  and  O_9
REMARK    4  A    between atoms: O_9  and  C_10
REMARK    5  A    between atoms: C_15  and  N_16
REMARK                            x       y       z     vdW  Elec       q    Type
REMARK                         _______ _______ _______ _____ _____    ______ ____
ROOT
ATOM      1  C   UNL     1      44.857   4.406  12.166  0.00  0.00    +0.000 A 
ATOM      2  C   UNL     1      45.645   3.500  12.864  0.00  0.00    +0.000 A 
ATOM      3  C   UNL     1      46.705   3.975  13.622  0.00  0.00    +0.000 A 
ATOM      4  F   UNL     1      47.470   3.104  14.295  0.00  0.00    +0.000 F 
ATOM      5  C   UNL     1      46.990   5.335  13.705  0.00  0.00    +0.000 A 
ATOM      6  C   UNL     1      46.199   6.278  13.039  0.00  0.00    +0.000 A 
ATOM      7  C   UNL     1      45.131   5.777  12.272  0.00  0.00    +0.000 A 
ENDROOT
BRANCH   6   8
ATOM      8  N   UNL     1      46.460   7.628  13.144  0.00  0.00    +0.000 N 
ATOM      9  C   UNL     1      45.428   8.655  12.936  0.00  0.00    +0.000 C 
ATOM     10  C   UNL     1      45.833   9.622  11.802  0.00  0.00    +0.000 C 
ATOM     11  N   UNL     1      47.177  10.214  11.985  0.00  0.00    +0.000 NA
ATOM     12  C   UNL     1      48.160   9.117  12.127  0.00  0.00    +0.000 C 
ATOM     13  C   UNL     1      47.837   8.131  13.275  0.00  0.00    +0.000 C 
ATOM     14  H   UNL     1      47.171  10.741  12.858  0.00  0.00    +0.000 HD
ENDBRANCH   6   8
BRANCH   1  15
ATOM     15  O   UNL     1      43.802   4.098  11.350  0.00  0.00    +0.000 OA
BRANCH  15  16
ATOM     16  C   UNL     1      43.831   4.622  10.021  0.00  0.00    +0.000 C 
BRANCH  16  20
ATOM     17  C   UNL     1      46.647   2.571   7.576  0.00  0.00    +0.000 A 
ATOM     18  C   UNL     1      45.825   1.801   8.389  0.00  0.00    +0.000 A 
ATOM     19  C   UNL     1      44.893   2.454   9.195  0.00  0.00    +0.000 A 
ATOM     20  C   UNL     1      44.817   3.851   9.179  0.00  0.00    +0.000 A 
ATOM     21  C   UNL     1      45.669   4.526   8.305  0.00  0.00    +0.000 A 
ATOM     22  N   UNL     1      46.587   3.929   7.509  0.00  0.00    +0.000 NA
BRANCH  17  24
ATOM     23  N   UNL     1      48.710   2.686   6.285  0.00  0.00    +0.000 N 
ATOM     24  C   UNL     1      47.681   1.898   6.726  0.00  0.00    +0.000 C 
ATOM     25  O   UNL     1      47.630   0.703   6.450  0.00  0.00    +0.000 OA
ATOM     26  H   UNL     1      49.467   2.254   5.776  0.00  0.00    +0.000 HD
ATOM     27  H   UNL     1      48.792   3.639   6.618  0.00  0.00    +0.000 HD
ENDBRANCH  17  24
ENDBRANCH  16  20
ENDBRANCH  15  16
ENDBRANCH   1  15
TORSDOF 5
ENDMDL
MODEL 2
REMARK VINA RESULT:    -7.525      2.190      3.309
REMARK INTER + INTRA:         -10.624
REMARK INTER:                 -10.129
REMARK INTRA:                  -0.495
REMARK UNBOUND:                -0.900
REMARK  Name = 
REMARK  5 active torsions:
REMARK  status: ('A' for Active; 'I' for Inactive)
REMARK    1  A    between atoms: C_2  and  C_4
REMARK    2  A    between atoms: C_7  and  C_8
REMARK    3  A    between atoms: C_8  and  O_9
REMARK    4  A    between atoms: O_9  and  C_10
REMARK    5  A    between atoms: C_15  and  N_16
REMARK                            x       y       z     vdW  Elec       q    Type
REMARK                         _______ _______ _______ _____ _____    ______ ____
ROOT
ATOM      1  C   UNL     1      44.493   6.055  11.259  0.00  0.00    +0.000 A 
ATOM      2  C   UNL     1      44.313   7.430  11.329  0.00  0.00    +0.000 A 
ATOM      3  C   UNL     1      45.096   8.167  12.206  0.00  0.00    +0.000 A 
ATOM      4  F   UNL     1      44.924   9.494  12.280  0.00  0.00    +0.000 F 
ATOM      5  C   UNL     1      46.057   7.561  13.009  0.00  0.00    +0.000 A 
ATOM      6  C   UNL     1      46.285   6.181  12.942  0.00  0.00    +0.000 A 
ATOM      7  C   UNL     1      45.480   5.451  12.050  0.00  0.00    +0.000 A 
ENDROOT
BRANCH   6   8
ATOM      8  N   UNL     1      47.260   5.582  13.713  0.00  0.00    +0.000 N 
ATOM      9  C   UNL     1      47.091   4.250  14.312  0.00  0.00    +0.000 C 
ATOM     10  C   UNL     1      47.240   4.312  15.848  0.00  0.00    +0.000 C 
ATOM     11  N   UNL     1      48.490   4.967  16.292  0.00  0.00    +0.000 NA
ATOM     12  C   UNL     1      48.553   6.318  15.695  0.00  0.00    +0.000 C 
ATOM     13  C   UNL     1      48.451   6.327  14.151  0.00  0.00    +0.000 C 
ATOM     14  H   UNL     1      49.274   4.427  15.924  0.00  0.00    +0.000 HD
ENDBRANCH   6   8
BRANCH   1  15
ATOM     15  O   UNL     1      43.781   5.187  10.474  0.00  0.00    +0.000 OA
BRANCH  15  16
ATOM     16  C   UNL     1      44.116   3.802  10.565  0.00  0.00    +0.000 C 
BRANCH  16  20
ATOM     17  C   UNL     1      46.498   2.785   7.188  0.00  0.00    +0.000 A 
ATOM     18  C   UNL     1      46.121   1.754   8.038  0.00  0.00    +0.000 A 
ATOM     19  C   UNL     1      45.337   2.066   9.148  0.00  0.00    +0.000 A 
ATOM     20  C   UNL     1      44.965   3.393   9.387  0.00  0.00    +0.000 A 
ATOM     21  C   UNL     1      45.374   4.347   8.455  0.00  0.00    +0.000 A 
ATOM     22  N   UNL     1      46.136   4.084   7.367  0.00  0.00    +0.000 NA
BRANCH  17  24
ATOM     23  N   UNL     1      48.720   2.489   6.232  0.00  0.00    +0.000 N 
ATOM     24  C   UNL     1      47.370   2.483   6.007  0.00  0.00    +0.000 C 
ATOM     25  O   UNL     1      46.910   2.225   4.898  0.00  0.00    +0.000 OA
ATOM     26  H   UNL     1      49.337   2.215   5.482  0.00  0.00    +0.000 HD
ATOM     27  H   UNL     1      49.072   2.593   7.176  0.00  0.00    +0.000 HD
ENDBRANCH  17  24
ENDBRANCH  16  20
ENDBRANCH  15  16
ENDBRANCH   1  15
TORSDOF 5
ENDMDL
MODEL 3
REMARK VINA RESULT:    -7.518      2.327      3.550
REMARK INTER + INTRA:         -10.615
REMARK INTER:                  -9.889
REMARK INTRA:                  -0.726
REMARK UNBOUND:                -0.900
REMARK  Name = 
REMARK  5 active torsions:
REMARK  status: ('A' for Active; 'I' for Inactive)
REMARK    1  A    between atoms: C_2  and  C_4
REMARK    2  A    between atoms: C_7  and  C_8
REMARK    3  A    between atoms: C_8  and  O_9
REMARK    4  A    between atoms: O_9  and  C_10
REMARK    5  A    between atoms: C_15  and  N_16
REMARK                            x       y       z     vdW  Elec       q    Type
REMARK                         _______ _______ _______ _____ _____    ______ ____
ROOT
ATOM      1  C   UNL     1      45.443   4.980  12.220  0.00  0.00    +0.000 A 
ATOM      2  C   UNL     1      45.770   6.213  11.670  0.00  0.00    +0.000 A 
ATOM      3  C   UNL     1      46.729   6.995  12.298  0.00  0.00    +0.000 A 
ATOM      4  F   UNL     1      47.045   8.188  11.773  0.00  0.00    +0.000 F 
ATOM      5  C   UNL     1      47.372   6.571  13.456  0.00  0.00    +0.000 A 
ATOM      6  C   UNL     1      47.089   5.321  14.020  0.00  0.00    +0.000 A 
ATOM      7  C   UNL     1      46.112   4.544  13.372  0.00  0.00    +0.000 A 
ENDROOT
BRANCH   6   8
ATOM      8  N   UNL     1      47.748   4.883  15.149  0.00  0.00    +0.000 N 
ATOM      9  C   UNL     1      47.538   3.547  15.723  0.00  0.00    +0.000 C 
ATOM     10  C   UNL     1      47.055   3.644  17.187  0.00  0.00    +0.000 C 
ATOM     11  N   UNL     1      47.925   4.485  18.040  0.00  0.00    +0.000 NA
ATOM     12  C   UNL     1      48.036   5.825  17.424  0.00  0.00    +0.000 C 
ATOM     13  C   UNL     1      48.555   5.804  15.966  0.00  0.00    +0.000 C 
ATOM     14  H   UNL     1      48.855   4.067  18.045  0.00  0.00    +0.000 HD
ENDBRANCH   6   8
BRANCH   1  15
ATOM     15  O   UNL     1      44.499   4.110  11.745  0.00  0.00    +0.000 OA
BRANCH  15  16
ATOM     16  C   UNL     1      44.018   4.330  10.418  0.00  0.00    +0.000 C 
BRANCH  16  20
ATOM     17  C   UNL     1      46.562   2.508   7.533  0.00  0.00    +0.000 A 
ATOM     18  C   UNL     1      45.897   1.670   8.419  0.00  0.00    +0.000 A 
ATOM     19  C   UNL     1      45.056   2.247   9.369  0.00  0.00    +0.000 A 
ATOM     20  C   UNL     1      44.913   3.639   9.419  0.00  0.00    +0.000 A 
ATOM     21  C   UNL     1      45.604   4.385   8.465  0.00  0.00    +0.000 A 
ATOM     22  N   UNL     1      46.431   3.862   7.528  0.00  0.00    +0.000 NA
BRANCH  17  24
ATOM     23  N   UNL     1      48.630   2.639   6.250  0.00  0.00    +0.000 N 
ATOM     24  C   UNL     1      47.499   1.917   6.524  0.00  0.00    +0.000 C 
ATOM     25  O   UNL     1      47.286   0.837   5.980  0.00  0.00    +0.000 OA
ATOM     26  H   UNL     1      49.323   2.239   5.636  0.00  0.00    +0.000 HD
ATOM     27  H   UNL     1      48.840   3.469   6.792  0.00  0.00    +0.000 HD
ENDBRANCH  17  24
ENDBRANCH  16  20
ENDBRANCH  15  16
ENDBRANCH   1  15
TORSDOF 5
ENDMDL
MODEL 4
REMARK VINA RESULT:    -7.060      2.168      2.924
REMARK INTER + INTRA:         -10.024
REMARK INTER:                  -9.300
REMARK INTRA:                  -0.724
REMARK UNBOUND:                -0.900
REMARK  Name = 
REMARK  5 active torsions:
REMARK  status: ('A' for Active; 'I' for Inactive)
REMARK    1  A    between atoms: C_2  and  C_4
REMARK    2  A    between atoms: C_7  and  C_8
REMARK    3  A    between atoms: C_8  and  O_9
REMARK    4  A    between atoms: O_9  and  C_10
REMARK    5  A    between atoms: C_15  and  N_16
REMARK                            x       y       z     vdW  Elec       q    Type
REMARK                         _______ _______ _______ _____ _____    ______ ____
ROOT
ATOM      1  C   UNL     1      44.919   5.862  11.524  0.00  0.00    +0.000 A 
ATOM      2  C   UNL     1      43.945   6.798  11.201  0.00  0.00    +0.000 A 
ATOM      3  C   UNL     1      44.227   8.146  11.369  0.00  0.00    +0.000 A 
ATOM      4  F   UNL     1      43.289   9.053  11.060  0.00  0.00    +0.000 F 
ATOM      5  C   UNL     1      45.460   8.579  11.846  0.00  0.00    +0.000 A 
ATOM      6  C   UNL     1      46.474   7.665  12.153  0.00  0.00    +0.000 A 
ATOM      7  C   UNL     1      46.169   6.303  11.980  0.00  0.00    +0.000 A 
ENDROOT
BRANCH   6   8
ATOM      8  N   UNL     1      47.708   8.093  12.596  0.00  0.00    +0.000 N 
ATOM      9  C   UNL     1      48.828   8.367  11.683  0.00  0.00    +0.000 C 
ATOM     10  C   UNL     1      50.052   7.493  12.035  0.00  0.00    +0.000 C 
ATOM     11  N   UNL     1      50.457   7.589  13.455  0.00  0.00    +0.000 NA
ATOM     12  C   UNL     1      49.293   7.243  14.301  0.00  0.00    +0.000 C 
ATOM     13  C   UNL     1      48.041   8.110  14.030  0.00  0.00    +0.000 C 
ATOM     14  H   UNL     1      50.701   8.561  13.645  0.00  0.00    +0.000 HD
ENDBRANCH   6   8
BRANCH   1  15
ATOM     15  O   UNL     1      44.787   4.502  11.449  0.00  0.00    +0.000 OA
BRANCH  15  16
ATOM     16  C   UNL     1      44.008   3.980  10.372  0.00  0.00    +0.000 C 
BRANCH  16  20
ATOM     17  C   UNL     1      46.549   2.634   7.234  0.00  0.00    +0.000 A 
ATOM     18  C   UNL     1      46.081   1.683   8.131  0.00  0.00    +0.000 A 
ATOM     19  C   UNL     1      45.244   2.103   9.164  0.00  0.00    +0.000 A 
ATOM     20  C   UNL     1      44.910   3.457   9.283  0.00  0.00    +0.000 A 
ATOM     21  C   UNL     1      45.412   4.324   8.312  0.00  0.00    +0.000 A 
ATOM     22  N   UNL     1      46.227   3.955   7.296  0.00  0.00    +0.000 NA
BRANCH  17  24
ATOM     23  N   UNL     1      48.795   2.558   6.292  0.00  0.00    +0.000 N 
ATOM     24  C   UNL     1      47.478   2.216   6.136  0.00  0.00    +0.000 C 
ATOM     25  O   UNL     1      47.096   1.585   5.155  0.00  0.00    +0.000 OA
ATOM     26  H   UNL     1      49.465   2.227   5.613  0.00  0.00    +0.000 HD
ATOM     27  H   UNL     1      49.106   2.978   7.159  0.00  0.00    +0.000 HD
ENDBRANCH  17  24
ENDBRANCH  16  20
ENDBRANCH  15  16
ENDBRANCH   1  15
TORSDOF 5
ENDMDL
MODEL 5
REMARK VINA RESULT:    -7.040      4.820      7.673
REMARK INTER + INTRA:          -9.998
REMARK INTER:                  -9.326
REMARK INTRA:                  -0.673
REMARK UNBOUND:                -0.900
REMARK  Name = 
REMARK  5 active torsions:
REMARK  status: ('A' for Active; 'I' for Inactive)
REMARK    1  A    between atoms: C_2  and  C_4
REMARK    2  A    between atoms: C_7  and  C_8
REMARK    3  A    between atoms: C_8  and  O_9
REMARK    4  A    between atoms: O_9  and  C_10
REMARK    5  A    between atoms: C_15  and  N_16
REMARK                            x       y       z     vdW  Elec       q    Type
REMARK                         _______ _______ _______ _____ _____    ______ ____
ROOT
ATOM      1  C   UNL     1      46.748   4.673  14.058  0.00  0.00    +0.000 A 
ATOM      2  C   UNL     1      47.421   5.887  14.012  0.00  0.00    +0.000 A 
ATOM      3  C   UNL     1      47.305   6.677  12.877  0.00  0.00    +0.000 A 
ATOM      4  F   UNL     1      47.955   7.848  12.826  0.00  0.00    +0.000 F 
ATOM      5  C   UNL     1      46.528   6.283  11.792  0.00  0.00    +0.000 A 
ATOM      6  C   UNL     1      45.813   5.080  11.817  0.00  0.00    +0.000 A 
ATOM      7  C   UNL     1      45.946   4.292  12.974  0.00  0.00    +0.000 A 
ENDROOT
BRANCH   6   8
ATOM      8  N   UNL     1      45.016   4.702  10.756  0.00  0.00    +0.000 N 
ATOM      9  C   UNL     1      44.007   3.638  10.861  0.00  0.00    +0.000 C 
ATOM     10  C   UNL     1      44.281   2.516   9.836  0.00  0.00    +0.000 C 
ATOM     11  N   UNL     1      44.429   3.007   8.448  0.00  0.00    +0.000 NA
ATOM     12  C   UNL     1      45.500   4.028   8.421  0.00  0.00    +0.000 C 
ATOM     13  C   UNL     1      45.267   5.206   9.397  0.00  0.00    +0.000 C 
ATOM     14  H   UNL     1      43.556   3.465   8.184  0.00  0.00    +0.000 HD
ENDBRANCH   6   8
BRANCH   1  15
ATOM     15  O   UNL     1      46.787   3.768  15.085  0.00  0.00    +0.000 OA
BRANCH  15  16
ATOM     16  C   UNL     1      47.221   4.246  16.360  0.00  0.00    +0.000 C 
BRANCH  16  20
ATOM     17  C   UNL     1      50.855   2.283  17.388  0.00  0.00    +0.000 A 
ATOM     18  C   UNL     1      50.690   3.592  17.822  0.00  0.00    +0.000 A 
ATOM     19  C   UNL     1      49.504   4.251  17.499  0.00  0.00    +0.000 A 
ATOM     20  C   UNL     1      48.527   3.595  16.742  0.00  0.00    +0.000 A 
ATOM     21  C   UNL     1      48.782   2.272  16.382  0.00  0.00    +0.000 A 
ATOM     22  N   UNL     1      49.919   1.599  16.675  0.00  0.00    +0.000 NA
BRANCH  17  24
ATOM     23  N   UNL     1      52.414   0.473  16.912  0.00  0.00    +0.000 N 
ATOM     24  C   UNL     1      52.133   1.563  17.691  0.00  0.00    +0.000 C 
ATOM     25  O   UNL     1      52.903   1.931  18.573  0.00  0.00    +0.000 OA
ATOM     26  H   UNL     1      53.302   0.007  17.033  0.00  0.00    +0.000 HD
ATOM     27  H   UNL     1      51.823   0.255  16.119  0.00  0.00    +0.000 HD
ENDBRANCH  17  24
ENDBRANCH  16  20
ENDBRANCH  15  16
ENDBRANCH   1  15
TORSDOF 5
ENDMDL
MODEL 6
REMARK VINA RESULT:    -6.950      3.925      8.009
REMARK INTER + INTRA:          -9.882
REMARK INTER:                  -9.312
REMARK INTRA:                  -0.570
REMARK UNBOUND:                -0.900
REMARK  Name = 
REMARK  5 active torsions:
REMARK  status: ('A' for Active; 'I' for Inactive)
REMARK    1  A    between atoms: C_2  and  C_4
REMARK    2  A    between atoms: C_7  and  C_8
REMARK    3  A    between atoms: C_8  and  O_9
REMARK    4  A    between atoms: O_9  and  C_10
REMARK    5  A    between atoms: C_15  and  N_16
REMARK                            x       y       z     vdW  Elec       q    Type
REMARK                         _______ _______ _______ _____ _____    ______ ____
ROOT
ATOM      1  C   UNL     1      44.855   4.180  12.804  0.00  0.00    +0.000 A 
ATOM      2  C   UNL     1      43.725   4.975  12.950  0.00  0.00    +0.000 A 
ATOM      3  C   UNL     1      42.942   5.240  11.835  0.00  0.00    +0.000 A 
ATOM      4  F   UNL     1      41.853   6.009  11.970  0.00  0.00    +0.000 F 
ATOM      5  C   UNL     1      43.259   4.725  10.583  0.00  0.00    +0.000 A 
ATOM      6  C   UNL     1      44.373   3.896  10.406  0.00  0.00    +0.000 A 
ATOM      7  C   UNL     1      45.157   3.641  11.546  0.00  0.00    +0.000 A 
ENDROOT
BRANCH   6   8
ATOM      8  N   UNL     1      44.672   3.357   9.172  0.00  0.00    +0.000 N 
ATOM      9  C   UNL     1      44.733   1.909   8.932  0.00  0.00    +0.000 C 
ATOM     10  C   UNL     1      46.123   1.495   8.401  0.00  0.00    +0.000 C 
ATOM     11  N   UNL     1      46.559   2.273   7.220  0.00  0.00    +0.000 NA
ATOM     12  C   UNL     1      46.525   3.711   7.564  0.00  0.00    +0.000 C 
ATOM     13  C   UNL     1      45.146   4.204   8.065  0.00  0.00    +0.000 C 
ATOM     14  H   UNL     1      45.881   2.115   6.475  0.00  0.00    +0.000 HD
ENDBRANCH   6   8
BRANCH   1  15
ATOM     15  O   UNL     1      45.745   3.855  13.792  0.00  0.00    +0.000 OA
BRANCH  15  16
ATOM     16  C   UNL     1      46.874   4.714  13.961  0.00  0.00    +0.000 C 
BRANCH  16  20
ATOM     17  C   UNL     1      48.511   4.444  17.881  0.00  0.00    +0.000 A 
ATOM     18  C   UNL     1      47.872   3.319  17.375  0.00  0.00    +0.000 A 
ATOM     19  C   UNL     1      47.333   3.386  16.092  0.00  0.00    +0.000 A 
ATOM     20  C   UNL     1      47.431   4.572  15.356  0.00  0.00    +0.000 A 
ATOM     21  C   UNL     1      48.118   5.633  15.946  0.00  0.00    +0.000 A 
ATOM     22  N   UNL     1      48.654   5.608  17.190  0.00  0.00    +0.000 NA
BRANCH  17  24
ATOM     23  N   UNL     1      48.475   3.539  20.142  0.00  0.00    +0.000 N 
ATOM     24  C   UNL     1      49.069   4.412  19.271  0.00  0.00    +0.000 C 
ATOM     25  O   UNL     1      50.019   5.109  19.616  0.00  0.00    +0.000 OA
ATOM     26  H   UNL     1      48.872   3.430  21.064  0.00  0.00    +0.000 HD
ATOM     27  H   UNL     1      47.770   2.894  19.806  0.00  0.00    +0.000 HD
ENDBRANCH  17  24
ENDBRANCH  16  20
ENDBRANCH  15  16
ENDBRANCH   1  15
TORSDOF 5
ENDMDL
MODEL 7
REMARK VINA RESULT:    -6.634      1.586      2.057
REMARK INTER + INTRA:          -9.473
REMARK INTER:                  -8.707
REMARK INTRA:                  -0.766
REMARK UNBOUND:                -0.900
REMARK  Name = 
REMARK  5 active torsions:
REMARK  status: ('A' for Active; 'I' for Inactive)
REMARK    1  A    between atoms: C_2  and  C_4
REMARK    2  A    between atoms: C_7  and  C_8
REMARK    3  A    between atoms: C_8  and  O_9
REMARK    4  A    between atoms: O_9  and  C_10
REMARK    5  A    between atoms: C_15  and  N_16
REMARK                            x       y       z     vdW  Elec       q    Type
REMARK                         _______ _______ _______ _____ _____    ______ ____
ROOT
ATOM      1  C   UNL     1      45.387   5.798  11.868  0.00  0.00    +0.000 A 
ATOM      2  C   UNL     1      45.507   4.906  12.926  0.00  0.00    +0.000 A 
ATOM      3  C   UNL     1      46.592   5.023  13.783  0.00  0.00    +0.000 A 
ATOM      4  F   UNL     1      46.714   4.162  14.804  0.00  0.00    +0.000 F 
ATOM      5  C   UNL     1      47.554   6.013  13.611  0.00  0.00    +0.000 A 
ATOM      6  C   UNL     1      47.448   6.947  12.574  0.00  0.00    +0.000 A 
ATOM      7  C   UNL     1      46.344   6.811  11.713  0.00  0.00    +0.000 A 
ENDROOT
BRANCH   6   8
ATOM      8  N   UNL     1      48.382   7.950  12.420  0.00  0.00    +0.000 N 
ATOM      9  C   UNL     1      49.789   7.680  12.089  0.00  0.00    +0.000 C 
ATOM     10  C   UNL     1      50.730   8.258  13.169  0.00  0.00    +0.000 C 
ATOM     11  N   UNL     1      50.491   9.690  13.453  0.00  0.00    +0.000 NA
ATOM     12  C   UNL     1      49.072   9.865  13.833  0.00  0.00    +0.000 C 
ATOM     13  C   UNL     1      48.071   9.344  12.774  0.00  0.00    +0.000 C 
ATOM     14  H   UNL     1      50.649  10.211  12.590  0.00  0.00    +0.000 HD
ENDBRANCH   6   8
BRANCH   1  15
ATOM     15  O   UNL     1      44.401   5.796  10.919  0.00  0.00    +0.000 OA
BRANCH  15  16
ATOM     16  C   UNL     1      43.811   4.536  10.595  0.00  0.00    +0.000 C 
BRANCH  16  20
ATOM     17  C   UNL     1      46.193   2.626   7.629  0.00  0.00    +0.000 A 
ATOM     18  C   UNL     1      45.643   1.825   8.622  0.00  0.00    +0.000 A 
ATOM     19  C   UNL     1      44.856   2.431   9.600  0.00  0.00    +0.000 A 
ATOM     20  C   UNL     1      44.653   3.815   9.571  0.00  0.00    +0.000 A 
ATOM     21  C   UNL     1      45.227   4.522   8.515  0.00  0.00    +0.000 A 
ATOM     22  N   UNL     1      45.998   3.971   7.547  0.00  0.00    +0.000 NA
BRANCH  17  24
ATOM     23  N   UNL     1      47.288   0.660   6.697  0.00  0.00    +0.000 N 
ATOM     24  C   UNL     1      47.071   2.007   6.586  0.00  0.00    +0.000 C 
ATOM     25  O   UNL     1      47.560   2.656   5.665  0.00  0.00    +0.000 OA
ATOM     26  H   UNL     1      47.809   0.191   5.971  0.00  0.00    +0.000 HD
ATOM     27  H   UNL     1      46.785   0.125   7.396  0.00  0.00    +0.000 HD
ENDBRANCH  17  24
ENDBRANCH  16  20
ENDBRANCH  15  16
ENDBRANCH   1  15
TORSDOF 5
ENDMDL
MODEL 8
REMARK VINA RESULT:    -6.321      3.850      7.513
REMARK INTER + INTRA:          -9.070
REMARK INTER:                  -8.630
REMARK INTRA:                  -0.440
REMARK UNBOUND:                -0.900
REMARK  Name = 
REMARK  5 active torsions:
REMARK  status: ('A' for Active; 'I' for Inactive)
REMARK    1  A    between atoms: C_2  and  C_4
REMARK    2  A    between atoms: C_7  and  C_8
REMARK    3  A    between atoms: C_8  and  O_9
REMARK    4  A    between atoms: O_9  and  C_10
REMARK    5  A    between atoms: C_15  and  N_16
REMARK                            x       y       z     vdW  Elec       q    Type
REMARK                         _______ _______ _______ _____ _____    ______ ____
ROOT
ATOM      1  C   UNL     1      46.964   7.140  12.101  0.00  0.00    +0.000 A 
ATOM      2  C   UNL     1      46.354   8.385  12.180  0.00  0.00    +0.000 A 
ATOM      3  C   UNL     1      45.040   8.518  11.756  0.00  0.00    +0.000 A 
ATOM      4  F   UNL     1      44.448   9.718  11.828  0.00  0.00    +0.000 F 
ATOM      5  C   UNL     1      44.321   7.434  11.261  0.00  0.00    +0.000 A 
ATOM      6  C   UNL     1      44.894   6.159  11.196  0.00  0.00    +0.000 A 
ATOM      7  C   UNL     1      46.228   6.045  11.627  0.00  0.00    +0.000 A 
ENDROOT
BRANCH   6   8
ATOM      8  N   UNL     1      44.174   5.076  10.736  0.00  0.00    +0.000 N 
ATOM      9  C   UNL     1      43.112   4.436  11.526  0.00  0.00    +0.000 C 
ATOM     10  C   UNL     1      43.421   2.940  11.754  0.00  0.00    +0.000 C 
ATOM     11  N   UNL     1      43.707   2.200  10.504  0.00  0.00    +0.000 NA
ATOM     12  C   UNL     1      44.822   2.874   9.803  0.00  0.00    +0.000 C 
ATOM     13  C   UNL     1      44.562   4.370   9.504  0.00  0.00    +0.000 C 
ATOM     14  H   UNL     1      42.881   2.261   9.908  0.00  0.00    +0.000 HD
ENDBRANCH   6   8
BRANCH   1  15
ATOM     15  O   UNL     1      48.257   6.852  12.444  0.00  0.00    +0.000 OA
BRANCH  15  16
ATOM     16  C   UNL     1      48.758   7.433  13.649  0.00  0.00    +0.000 C 
BRANCH  16  20
ATOM     17  C   UNL     1      48.146   4.668  16.826  0.00  0.00    +0.000 A 
ATOM     18  C   UNL     1      48.971   5.757  17.076  0.00  0.00    +0.000 A 
ATOM     19  C   UNL     1      49.181   6.676  16.049  0.00  0.00    +0.000 A 
ATOM     20  C   UNL     1      48.577   6.478  14.802  0.00  0.00    +0.000 A 
ATOM     21  C   UNL     1      47.745   5.367  14.667  0.00  0.00    +0.000 A 
ATOM     22  N   UNL     1      47.517   4.451  15.639  0.00  0.00    +0.000 NA
BRANCH  17  24
ATOM     23  N   UNL     1      46.940   2.728  17.674  0.00  0.00    +0.000 N 
ATOM     24  C   UNL     1      47.930   3.646  17.900  0.00  0.00    +0.000 C 
ATOM     25  O   UNL     1      48.609   3.610  18.922  0.00  0.00    +0.000 OA
ATOM     26  H   UNL     1      46.816   1.976  18.336  0.00  0.00    +0.000 HD
ATOM     27  H   UNL     1      46.470   2.706  16.777  0.00  0.00    +0.000 HD
ENDBRANCH  17  24
ENDBRANCH  16  20
ENDBRANCH  15  16
ENDBRANCH   1  15
TORSDOF 5
ENDMDL
MODEL 9
REMARK VINA RESULT:    -6.306      4.704      8.611
REMARK INTER + INTRA:          -9.050
REMARK INTER:                  -8.207
REMARK INTRA:                  -0.843
REMARK UNBOUND:                -0.900
REMARK  Name = 
REMARK  5 active torsions:
REMARK  status: ('A' for Active; 'I' for Inactive)
REMARK    1  A    between atoms: C_2  and  C_4
REMARK    2  A    between atoms: C_7  and  C_8
REMARK    3  A    between atoms: C_8  and  O_9
REMARK    4  A    between atoms: O_9  and  C_10
REMARK    5  A    between atoms: C_15  and  N_16
REMARK                            x       y       z     vdW  Elec       q    Type
REMARK                         _______ _______ _______ _____ _____    ______ ____
ROOT
ATOM      1  C   UNL     1      47.955   6.916  13.599  0.00  0.00    +0.000 A 
ATOM      2  C   UNL     1      47.600   8.202  13.212  0.00  0.00    +0.000 A 
ATOM      3  C   UNL     1      46.334   8.420  12.688  0.00  0.00    +0.000 A 
ATOM      4  F   UNL     1      45.988   9.659  12.310  0.00  0.00    +0.000 F 
ATOM      5  C   UNL     1      45.415   7.385  12.548  0.00  0.00    +0.000 A 
ATOM      6  C   UNL     1      45.729   6.083  12.956  0.00  0.00    +0.000 A 
ATOM      7  C   UNL     1      47.018   5.880  13.481  0.00  0.00    +0.000 A 
ENDROOT
BRANCH   6   8
ATOM      8  N   UNL     1      44.809   5.062  12.848  0.00  0.00    +0.000 N 
ATOM      9  C   UNL     1      45.174   3.707  12.411  0.00  0.00    +0.000 C 
ATOM     10  C   UNL     1      44.372   3.296  11.157  0.00  0.00    +0.000 C 
ATOM     11  N   UNL     1      42.909   3.453  11.315  0.00  0.00    +0.000 NA
ATOM     12  C   UNL     1      42.624   4.854  11.696  0.00  0.00    +0.000 C 
ATOM     13  C   UNL     1      43.365   5.320  12.973  0.00  0.00    +0.000 C 
ATOM     14  H   UNL     1      42.612   2.854  12.086  0.00  0.00    +0.000 HD
ENDBRANCH   6   8
BRANCH   1  15
ATOM     15  O   UNL     1      49.170   6.530  14.098  0.00  0.00    +0.000 OA
BRANCH  15  16
ATOM     16  C   UNL     1      49.747   7.350  15.116  0.00  0.00    +0.000 C 
BRANCH  16  20
ATOM     17  C   UNL     1      48.616   5.818  18.922  0.00  0.00    +0.000 A 
ATOM     18  C   UNL     1      48.333   7.152  18.659  0.00  0.00    +0.000 A 
ATOM     19  C   UNL     1      48.692   7.672  17.416  0.00  0.00    +0.000 A 
ATOM     20  C   UNL     1      49.335   6.855  16.479  0.00  0.00    +0.000 A 
ATOM     21  C   UNL     1      49.546   5.523  16.834  0.00  0.00    +0.000 A 
ATOM     22  N   UNL     1      49.213   4.982  18.030  0.00  0.00    +0.000 NA
BRANCH  17  24
ATOM     23  N   UNL     1      48.527   3.908  20.432  0.00  0.00    +0.000 N 
ATOM     24  C   UNL     1      48.273   5.243  20.262  0.00  0.00    +0.000 C 
ATOM     25  O   UNL     1      47.806   5.923  21.171  0.00  0.00    +0.000 OA
ATOM     26  H   UNL     1      48.383   3.500  21.344  0.00  0.00    +0.000 HD
ATOM     27  H   UNL     1      49.015   3.393  19.709  0.00  0.00    +0.000 HD
ENDBRANCH  17  24
ENDBRANCH  16  20
ENDBRANCH  15  16
ENDBRANCH   1  15
TORSDOF 5
ENDMDL
