MODEL 1
REMARK VINA RESULT:    -7.634      0.000      0.000
REMARK INTER + INTRA:         -10.792
REMARK INTER:                  -9.865
REMARK INTRA:                  -0.927
REMARK UNBOUND:                -0.927
REMARK  Name = 
REMARK  5 active torsions:
REMARK  status: ('A' for Active; 'I' for Inactive)
REMARK    1  A    between atoms: C_2  and  C_3
REMARK    2  A    between atoms: C_6  and  N_7
REMARK    3  A    between atoms: N_7  and  C_8
REMARK    4  A    between atoms: C_8  and  C_9
REMARK    5  A    between atoms: C_14  and  N_15
REMARK                            x       y       z     vdW  Elec       q    Type
REMARK                         _______ _______ _______ _____ _____    ______ ____
ROOT
ATOM      1  C   UNL     1      45.066   6.004  11.647  0.00  0.00    +0.000 A 
ATOM      2  C   UNL     1      44.483   7.269  11.452  0.00  0.00    +0.000 A 
ATOM      3  C   UNL     1      45.159   8.428  11.821  0.00  0.00    +0.000 A 
ATOM      4  C   UNL     1      46.431   8.343  12.378  0.00  0.00    +0.000 A 
ATOM      5  F   UNL     1      47.014   9.479  12.791  0.00  0.00    +0.000 F 
ATOM      6  C   UNL     1      47.092   7.112  12.507  0.00  0.00    +0.000 A 
ATOM      7  C   UNL     1      46.396   5.965  12.092  0.00  0.00    +0.000 A 
ENDROOT
BRANCH   6   8
ATOM      8  N   UNL     1      48.341   6.929  13.092  0.00  0.00    +0.000 N 
ATOM      9  C   UNL     1      48.502   6.990  14.548  0.00  0.00    +0.000 C 
ATOM     10  C   UNL     1      49.243   8.261  15.008  0.00  0.00    +0.000 C 
ATOM     11  N   UNL     1      50.505   8.503  14.274  0.00  0.00    +0.000 NA
ATOM     12  C   UNL     1      50.189   8.581  12.832  0.00  0.00    +0.000 C 
ATOM     13  C   UNL     1      49.515   7.304  12.284  0.00  0.00    +0.000 C 
ATOM     14  H   UNL     1      51.108   7.692  14.417  0.00  0.00    +0.000 HD
ENDBRANCH   6   8
BRANCH   1  15
ATOM     15  C   UNL     1      44.227   4.733  11.551  0.00  0.00    +0.000 C 
ATOM     16  C   UNL     1      44.310   3.644  12.610  0.00  0.00    +0.000 C 
ATOM     17  C   UNL     1      43.210   4.643  12.690  0.00  0.00    +0.000 C 
BRANCH  15  18
ATOM     18  N   UNL     1      43.848   4.348  10.187  0.00  0.00    +0.000 N 
ATOM     19  H   UNL     1      42.862   4.236   9.977  0.00  0.00    +0.000 HD
BRANCH  18  23
ATOM     20  C   UNL     1      46.559   2.486   7.522  0.00  0.00    +0.000 A 
ATOM     21  C   UNL     1      45.817   1.702   8.405  0.00  0.00    +0.000 A 
ATOM     22  C   UNL     1      44.918   2.303   9.292  0.00  0.00    +0.000 A 
ATOM     23  C   UNL     1      44.706   3.688   9.284  0.00  0.00    +0.000 A 
ATOM     24  C   UNL     1      45.476   4.464   8.405  0.00  0.00    +0.000 A 
ATOM     25  C   UNL     1      46.393   3.872   7.528  0.00  0.00    +0.000 A 
BRANCH  20  27
ATOM     26  N   UNL     1      48.245   1.380   5.894  0.00  0.00    +0.000 NA
ATOM     27  C   UNL     1      47.492   1.874   6.625  0.00  0.00    +0.000 C 
ENDBRANCH  20  27
ENDBRANCH  18  23
ENDBRANCH  15  18
ENDBRANCH   1  15
TORSDOF 5
ENDMDL
MODEL 2
REMARK VINA RESULT:    -7.488      1.376      2.043
REMARK INTER + INTRA:         -10.604
REMARK INTER:                  -9.779
REMARK INTRA:                  -0.825
REMARK UNBOUND:                -0.927
REMARK  Name = 
REMARK  5 active torsions:
REMARK  status: ('A' for Active; 'I' for Inactive)
REMARK    1  A    between atoms: C_2  and  C_3
REMARK    2  A    between atoms: C_6  and  N_7
REMARK    3  A    between atoms: N_7  and  C_8
REMARK    4  A    between atoms: C_8  and  C_9
REMARK    5  A    between atoms: C_14  and  N_15
REMARK                            x       y       z     vdW  Elec       q    Type
REMARK                         _______ _______ _______ _____ _____    ______ ____
ROOT
ATOM      1  C   UNL     1      45.189   5.171  12.281  0.00  0.00    +0.000 A 
ATOM      2  C   UNL     1      45.756   4.368  13.287  0.00  0.00    +0.000 A 
ATOM      3  C   UNL     1      46.939   4.745  13.916  0.00  0.00    +0.000 A 
ATOM      4  C   UNL     1      47.567   5.934  13.559  0.00  0.00    +0.000 A 
ATOM      5  F   UNL     1      48.745   6.220  14.135  0.00  0.00    +0.000 F 
ATOM      6  C   UNL     1      46.993   6.814  12.629  0.00  0.00    +0.000 A 
ATOM      7  C   UNL     1      45.780   6.420  12.039  0.00  0.00    +0.000 A 
ENDROOT
BRANCH   6   8
ATOM      8  N   UNL     1      47.570   7.998  12.182  0.00  0.00    +0.000 N 
ATOM      9  C   UNL     1      48.830   7.979  11.431  0.00  0.00    +0.000 C 
ATOM     10  C   UNL     1      50.015   8.524  12.253  0.00  0.00    +0.000 C 
ATOM     11  N   UNL     1      49.737   9.831  12.889  0.00  0.00    +0.000 NA
ATOM     12  C   UNL     1      48.541   9.680  13.743  0.00  0.00    +0.000 C 
ATOM     13  C   UNL     1      47.290   9.212  12.967  0.00  0.00    +0.000 C 
ATOM     14  H   UNL     1      49.509  10.495  12.147  0.00  0.00    +0.000 HD
ENDBRANCH   6   8
BRANCH   1  15
ATOM     15  C   UNL     1      44.092   4.627  11.372  0.00  0.00    +0.000 C 
ATOM     16  C   UNL     1      43.259   3.416  11.766  0.00  0.00    +0.000 C 
ATOM     17  C   UNL     1      42.708   4.777  12.007  0.00  0.00    +0.000 C 
BRANCH  15  18
ATOM     18  N   UNL     1      44.284   4.901   9.943  0.00  0.00    +0.000 N 
ATOM     19  H   UNL     1      43.605   5.489   9.472  0.00  0.00    +0.000 HD
BRANCH  18  23
ATOM     20  C   UNL     1      46.698   2.553   7.379  0.00  0.00    +0.000 A 
ATOM     21  C   UNL     1      45.869   1.924   8.307  0.00  0.00    +0.000 A 
ATOM     22  C   UNL     1      45.066   2.687   9.162  0.00  0.00    +0.000 A 
ATOM     23  C   UNL     1      45.039   4.085   9.077  0.00  0.00    +0.000 A 
ATOM     24  C   UNL     1      45.894   4.702   8.152  0.00  0.00    +0.000 A 
ATOM     25  C   UNL     1      46.715   3.947   7.307  0.00  0.00    +0.000 A 
BRANCH  20  27
ATOM     26  N   UNL     1      48.212   1.148   5.813  0.00  0.00    +0.000 NA
ATOM     27  C   UNL     1      47.533   1.775   6.514  0.00  0.00    +0.000 C 
ENDBRANCH  20  27
ENDBRANCH  18  23
ENDBRANCH  15  18
ENDBRANCH   1  15
TORSDOF 5
ENDMDL
MODEL 3
REMARK VINA RESULT:    -7.022      2.092      3.534
REMARK INTER + INTRA:         -10.002
REMARK INTER:                  -9.806
REMARK INTRA:                  -0.196
REMARK UNBOUND:                -0.927
REMARK  Name = 
REMARK  5 active torsions:
REMARK  status: ('A' for Active; 'I' for Inactive)
REMARK    1  A    between atoms: C_2  and  C_3
REMARK    2  A    between atoms: C_6  and  N_7
REMARK    3  A    between atoms: N_7  and  C_8
REMARK    4  A    between atoms: C_8  and  C_9
REMARK    5  A    between atoms: C_14  and  N_15
REMARK                            x       y       z     vdW  Elec       q    Type
REMARK                         _______ _______ _______ _____ _____    ______ ____
ROOT
ATOM      1  C   UNL     1      45.157   5.997  11.906  0.00  0.00    +0.000 A 
ATOM      2  C   UNL     1      46.545   5.892  12.107  0.00  0.00    +0.000 A 
ATOM      3  C   UNL     1      47.344   7.029  12.163  0.00  0.00    +0.000 A 
ATOM      4  C   UNL     1      46.770   8.290  12.031  0.00  0.00    +0.000 A 
ATOM      5  F   UNL     1      47.587   9.354  12.012  0.00  0.00    +0.000 F 
ATOM      6  C   UNL     1      45.381   8.452  11.922  0.00  0.00    +0.000 A 
ATOM      7  C   UNL     1      44.599   7.285  11.904  0.00  0.00    +0.000 A 
ENDROOT
BRANCH   6   8
ATOM      8  N   UNL     1      44.726   9.666  11.741  0.00  0.00    +0.000 N 
ATOM      9  C   UNL     1      43.515   9.748  10.918  0.00  0.00    +0.000 C 
ATOM     10  C   UNL     1      43.758  10.472   9.579  0.00  0.00    +0.000 C 
ATOM     11  N   UNL     1      44.446  11.774   9.732  0.00  0.00    +0.000 NA
ATOM     12  C   UNL     1      45.725  11.537  10.432  0.00  0.00    +0.000 C 
ATOM     13  C   UNL     1      45.550  10.885  11.821  0.00  0.00    +0.000 C 
ATOM     14  H   UNL     1      43.866  12.362  10.331  0.00  0.00    +0.000 HD
ENDBRANCH   6   8
BRANCH   1  15
ATOM     15  C   UNL     1      44.327   4.776  11.525  0.00  0.00    +0.000 C 
ATOM     16  C   UNL     1      44.282   3.537  12.407  0.00  0.00    +0.000 C 
ATOM     17  C   UNL     1      43.187   4.538  12.517  0.00  0.00    +0.000 C 
BRANCH  15  18
ATOM     18  N   UNL     1      44.101   4.611  10.084  0.00  0.00    +0.000 N 
ATOM     19  H   UNL     1      43.148   4.661   9.740  0.00  0.00    +0.000 HD
BRANCH  18  23
ATOM     20  C   UNL     1      46.642   2.528   7.417  0.00  0.00    +0.000 A 
ATOM     21  C   UNL     1      46.647   3.923   7.421  0.00  0.00    +0.000 A 
ATOM     22  C   UNL     1      45.812   4.624   8.297  0.00  0.00    +0.000 A 
ATOM     23  C   UNL     1      44.993   3.953   9.214  0.00  0.00    +0.000 A 
ATOM     24  C   UNL     1      44.985   2.551   9.182  0.00  0.00    +0.000 A 
ATOM     25  C   UNL     1      45.803   1.841   8.295  0.00  0.00    +0.000 A 
BRANCH  20  27
ATOM     26  N   UNL     1      48.165   1.226   5.772  0.00  0.00    +0.000 NA
ATOM     27  C   UNL     1      47.484   1.807   6.510  0.00  0.00    +0.000 C 
ENDBRANCH  20  27
ENDBRANCH  18  23
ENDBRANCH  15  18
ENDBRANCH   1  15
TORSDOF 5
ENDMDL
MODEL 4
REMARK VINA RESULT:    -6.459      3.559      7.657
REMARK INTER + INTRA:          -9.274
REMARK INTER:                  -8.766
REMARK INTRA:                  -0.508
REMARK UNBOUND:                -0.927
REMARK  Name = 
REMARK  5 active torsions:
REMARK  status: ('A' for Active; 'I' for Inactive)
REMARK    1  A    between atoms: C_2  and  C_3
REMARK    2  A    between atoms: C_6  and  N_7
REMARK    3  A    between atoms: N_7  and  C_8
REMARK    4  A    between atoms: C_8  and  C_9
REMARK    5  A    between atoms: C_14  and  N_15
REMARK                            x       y       z     vdW  Elec       q    Type
REMARK                         _______ _______ _______ _____ _____    ______ ____
ROOT
ATOM      1  C   UNL     1      47.755   6.739  14.045  0.00  0.00    +0.000 A 
ATOM      2  C   UNL     1      48.144   7.359  12.844  0.00  0.00    +0.000 A 
ATOM      3  C   UNL     1      47.506   7.053  11.646  0.00  0.00    +0.000 A 
ATOM      4  C   UNL     1      46.461   6.134  11.630  0.00  0.00    +0.000 A 
ATOM      5  F   UNL     1      45.927   5.811  10.442  0.00  0.00    +0.000 F 
ATOM      6  C   UNL     1      45.975   5.559  12.813  0.00  0.00    +0.000 A 
ATOM      7  C   UNL     1      46.619   5.916  14.010  0.00  0.00    +0.000 A 
ENDROOT
BRANCH   6   8
ATOM      8  N   UNL     1      44.969   4.601  12.887  0.00  0.00    +0.000 N 
ATOM      9  C   UNL     1      45.141   3.286  12.261  0.00  0.00    +0.000 C 
ATOM     10  C   UNL     1      44.263   3.109  11.007  0.00  0.00    +0.000 C 
ATOM     11  N   UNL     1      42.844   3.466  11.228  0.00  0.00    +0.000 NA
ATOM     12  C   UNL     1      42.792   4.864  11.704  0.00  0.00    +0.000 C 
ATOM     13  C   UNL     1      43.587   5.097  13.007  0.00  0.00    +0.000 C 
ATOM     14  H   UNL     1      42.487   2.869  11.975  0.00  0.00    +0.000 HD
ENDBRANCH   6   8
BRANCH   1  15
ATOM     15  C   UNL     1      48.637   6.815  15.286  0.00  0.00    +0.000 C 
ATOM     16  C   UNL     1      50.088   7.268  15.206  0.00  0.00    +0.000 C 
ATOM     17  C   UNL     1      49.046   8.256  15.599  0.00  0.00    +0.000 C 
BRANCH  15  18
ATOM     18  N   UNL     1      48.255   5.902  16.370  0.00  0.00    +0.000 N 
ATOM     19  H   UNL     1      47.624   6.246  17.086  0.00  0.00    +0.000 HD
BRANCH  18  23
ATOM     20  C   UNL     1      50.496   2.454  17.371  0.00  0.00    +0.000 A 
ATOM     21  C   UNL     1      51.013   3.716  17.662  0.00  0.00    +0.000 A 
ATOM     22  C   UNL     1      50.284   4.865  17.336  0.00  0.00    +0.000 A 
ATOM     23  C   UNL     1      49.010   4.777  16.759  0.00  0.00    +0.000 A 
ATOM     24  C   UNL     1      48.515   3.501  16.454  0.00  0.00    +0.000 A 
ATOM     25  C   UNL     1      49.247   2.347  16.759  0.00  0.00    +0.000 A 
BRANCH  20  27
ATOM     26  N   UNL     1      51.857   0.323  17.941  0.00  0.00    +0.000 NA
ATOM     27  C   UNL     1      51.248   1.277  17.688  0.00  0.00    +0.000 C 
ENDBRANCH  20  27
ENDBRANCH  18  23
ENDBRANCH  15  18
ENDBRANCH   1  15
TORSDOF 5
ENDMDL
MODEL 5
REMARK VINA RESULT:    -5.975      4.206      8.110
REMARK INTER + INTRA:          -8.649
REMARK INTER:                  -8.161
REMARK INTRA:                  -0.488
REMARK UNBOUND:                -0.927
REMARK  Name = 
REMARK  5 active torsions:
REMARK  status: ('A' for Active; 'I' for Inactive)
REMARK    1  A    between atoms: C_2  and  C_3
REMARK    2  A    between atoms: C_6  and  N_7
REMARK    3  A    between atoms: N_7  and  C_8
REMARK    4  A    between atoms: C_8  and  C_9
REMARK    5  A    between atoms: C_14  and  N_15
REMARK                            x       y       z     vdW  Elec       q    Type
REMARK                         _______ _______ _______ _____ _____    ______ ____
ROOT
ATOM      1  C   UNL     1      45.160   8.930  11.726  0.00  0.00    +0.000 A 
ATOM      2  C   UNL     1      46.408   8.634  12.305  0.00  0.00    +0.000 A 
ATOM      3  C   UNL     1      46.761   7.322  12.602  0.00  0.00    +0.000 A 
ATOM      4  C   UNL     1      45.881   6.283  12.315  0.00  0.00    +0.000 A 
ATOM      5  F   UNL     1      46.230   5.042  12.689  0.00  0.00    +0.000 F 
ATOM      6  C   UNL     1      44.666   6.516  11.653  0.00  0.00    +0.000 A 
ATOM      7  C   UNL     1      44.356   7.849  11.335  0.00  0.00    +0.000 A 
ENDROOT
BRANCH   6   8
ATOM      8  N   UNL     1      43.709   5.548  11.367  0.00  0.00    +0.000 N 
ATOM      9  C   UNL     1      42.961   4.894  12.445  0.00  0.00    +0.000 C 
ATOM     10  C   UNL     1      43.381   3.425  12.650  0.00  0.00    +0.000 C 
ATOM     11  N   UNL     1      43.399   2.639  11.396  0.00  0.00    +0.000 NA
ATOM     12  C   UNL     1      44.311   3.311  10.447  0.00  0.00    +0.000 C 
ATOM     13  C   UNL     1      43.902   4.767  10.133  0.00  0.00    +0.000 C 
ATOM     14  H   UNL     1      42.459   2.667  10.999  0.00  0.00    +0.000 HD
ENDBRANCH   6   8
BRANCH   1  15
ATOM     15  C   UNL     1      44.633  10.360  11.692  0.00  0.00    +0.000 C 
ATOM     16  C   UNL     1      45.573  11.556  11.717  0.00  0.00    +0.000 C 
ATOM     17  C   UNL     1      45.045  11.083  10.409  0.00  0.00    +0.000 C 
BRANCH  15  18
ATOM     18  N   UNL     1      43.280  10.530  12.235  0.00  0.00    +0.000 N 
ATOM     19  H   UNL     1      43.018   9.983  13.048  0.00  0.00    +0.000 HD
BRANCH  18  23
ATOM     20  C   UNL     1      39.882  11.896  10.114  0.00  0.00    +0.000 A 
ATOM     21  C   UNL     1      40.829  12.818  10.559  0.00  0.00    +0.000 A 
ATOM     22  C   UNL     1      41.956  12.381  11.262  0.00  0.00    +0.000 A 
ATOM     23  C   UNL     1      42.185  11.018  11.493  0.00  0.00    +0.000 A 
ATOM     24  C   UNL     1      41.212  10.107  11.057  0.00  0.00    +0.000 A 
ATOM     25  C   UNL     1      40.071  10.538  10.370  0.00  0.00    +0.000 A 
BRANCH  20  27
ATOM     26  N   UNL     1      37.775  12.700   8.835  0.00  0.00    +0.000 NA
ATOM     27  C   UNL     1      38.718  12.343   9.408  0.00  0.00    +0.000 C 
ENDBRANCH  20  27
ENDBRANCH  18  23
ENDBRANCH  15  18
ENDBRANCH   1  15
TORSDOF 5
ENDMDL
MODEL 6
REMARK VINA RESULT:    -5.872      3.211      7.342
REMARK INTER + INTRA:          -8.515
REMARK INTER:                  -8.071
REMARK INTRA:                  -0.444
REMARK UNBOUND:                -0.927
REMARK  Name = 
REMARK  5 active torsions:
REMARK  status: ('A' for Active; 'I' for Inactive)
REMARK    1  A    between atoms: C_2  and  C_3
REMARK    2  A    between atoms: C_6  and  N_7
REMARK    3  A    between atoms: N_7  and  C_8
REMARK    4  A    between atoms: C_8  and  C_9
REMARK    5  A    between atoms: C_14  and  N_15
REMARK                            x       y       z     vdW  Elec       q    Type
REMARK                         _______ _______ _______ _____ _____    ______ ____
ROOT
ATOM      1  C   UNL     1      46.912   7.508  12.686  0.00  0.00    +0.000 A 
ATOM      2  C   UNL     1      47.732   6.763  13.554  0.00  0.00    +0.000 A 
ATOM      3  C   UNL     1      47.522   5.401  13.737  0.00  0.00    +0.000 A 
ATOM      4  C   UNL     1      46.499   4.756  13.046  0.00  0.00    +0.000 A 
ATOM      5  F   UNL     1      46.282   3.458  13.312  0.00  0.00    +0.000 F 
ATOM      6  C   UNL     1      45.715   5.434  12.101  0.00  0.00    +0.000 A 
ATOM      7  C   UNL     1      45.976   6.802  11.915  0.00  0.00    +0.000 A 
ENDROOT
BRANCH   6   8
ATOM      8  N   UNL     1      44.647   4.884  11.401  0.00  0.00    +0.000 N 
ATOM      9  C   UNL     1      43.496   4.319  12.114  0.00  0.00    +0.000 C 
ATOM     10  C   UNL     1      43.445   2.781  12.028  0.00  0.00    +0.000 C 
ATOM     11  N   UNL     1      43.583   2.264  10.648  0.00  0.00    +0.000 NA
ATOM     12  C   UNL     1      44.856   2.772  10.095  0.00  0.00    +0.000 C 
ATOM     13  C   UNL     1      44.943   4.314  10.075  0.00  0.00    +0.000 C 
ATOM     14  H   UNL     1      42.823   2.657  10.092  0.00  0.00    +0.000 HD
ENDBRANCH   6   8
BRANCH   1  15
ATOM     15  C   UNL     1      46.919   9.032  12.719  0.00  0.00    +0.000 C 
ATOM     16  C   UNL     1      48.106   9.811  13.267  0.00  0.00    +0.000 C 
ATOM     17  C   UNL     1      47.994   9.611  11.797  0.00  0.00    +0.000 C 
BRANCH  15  18
ATOM     18  N   UNL     1      45.591   9.652  12.789  0.00  0.00    +0.000 N 
ATOM     19  H   UNL     1      44.945   9.323  13.499  0.00  0.00    +0.000 HD
BRANCH  18  23
ATOM     20  C   UNL     1      43.570  11.597   9.619  0.00  0.00    +0.000 A 
ATOM     21  C   UNL     1      44.531  12.295  10.350  0.00  0.00    +0.000 A 
ATOM     22  C   UNL     1      45.206  11.665  11.401  0.00  0.00    +0.000 A 
ATOM     23  C   UNL     1      44.972  10.319  11.713  0.00  0.00    +0.000 A 
ATOM     24  C   UNL     1      43.987   9.639  10.981  0.00  0.00    +0.000 A 
ATOM     25  C   UNL     1      43.292  10.268   9.941  0.00  0.00    +0.000 A 
BRANCH  20  27
ATOM     26  N   UNL     1      42.298  12.771   7.690  0.00  0.00    +0.000 NA
ATOM     27  C   UNL     1      42.865  12.244   8.554  0.00  0.00    +0.000 C 
ENDBRANCH  20  27
ENDBRANCH  18  23
ENDBRANCH  15  18
ENDBRANCH   1  15
TORSDOF 5
ENDMDL
MODEL 7
REMARK VINA RESULT:    -5.790      2.711      7.931
REMARK INTER + INTRA:          -8.409
REMARK INTER:                  -7.395
REMARK INTRA:                  -1.014
REMARK UNBOUND:                -0.927
REMARK  Name = 
REMARK  5 active torsions:
REMARK  status: ('A' for Active; 'I' for Inactive)
REMARK    1  A    between atoms: C_2  and  C_3
REMARK    2  A    between atoms: C_6  and  N_7
REMARK    3  A    between atoms: N_7  and  C_8
REMARK    4  A    between atoms: C_8  and  C_9
REMARK    5  A    between atoms: C_14  and  N_15
REMARK                            x       y       z     vdW  Elec       q    Type
REMARK                         _______ _______ _______ _____ _____    ______ ____
ROOT
ATOM      1  C   UNL     1      47.568   8.113  12.595  0.00  0.00    +0.000 A 
ATOM      2  C   UNL     1      46.666   9.176  12.409  0.00  0.00    +0.000 A 
ATOM      3  C   UNL     1      45.347   8.933  12.041  0.00  0.00    +0.000 A 
ATOM      4  C   UNL     1      44.904   7.626  11.865  0.00  0.00    +0.000 A 
ATOM      5  F   UNL     1      43.646   7.441  11.434  0.00  0.00    +0.000 F 
ATOM      6  C   UNL     1      45.738   6.529  12.128  0.00  0.00    +0.000 A 
ATOM      7  C   UNL     1      47.054   6.809  12.533  0.00  0.00    +0.000 A 
ENDROOT
BRANCH   6   8
ATOM      8  N   UNL     1      45.395   5.195  11.937  0.00  0.00    +0.000 N 
ATOM      9  C   UNL     1      45.094   4.685  10.596  0.00  0.00    +0.000 C 
ATOM     10  C   UNL     1      43.595   4.377  10.404  0.00  0.00    +0.000 C 
ATOM     11  N   UNL     1      43.024   3.542  11.485  0.00  0.00    +0.000 NA
ATOM     12  C   UNL     1      43.250   4.238  12.769  0.00  0.00    +0.000 C 
ATOM     13  C   UNL     1      44.741   4.508  13.065  0.00  0.00    +0.000 C 
ATOM     14  H   UNL     1      43.547   2.666  11.509  0.00  0.00    +0.000 HD
ENDBRANCH   6   8
BRANCH   1  15
ATOM     15  C   UNL     1      49.069   8.368  12.680  0.00  0.00    +0.000 C 
ATOM     16  C   UNL     1      50.053   7.628  11.785  0.00  0.00    +0.000 C 
ATOM     17  C   UNL     1      49.609   8.992  11.392  0.00  0.00    +0.000 C 
BRANCH  15  18
ATOM     18  N   UNL     1      49.540   8.842  13.986  0.00  0.00    +0.000 N 
ATOM     19  H   UNL     1      50.421   9.343  14.025  0.00  0.00    +0.000 HD
BRANCH  18  23
ATOM     20  C   UNL     1      48.500   7.120  17.710  0.00  0.00    +0.000 A 
ATOM     21  C   UNL     1      48.173   8.451  17.455  0.00  0.00    +0.000 A 
ATOM     22  C   UNL     1      48.512   9.034  16.229  0.00  0.00    +0.000 A 
ATOM     23  C   UNL     1      49.137   8.291  15.220  0.00  0.00    +0.000 A 
ATOM     24  C   UNL     1      49.478   6.960  15.501  0.00  0.00    +0.000 A 
ATOM     25  C   UNL     1      49.161   6.374  16.733  0.00  0.00    +0.000 A 
BRANCH  20  27
ATOM     26  N   UNL     1      47.900   6.049  19.994  0.00  0.00    +0.000 NA
ATOM     27  C   UNL     1      48.170   6.526  18.971  0.00  0.00    +0.000 C 
ENDBRANCH  20  27
ENDBRANCH  18  23
ENDBRANCH  15  18
ENDBRANCH   1  15
TORSDOF 5
ENDMDL
MODEL 8
REMARK VINA RESULT:    -5.717      4.018      6.588
REMARK INTER + INTRA:          -8.315
REMARK INTER:                  -7.130
REMARK INTRA:                  -1.185
REMARK UNBOUND:                -0.927
REMARK  Name = 
REMARK  5 active torsions:
REMARK  status: ('A' for Active; 'I' for Inactive)
REMARK    1  A    between atoms: C_2  and  C_3
REMARK    2  A    between atoms: C_6  and  N_7
REMARK    3  A    between atoms: N_7  and  C_8
REMARK    4  A    between atoms: C_8  and  C_9
REMARK    5  A    between atoms: C_14  and  N_15
REMARK                            x       y       z     vdW  Elec       q    Type
REMARK                         _______ _______ _______ _____ _____    ______ ____
ROOT
ATOM      1  C   UNL     1      49.267   7.816  15.508  0.00  0.00    +0.000 A 
ATOM      2  C   UNL     1      48.712   8.935  16.155  0.00  0.00    +0.000 A 
ATOM      3  C   UNL     1      48.124   8.812  17.410  0.00  0.00    +0.000 A 
ATOM      4  C   UNL     1      48.093   7.573  18.045  0.00  0.00    +0.000 A 
ATOM      5  F   UNL     1      47.447   7.485  19.218  0.00  0.00    +0.000 F 
ATOM      6  C   UNL     1      48.714   6.448  17.483  0.00  0.00    +0.000 A 
ATOM      7  C   UNL     1      49.329   6.615  16.231  0.00  0.00    +0.000 A 
ENDROOT
BRANCH   6   8
ATOM      8  N   UNL     1      48.694   5.166  18.022  0.00  0.00    +0.000 N 
ATOM      9  C   UNL     1      49.940   4.500  18.413  0.00  0.00    +0.000 C 
ATOM     10  C   UNL     1      50.314   3.344  17.464  0.00  0.00    +0.000 C 
ATOM     11  N   UNL     1      49.201   2.399  17.221  0.00  0.00    +0.000 NA
ATOM     12  C   UNL     1      48.060   3.166  16.679  0.00  0.00    +0.000 C 
ATOM     13  C   UNL     1      47.579   4.293  17.619  0.00  0.00    +0.000 C 
ATOM     14  H   UNL     1      48.919   2.014  18.123  0.00  0.00    +0.000 HD
ENDBRANCH   6   8
BRANCH   1  15
ATOM     15  C   UNL     1      49.618   7.865  14.025  0.00  0.00    +0.000 C 
ATOM     16  C   UNL     1      49.863   9.184  13.308  0.00  0.00    +0.000 C 
ATOM     17  C   UNL     1      51.031   8.405  13.798  0.00  0.00    +0.000 C 
BRANCH  15  18
ATOM     18  N   UNL     1      49.124   6.729  13.238  0.00  0.00    +0.000 N 
ATOM     19  H   UNL     1      49.724   6.350  12.514  0.00  0.00    +0.000 HD
BRANCH  18  23
ATOM     20  C   UNL     1      45.020   5.736  12.941  0.00  0.00    +0.000 A 
ATOM     21  C   UNL     1      45.480   6.926  12.378  0.00  0.00    +0.000 A 
ATOM     22  C   UNL     1      46.834   7.267  12.469  0.00  0.00    +0.000 A 
ATOM     23  C   UNL     1      47.760   6.411  13.079  0.00  0.00    +0.000 A 
ATOM     24  C   UNL     1      47.276   5.229  13.659  0.00  0.00    +0.000 A 
ATOM     25  C   UNL     1      45.920   4.889  13.589  0.00  0.00    +0.000 A 
BRANCH  20  27
ATOM     26  N   UNL     1      42.508   5.111  12.805  0.00  0.00    +0.000 NA
ATOM     27  C   UNL     1      43.632   5.392  12.863  0.00  0.00    +0.000 C 
ENDBRANCH  20  27
ENDBRANCH  18  23
ENDBRANCH  15  18
ENDBRANCH   1  15
TORSDOF 5
ENDMDL
MODEL 9
REMARK VINA RESULT:    -5.587      3.092      5.615
REMARK INTER + INTRA:          -8.148
REMARK INTER:                  -7.686
REMARK INTRA:                  -0.461
REMARK UNBOUND:                -0.927
REMARK  Name = 
REMARK  5 active torsions:
REMARK  status: ('A' for Active; 'I' for Inactive)
REMARK    1  A    between atoms: C_2  and  C_3
REMARK    2  A    between atoms: C_6  and  N_7
REMARK    3  A    between atoms: N_7  and  C_8
REMARK    4  A    between atoms: C_8  and  C_9
REMARK    5  A    between atoms: C_14  and  N_15
REMARK                            x       y       z     vdW  Elec       q    Type
REMARK                         _______ _______ _______ _____ _____    ______ ____
ROOT
ATOM      1  C   UNL     1      48.597   7.685  15.046  0.00  0.00    +0.000 A 
ATOM      2  C   UNL     1      48.933   8.852  15.756  0.00  0.00    +0.000 A 
ATOM      3  C   UNL     1      49.162   8.810  17.127  0.00  0.00    +0.000 A 
ATOM      4  C   UNL     1      49.070   7.601  17.810  0.00  0.00    +0.000 A 
ATOM      5  F   UNL     1      49.221   7.619  19.144  0.00  0.00    +0.000 F 
ATOM      6  C   UNL     1      48.829   6.396  17.134  0.00  0.00    +0.000 A 
ATOM      7  C   UNL     1      48.638   6.469  15.744  0.00  0.00    +0.000 A 
ENDROOT
BRANCH   6   8
ATOM      8  N   UNL     1      48.678   5.152  17.739  0.00  0.00    +0.000 N 
ATOM      9  C   UNL     1      49.840   4.432  18.269  0.00  0.00    +0.000 C 
ATOM     10  C   UNL     1      50.209   3.200  17.418  0.00  0.00    +0.000 C 
ATOM     11  N   UNL     1      49.057   2.315  17.134  0.00  0.00    +0.000 NA
ATOM     12  C   UNL     1      48.019   3.119  16.456  0.00  0.00    +0.000 C 
ATOM     13  C   UNL     1      47.541   4.329  17.290  0.00  0.00    +0.000 C 
ATOM     14  H   UNL     1      48.677   2.004  18.028  0.00  0.00    +0.000 HD
ENDBRANCH   6   8
BRANCH   1  15
ATOM     15  C   UNL     1      48.036   7.765  13.630  0.00  0.00    +0.000 C 
ATOM     16  C   UNL     1      48.634   8.698  12.588  0.00  0.00    +0.000 C 
ATOM     17  C   UNL     1      49.046   7.268  12.595  0.00  0.00    +0.000 C 
BRANCH  15  18
ATOM     18  N   UNL     1      46.617   7.409  13.510  0.00  0.00    +0.000 N 
ATOM     19  H   UNL     1      45.990   7.677  14.261  0.00  0.00    +0.000 HD
BRANCH  18  23
ATOM     20  C   UNL     1      45.036   4.227  11.210  0.00  0.00    +0.000 A 
ATOM     21  C   UNL     1      45.195   5.484  10.625  0.00  0.00    +0.000 A 
ATOM     22  C   UNL     1      45.716   6.544  11.373  0.00  0.00    +0.000 A 
ATOM     23  C   UNL     1      46.130   6.364  12.699  0.00  0.00    +0.000 A 
ATOM     24  C   UNL     1      45.942   5.100  13.278  0.00  0.00    +0.000 A 
ATOM     25  C   UNL     1      45.403   4.038  12.542  0.00  0.00    +0.000 A 
BRANCH  20  27
ATOM     26  N   UNL     1      44.047   2.264   9.835  0.00  0.00    +0.000 NA
ATOM     27  C   UNL     1      44.487   3.144  10.451  0.00  0.00    +0.000 C 
ENDBRANCH  20  27
ENDBRANCH  18  23
ENDBRANCH  15  18
ENDBRANCH   1  15
TORSDOF 5
ENDMDL
