MODEL 1
REMARK VINA RESULT:    -7.115      0.000      0.000
REMARK INTER + INTRA:         -10.673
REMARK INTER:                  -9.819
REMARK INTRA:                  -0.854
REMARK UNBOUND:                -0.854
REMARK  Name = 
REMARK  7 active torsions:
REMARK  status: ('A' for Active; 'I' for Inactive)
REMARK    1  A    between atoms: N_1  and  C_2
REMARK    2  A    between atoms: C_2  and  C_3
REMARK    3  A    between atoms: C_7  and  C_8
REMARK    4  A    between atoms: C_8  and  C_9
REMARK    5  A    between atoms: C_9  and  C_10
REMARK    6  A    between atoms: C_10  and  C_11
REMARK    7  A    between atoms: C_14  and  C_15
REMARK                            x       y       z     vdW  Elec       q    Type
REMARK                         _______ _______ _______ _____ _____    ______ ____
ROOT
ATOM      1  C   UNL     1      43.724   3.710  10.964  0.00  0.00    +0.000 C 
ENDROOT
BRANCH   1   2
ATOM      2  C   UNL     1      44.113   2.509  10.103  0.00  0.00    +0.000 C 
BRANCH   2   7
ATOM      3  C   UNL     1      46.788   2.094   7.400  0.00  0.00    +0.000 A 
ATOM      4  C   UNL     1      46.988   3.429   7.025  0.00  0.00    +0.000 A 
ATOM      5  C   UNL     1      46.302   4.458   7.670  0.00  0.00    +0.000 A 
ATOM      6  C   UNL     1      45.386   4.164   8.680  0.00  0.00    +0.000 A 
ATOM      7  C   UNL     1      45.154   2.837   9.061  0.00  0.00    +0.000 A 
ATOM      8  C   UNL     1      45.877   1.812   8.431  0.00  0.00    +0.000 A 
BRANCH   3   9
ATOM      9  C   UNL     1      47.474   0.974   6.657  0.00  0.00    +0.000 C 
BRANCH   9  10
ATOM     10  N   UNL     1      48.331   1.463   5.583  0.00  0.00    +0.000 NA
ATOM     11  H   UNL     1      48.864   2.262   5.920  0.00  0.00    +0.000 HD
ATOM     12  H   UNL     1      47.740   1.809   4.829  0.00  0.00    +0.000 HD
ENDBRANCH   9  10
ENDBRANCH   3   9
ENDBRANCH   2   7
ENDBRANCH   1   2
BRANCH   1  13
ATOM     13  C   UNL     1      44.167   3.502  12.416  0.00  0.00    +0.000 C 
BRANCH  13  14
ATOM     14  C   UNL     1      45.328   4.395  12.771  0.00  0.00    +0.000 A 
ATOM     15  C   UNL     1      45.730   5.409  11.906  0.00  0.00    +0.000 A 
ATOM     16  C   UNL     1      46.832   6.189  12.252  0.00  0.00    +0.000 A 
ATOM     17  C   UNL     1      47.514   5.943  13.446  0.00  0.00    +0.000 A 
ATOM     18  C   UNL     1      47.040   4.914  14.244  0.00  0.00    +0.000 A 
ATOM     19  N   UNL     1      45.970   4.138  13.935  0.00  0.00    +0.000 NA
BRANCH  17  20
ATOM     20  C   UNL     1      48.691   6.782  13.788  0.00  0.00    +0.000 C 
ATOM     21  N   UNL     1      49.610   7.068  12.817  0.00  0.00    +0.000 N 
ATOM     22  O   UNL     1      48.847   7.220  14.921  0.00  0.00    +0.000 OA
ATOM     23  H   UNL     1      49.574   6.772  11.855  0.00  0.00    +0.000 HD
ATOM     24  H   UNL     1      50.389   7.651  13.097  0.00  0.00    +0.000 HD
ENDBRANCH  17  20
ENDBRANCH  13  14
ENDBRANCH   1  13
TORSDOF 7
ENDMDL
MODEL 2
REMARK VINA RESULT:    -7.112      3.051      6.737
REMARK INTER + INTRA:         -10.667
REMARK INTER:                  -9.947
REMARK INTRA:                  -0.720
REMARK UNBOUND:                -0.854
REMARK  Name = 
REMARK  7 active torsions:
REMARK  status: ('A' for Active; 'I' for Inactive)
REMARK    1  A    between atoms: N_1  and  C_2
REMARK    2  A    between atoms: C_2  and  C_3
REMARK    3  A    between atoms: C_7  and  C_8
REMARK    4  A    between atoms: C_8  and  C_9
REMARK    5  A    between atoms: C_9  and  C_10
REMARK    6  A    between atoms: C_10  and  C_11
REMARK    7  A    between atoms: C_14  and  C_15
REMARK                            x       y       z     vdW  Elec       q    Type
REMARK                         _______ _______ _______ _____ _____    ______ ____
ROOT
ATOM      1  C   UNL     1      43.572   3.621  11.524  0.00  0.00    +0.000 C 
ENDROOT
BRANCH   1   2
ATOM      2  C   UNL     1      43.608   4.550  12.737  0.00  0.00    +0.000 C 
BRANCH   2   7
ATOM      3  C   UNL     1      46.055   7.490  12.789  0.00  0.00    +0.000 A 
ATOM      4  C   UNL     1      47.236   6.838  13.170  0.00  0.00    +0.000 A 
ATOM      5  C   UNL     1      47.255   5.458  13.362  0.00  0.00    +0.000 A 
ATOM      6  C   UNL     1      46.087   4.712  13.203  0.00  0.00    +0.000 A 
ATOM      7  C   UNL     1      44.889   5.341  12.841  0.00  0.00    +0.000 A 
ATOM      8  C   UNL     1      44.889   6.726  12.614  0.00  0.00    +0.000 A 
BRANCH   3   9
ATOM      9  C   UNL     1      46.014   8.992  12.650  0.00  0.00    +0.000 C 
BRANCH   9  10
ATOM     10  N   UNL     1      44.665   9.527  12.791  0.00  0.00    +0.000 NA
ATOM     11  H   UNL     1      44.713  10.438  13.242  0.00  0.00    +0.000 HD
ATOM     12  H   UNL     1      44.140   8.922  13.419  0.00  0.00    +0.000 HD
ENDBRANCH   9  10
ENDBRANCH   3   9
ENDBRANCH   2   7
ENDBRANCH   1   2
BRANCH   1  13
ATOM     13  C   UNL     1      43.700   4.421  10.225  0.00  0.00    +0.000 C 
BRANCH  13  14
ATOM     14  C   UNL     1      44.704   3.795   9.290  0.00  0.00    +0.000 A 
ATOM     15  C   UNL     1      44.932   2.422   9.314  0.00  0.00    +0.000 A 
ATOM     16  C   UNL     1      45.896   1.887   8.461  0.00  0.00    +0.000 A 
ATOM     17  C   UNL     1      46.615   2.726   7.606  0.00  0.00    +0.000 A 
ATOM     18  C   UNL     1      46.318   4.079   7.651  0.00  0.00    +0.000 A 
ATOM     19  N   UNL     1      45.386   4.630   8.470  0.00  0.00    +0.000 NA
BRANCH  17  20
ATOM     20  C   UNL     1      47.643   2.133   6.714  0.00  0.00    +0.000 C 
ATOM     21  N   UNL     1      48.102   2.858   5.650  0.00  0.00    +0.000 N 
ATOM     22  O   UNL     1      48.085   1.009   6.920  0.00  0.00    +0.000 OA
ATOM     23  H   UNL     1      47.819   3.791   5.397  0.00  0.00    +0.000 HD
ATOM     24  H   UNL     1      48.809   2.414   5.077  0.00  0.00    +0.000 HD
ENDBRANCH  17  20
ENDBRANCH  13  14
ENDBRANCH   1  13
TORSDOF 7
ENDMDL
MODEL 3
REMARK VINA RESULT:    -6.961      2.949      6.589
REMARK INTER + INTRA:         -10.459
REMARK INTER:                  -9.556
REMARK INTRA:                  -0.903
REMARK UNBOUND:                -0.854
REMARK  Name = 
REMARK  7 active torsions:
REMARK  status: ('A' for Active; 'I' for Inactive)
REMARK    1  A    between atoms: N_1  and  C_2
REMARK    2  A    between atoms: C_2  and  C_3
REMARK    3  A    between atoms: C_7  and  C_8
REMARK    4  A    between atoms: C_8  and  C_9
REMARK    5  A    between atoms: C_9  and  C_10
REMARK    6  A    between atoms: C_10  and  C_11
REMARK    7  A    between atoms: C_14  and  C_15
REMARK                            x       y       z     vdW  Elec       q    Type
REMARK                         _______ _______ _______ _____ _____    ______ ____
ROOT
ATOM      1  C   UNL     1      43.569   5.262  10.492  0.00  0.00    +0.000 C 
ENDROOT
BRANCH   1   2
ATOM      2  C   UNL     1      43.669   5.766  11.931  0.00  0.00    +0.000 C 
BRANCH   2   7
ATOM      3  C   UNL     1      46.816   5.136  14.011  0.00  0.00    +0.000 A 
ATOM      4  C   UNL     1      47.757   5.887  13.294  0.00  0.00    +0.000 A 
ATOM      5  C   UNL     1      47.372   6.628  12.177  0.00  0.00    +0.000 A 
ATOM      6  C   UNL     1      46.045   6.606  11.746  0.00  0.00    +0.000 A 
ATOM      7  C   UNL     1      45.089   5.849  12.434  0.00  0.00    +0.000 A 
ATOM      8  C   UNL     1      45.480   5.137  13.578  0.00  0.00    +0.000 A 
BRANCH   3   9
ATOM      9  C   UNL     1      47.243   4.277  15.176  0.00  0.00    +0.000 C 
BRANCH   9  10
ATOM     10  N   UNL     1      47.515   5.061  16.375  0.00  0.00    +0.000 NA
ATOM     11  H   UNL     1      46.679   5.584  16.628  0.00  0.00    +0.000 HD
ATOM     12  H   UNL     1      48.230   5.752  16.155  0.00  0.00    +0.000 HD
ENDBRANCH   9  10
ENDBRANCH   3   9
ENDBRANCH   2   7
ENDBRANCH   1   2
BRANCH   1  13
ATOM     13  C   UNL     1      43.679   3.735  10.444  0.00  0.00    +0.000 C 
BRANCH  13  14
ATOM     14  C   UNL     1      44.718   3.290   9.446  0.00  0.00    +0.000 A 
ATOM     15  C   UNL     1      45.385   4.222   8.656  0.00  0.00    +0.000 A 
ATOM     16  C   UNL     1      46.310   3.768   7.717  0.00  0.00    +0.000 A 
ATOM     17  C   UNL     1      46.551   2.398   7.582  0.00  0.00    +0.000 A 
ATOM     18  C   UNL     1      45.842   1.546   8.413  0.00  0.00    +0.000 A 
ATOM     19  N   UNL     1      44.935   1.958   9.336  0.00  0.00    +0.000 NA
BRANCH  17  20
ATOM     20  C   UNL     1      47.535   1.938   6.569  0.00  0.00    +0.000 C 
ATOM     21  N   UNL     1      48.602   2.738   6.264  0.00  0.00    +0.000 N 
ATOM     22  O   UNL     1      47.406   0.857   6.008  0.00  0.00    +0.000 OA
ATOM     23  H   UNL     1      48.811   3.635   6.672  0.00  0.00    +0.000 HD
ATOM     24  H   UNL     1      49.249   2.377   5.575  0.00  0.00    +0.000 HD
ENDBRANCH  17  20
ENDBRANCH  13  14
ENDBRANCH   1  13
TORSDOF 7
ENDMDL
MODEL 4
REMARK VINA RESULT:    -6.752      2.953      6.659
REMARK INTER + INTRA:         -10.171
REMARK INTER:                  -9.558
REMARK INTRA:                  -0.613
REMARK UNBOUND:                -0.854
REMARK  Name = 
REMARK  7 active torsions:
REMARK  status: ('A' for Active; 'I' for Inactive)
REMARK    1  A    between atoms: N_1  and  C_2
REMARK    2  A    between atoms: C_2  and  C_3
REMARK    3  A    between atoms: C_7  and  C_8
REMARK    4  A    between atoms: C_8  and  C_9
REMARK    5  A    between atoms: C_9  and  C_10
REMARK    6  A    between atoms: C_10  and  C_11
REMARK    7  A    between atoms: C_14  and  C_15
REMARK                            x       y       z     vdW  Elec       q    Type
REMARK                         _______ _______ _______ _____ _____    ______ ____
ROOT
ATOM      1  C   UNL     1      44.513   4.845  11.399  0.00  0.00    +0.000 C 
ENDROOT
BRANCH   1   2
ATOM      2  C   UNL     1      45.092   6.257  11.331  0.00  0.00    +0.000 C 
BRANCH   2   7
ATOM      3  C   UNL     1      48.658   7.322  12.210  0.00  0.00    +0.000 A 
ATOM      4  C   UNL     1      48.779   6.789  13.500  0.00  0.00    +0.000 A 
ATOM      5  C   UNL     1      47.738   6.053  14.064  0.00  0.00    +0.000 A 
ATOM      6  C   UNL     1      46.551   5.862  13.356  0.00  0.00    +0.000 A 
ATOM      7  C   UNL     1      46.398   6.400  12.072  0.00  0.00    +0.000 A 
ATOM      8  C   UNL     1      47.466   7.108  11.500  0.00  0.00    +0.000 A 
BRANCH   3   9
ATOM      9  C   UNL     1      49.754   8.180  11.626  0.00  0.00    +0.000 C 
BRANCH   9  10
ATOM     10  N   UNL     1      50.996   7.440  11.432  0.00  0.00    +0.000 NA
ATOM     11  H   UNL     1      51.335   7.116  12.336  0.00  0.00    +0.000 HD
ATOM     12  H   UNL     1      51.702   8.080  11.073  0.00  0.00    +0.000 HD
ENDBRANCH   9  10
ENDBRANCH   3   9
ENDBRANCH   2   7
ENDBRANCH   1   2
BRANCH   1  13
ATOM     13  C   UNL     1      43.837   4.472  10.075  0.00  0.00    +0.000 C 
BRANCH  13  14
ATOM     14  C   UNL     1      44.786   3.745   9.158  0.00  0.00    +0.000 A 
ATOM     15  C   UNL     1      44.943   2.365   9.253  0.00  0.00    +0.000 A 
ATOM     16  C   UNL     1      45.859   1.734   8.413  0.00  0.00    +0.000 A 
ATOM     17  C   UNL     1      46.602   2.487   7.500  0.00  0.00    +0.000 A 
ATOM     18  C   UNL     1      46.378   3.854   7.476  0.00  0.00    +0.000 A 
ATOM     19  N   UNL     1      45.493   4.497   8.281  0.00  0.00    +0.000 NA
BRANCH  17  20
ATOM     20  C   UNL     1      47.579   1.792   6.623  0.00  0.00    +0.000 C 
ATOM     21  N   UNL     1      48.723   2.442   6.252  0.00  0.00    +0.000 N 
ATOM     22  O   UNL     1      47.374   0.649   6.231  0.00  0.00    +0.000 OA
ATOM     23  H   UNL     1      48.996   3.373   6.525  0.00  0.00    +0.000 HD
ATOM     24  H   UNL     1      49.361   1.923   5.662  0.00  0.00    +0.000 HD
ENDBRANCH  17  20
ENDBRANCH  13  14
ENDBRANCH   1  13
TORSDOF 7
ENDMDL
MODEL 5
REMARK VINA RESULT:    -6.060      2.321      3.940
REMARK INTER + INTRA:          -9.217
REMARK INTER:                  -8.439
REMARK INTRA:                  -0.778
REMARK UNBOUND:                -0.854
REMARK  Name = 
REMARK  7 active torsions:
REMARK  status: ('A' for Active; 'I' for Inactive)
REMARK    1  A    between atoms: N_1  and  C_2
REMARK    2  A    between atoms: C_2  and  C_3
REMARK    3  A    between atoms: C_7  and  C_8
REMARK    4  A    between atoms: C_8  and  C_9
REMARK    5  A    between atoms: C_9  and  C_10
REMARK    6  A    between atoms: C_10  and  C_11
REMARK    7  A    between atoms: C_14  and  C_15
REMARK                            x       y       z     vdW  Elec       q    Type
REMARK                         _______ _______ _______ _____ _____    ______ ____
ROOT
ATOM      1  C   UNL     1      45.923   6.810  12.618  0.00  0.00    +0.000 C 
ENDROOT
BRANCH   1   2
ATOM      2  C   UNL     1      45.516   6.825  11.145  0.00  0.00    +0.000 C 
BRANCH   2   7
ATOM      3  C   UNL     1      45.239   3.768   8.864  0.00  0.00    +0.000 A 
ATOM      4  C   UNL     1      44.535   2.886   9.695  0.00  0.00    +0.000 A 
ATOM      5  C   UNL     1      44.112   3.289  10.961  0.00  0.00    +0.000 A 
ATOM      6  C   UNL     1      44.411   4.570  11.425  0.00  0.00    +0.000 A 
ATOM      7  C   UNL     1      45.129   5.464  10.622  0.00  0.00    +0.000 A 
ATOM      8  C   UNL     1      45.518   5.061   9.334  0.00  0.00    +0.000 A 
BRANCH   3   9
ATOM      9  C   UNL     1      45.759   3.312   7.523  0.00  0.00    +0.000 C 
BRANCH   9  10
ATOM     10  N   UNL     1      46.778   4.208   6.988  0.00  0.00    +0.000 NA
ATOM     11  H   UNL     1      47.269   4.654   7.761  0.00  0.00    +0.000 HD
ATOM     12  H   UNL     1      46.315   4.955   6.473  0.00  0.00    +0.000 HD
ENDBRANCH   9  10
ENDBRANCH   3   9
ENDBRANCH   2   7
ENDBRANCH   1   2
BRANCH   1  13
ATOM     13  C   UNL     1      47.395   6.414  12.769  0.00  0.00    +0.000 C 
BRANCH  13  14
ATOM     14  C   UNL     1      47.651   5.745  14.095  0.00  0.00    +0.000 A 
ATOM     15  C   UNL     1      46.964   4.587  14.448  0.00  0.00    +0.000 A 
ATOM     16  C   UNL     1      47.200   4.020  15.699  0.00  0.00    +0.000 A 
ATOM     17  C   UNL     1      48.111   4.616  16.574  0.00  0.00    +0.000 A 
ATOM     18  C   UNL     1      48.749   5.766  16.137  0.00  0.00    +0.000 A 
ATOM     19  N   UNL     1      48.540   6.341  14.925  0.00  0.00    +0.000 NA
BRANCH  17  20
ATOM     20  C   UNL     1      48.339   3.998  17.905  0.00  0.00    +0.000 C 
ATOM     21  N   UNL     1      47.491   3.016  18.339  0.00  0.00    +0.000 N 
ATOM     22  O   UNL     1      49.273   4.352  18.615  0.00  0.00    +0.000 OA
ATOM     23  H   UNL     1      46.704   2.642  17.834  0.00  0.00    +0.000 HD
ATOM     24  H   UNL     1      47.693   2.620  19.248  0.00  0.00    +0.000 HD
ENDBRANCH  17  20
ENDBRANCH  13  14
ENDBRANCH   1  13
TORSDOF 7
ENDMDL
MODEL 6
REMARK VINA RESULT:    -6.044      2.705      4.681
REMARK INTER + INTRA:          -9.194
REMARK INTER:                  -8.077
REMARK INTRA:                  -1.117
REMARK UNBOUND:                -0.854
REMARK  Name = 
REMARK  7 active torsions:
REMARK  status: ('A' for Active; 'I' for Inactive)
REMARK    1  A    between atoms: N_1  and  C_2
REMARK    2  A    between atoms: C_2  and  C_3
REMARK    3  A    between atoms: C_7  and  C_8
REMARK    4  A    between atoms: C_8  and  C_9
REMARK    5  A    between atoms: C_9  and  C_10
REMARK    6  A    between atoms: C_10  and  C_11
REMARK    7  A    between atoms: C_14  and  C_15
REMARK                            x       y       z     vdW  Elec       q    Type
REMARK                         _______ _______ _______ _____ _____    ______ ____
ROOT
ATOM      1  C   UNL     1      46.316   7.752  12.851  0.00  0.00    +0.000 C 
ENDROOT
BRANCH   1   2
ATOM      2  C   UNL     1      45.378   7.540  11.663  0.00  0.00    +0.000 C 
BRANCH   2   7
ATOM      3  C   UNL     1      44.221   4.016  10.729  0.00  0.00    +0.000 A 
ATOM      4  C   UNL     1      43.433   3.697  11.842  0.00  0.00    +0.000 A 
ATOM      5  C   UNL     1      43.237   4.626  12.863  0.00  0.00    +0.000 A 
ATOM      6  C   UNL     1      43.849   5.878  12.798  0.00  0.00    +0.000 A 
ATOM      7  C   UNL     1      44.657   6.215  11.705  0.00  0.00    +0.000 A 
ATOM      8  C   UNL     1      44.817   5.286  10.665  0.00  0.00    +0.000 A 
BRANCH   3   9
ATOM      9  C   UNL     1      44.493   2.988   9.658  0.00  0.00    +0.000 C 
BRANCH   9  10
ATOM     10  N   UNL     1      44.341   3.532   8.313  0.00  0.00    +0.000 NA
ATOM     11  H   UNL     1      44.030   2.792   7.687  0.00  0.00    +0.000 HD
ATOM     12  H   UNL     1      45.256   3.827   7.977  0.00  0.00    +0.000 HD
ENDBRANCH   9  10
ENDBRANCH   3   9
ENDBRANCH   2   7
ENDBRANCH   1   2
BRANCH   1  13
ATOM     13  C   UNL     1      47.522   6.813  12.762  0.00  0.00    +0.000 C 
BRANCH  13  14
ATOM     14  C   UNL     1      47.619   5.925  13.976  0.00  0.00    +0.000 A 
ATOM     15  C   UNL     1      46.913   4.726  14.032  0.00  0.00    +0.000 A 
ATOM     16  C   UNL     1      46.997   3.951  15.188  0.00  0.00    +0.000 A 
ATOM     17  C   UNL     1      47.777   4.384  16.263  0.00  0.00    +0.000 A 
ATOM     18  C   UNL     1      48.444   5.590  16.116  0.00  0.00    +0.000 A 
ATOM     19  N   UNL     1      48.382   6.366  15.003  0.00  0.00    +0.000 NA
BRANCH  17  20
ATOM     20  C   UNL     1      47.842   3.545  17.487  0.00  0.00    +0.000 C 
ATOM     21  N   UNL     1      46.847   2.640  17.730  0.00  0.00    +0.000 N 
ATOM     22  O   UNL     1      48.774   3.650  18.276  0.00  0.00    +0.000 OA
ATOM     23  H   UNL     1      46.045   2.463  17.145  0.00  0.00    +0.000 HD
ATOM     24  H   UNL     1      46.941   2.086  18.572  0.00  0.00    +0.000 HD
ENDBRANCH  17  20
ENDBRANCH  13  14
ENDBRANCH   1  13
TORSDOF 7
ENDMDL
MODEL 7
REMARK VINA RESULT:    -5.944      3.099      4.888
REMARK INTER + INTRA:          -9.057
REMARK INTER:                  -8.506
REMARK INTRA:                  -0.551
REMARK UNBOUND:                -0.854
REMARK  Name = 
REMARK  7 active torsions:
REMARK  status: ('A' for Active; 'I' for Inactive)
REMARK    1  A    between atoms: N_1  and  C_2
REMARK    2  A    between atoms: C_2  and  C_3
REMARK    3  A    between atoms: C_7  and  C_8
REMARK    4  A    between atoms: C_8  and  C_9
REMARK    5  A    between atoms: C_9  and  C_10
REMARK    6  A    between atoms: C_10  and  C_11
REMARK    7  A    between atoms: C_14  and  C_15
REMARK                            x       y       z     vdW  Elec       q    Type
REMARK                         _______ _______ _______ _____ _____    ______ ____
ROOT
ATOM      1  C   UNL     1      47.957   6.637  12.155  0.00  0.00    +0.000 C 
ENDROOT
BRANCH   1   2
ATOM      2  C   UNL     1      46.522   6.966  11.742  0.00  0.00    +0.000 C 
BRANCH   2   7
ATOM      3  C   UNL     1      44.269   3.902  11.340  0.00  0.00    +0.000 A 
ATOM      4  C   UNL     1      44.342   3.705   9.954  0.00  0.00    +0.000 A 
ATOM      5  C   UNL     1      45.148   4.522   9.163  0.00  0.00    +0.000 A 
ATOM      6  C   UNL     1      45.870   5.566   9.742  0.00  0.00    +0.000 A 
ATOM      7  C   UNL     1      45.800   5.796  11.121  0.00  0.00    +0.000 A 
ATOM      8  C   UNL     1      45.015   4.944  11.914  0.00  0.00    +0.000 A 
BRANCH   3   9
ATOM      9  C   UNL     1      43.343   3.066  12.189  0.00  0.00    +0.000 C 
BRANCH   9  10
ATOM     10  N   UNL     1      43.037   1.778  11.575  0.00  0.00    +0.000 NA
ATOM     11  H   UNL     1      42.327   1.911  10.858  0.00  0.00    +0.000 HD
ATOM     12  H   UNL     1      42.624   1.173  12.281  0.00  0.00    +0.000 HD
ENDBRANCH   9  10
ENDBRANCH   3   9
ENDBRANCH   2   7
ENDBRANCH   1   2
BRANCH   1  13
ATOM     13  C   UNL     1      48.265   7.206  13.543  0.00  0.00    +0.000 C 
BRANCH  13  14
ATOM     14  C   UNL     1      48.103   6.159  14.615  0.00  0.00    +0.000 A 
ATOM     15  C   UNL     1      47.214   5.101  14.442  0.00  0.00    +0.000 A 
ATOM     16  C   UNL     1      47.063   4.175  15.473  0.00  0.00    +0.000 A 
ATOM     17  C   UNL     1      47.795   4.320  16.654  0.00  0.00    +0.000 A 
ATOM     18  C   UNL     1      48.656   5.403  16.735  0.00  0.00    +0.000 A 
ATOM     19  N   UNL     1      48.824   6.321  15.749  0.00  0.00    +0.000 NA
BRANCH  17  20
ATOM     20  C   UNL     1      47.609   3.325  17.741  0.00  0.00    +0.000 C 
ATOM     21  N   UNL     1      48.497   3.299  18.780  0.00  0.00    +0.000 N 
ATOM     22  O   UNL     1      46.674   2.534  17.720  0.00  0.00    +0.000 OA
ATOM     23  H   UNL     1      49.290   3.909  18.903  0.00  0.00    +0.000 HD
ATOM     24  H   UNL     1      48.323   2.609  19.500  0.00  0.00    +0.000 HD
ENDBRANCH  17  20
ENDBRANCH  13  14
ENDBRANCH   1  13
TORSDOF 7
ENDMDL
MODEL 8
REMARK VINA RESULT:    -5.905      4.363      8.060
REMARK INTER + INTRA:          -9.003
REMARK INTER:                  -8.480
REMARK INTRA:                  -0.523
REMARK UNBOUND:                -0.854
REMARK  Name = 
REMARK  7 active torsions:
REMARK  status: ('A' for Active; 'I' for Inactive)
REMARK    1  A    between atoms: N_1  and  C_2
REMARK    2  A    between atoms: C_2  and  C_3
REMARK    3  A    between atoms: C_7  and  C_8
REMARK    4  A    between atoms: C_8  and  C_9
REMARK    5  A    between atoms: C_9  and  C_10
REMARK    6  A    between atoms: C_10  and  C_11
REMARK    7  A    between atoms: C_14  and  C_15
REMARK                            x       y       z     vdW  Elec       q    Type
REMARK                         _______ _______ _______ _____ _____    ______ ____
ROOT
ATOM      1  C   UNL     1      47.349   3.728  15.707  0.00  0.00    +0.000 C 
ENDROOT
BRANCH   1   2
ATOM      2  C   UNL     1      47.727   4.117  17.136  0.00  0.00    +0.000 C 
BRANCH   2   7
ATOM      3  C   UNL     1      51.244   2.661  17.518  0.00  0.00    +0.000 A 
ATOM      4  C   UNL     1      51.981   3.825  17.775  0.00  0.00    +0.000 A 
ATOM      5  C   UNL     1      51.344   5.062  17.872  0.00  0.00    +0.000 A 
ATOM      6  C   UNL     1      49.965   5.156  17.685  0.00  0.00    +0.000 A 
ATOM      7  C   UNL     1      49.207   4.011  17.409  0.00  0.00    +0.000 A 
ATOM      8  C   UNL     1      49.853   2.766  17.350  0.00  0.00    +0.000 A 
BRANCH   3   9
ATOM      9  C   UNL     1      51.938   1.334  17.342  0.00  0.00    +0.000 C 
BRANCH   9  10
ATOM     10  N   UNL     1      51.352   0.285  18.169  0.00  0.00    +0.000 NA
ATOM     11  H   UNL     1      51.204  -0.545  17.599  0.00  0.00    +0.000 HD
ATOM     12  H   UNL     1      50.430   0.591  18.475  0.00  0.00    +0.000 HD
ENDBRANCH   9  10
ENDBRANCH   3   9
ENDBRANCH   2   7
ENDBRANCH   1   2
BRANCH   1  13
ATOM     13  C   UNL     1      47.181   4.976  14.834  0.00  0.00    +0.000 C 
BRANCH  13  14
ATOM     14  C   UNL     1      46.448   4.657  13.556  0.00  0.00    +0.000 A 
ATOM     15  C   UNL     1      46.235   5.645  12.599  0.00  0.00    +0.000 A 
ATOM     16  C   UNL     1      45.518   5.322  11.448  0.00  0.00    +0.000 A 
ATOM     17  C   UNL     1      45.026   4.025  11.274  0.00  0.00    +0.000 A 
ATOM     18  C   UNL     1      45.288   3.109  12.279  0.00  0.00    +0.000 A 
ATOM     19  N   UNL     1      45.982   3.394  13.411  0.00  0.00    +0.000 NA
BRANCH  17  20
ATOM     20  C   UNL     1      44.257   3.708  10.043  0.00  0.00    +0.000 C 
ATOM     21  N   UNL     1      43.846   4.728   9.231  0.00  0.00    +0.000 N 
ATOM     22  O   UNL     1      43.991   2.550   9.746  0.00  0.00    +0.000 OA
ATOM     23  H   UNL     1      44.020   5.711   9.373  0.00  0.00    +0.000 HD
ATOM     24  H   UNL     1      43.334   4.461   8.400  0.00  0.00    +0.000 HD
ENDBRANCH  17  20
ENDBRANCH  13  14
ENDBRANCH   1  13
TORSDOF 7
ENDMDL
MODEL 9
REMARK VINA RESULT:    -5.806      3.521      7.890
REMARK INTER + INTRA:          -8.866
REMARK INTER:                  -8.093
REMARK INTRA:                  -0.773
REMARK UNBOUND:                -0.854
REMARK  Name = 
REMARK  7 active torsions:
REMARK  status: ('A' for Active; 'I' for Inactive)
REMARK    1  A    between atoms: N_1  and  C_2
REMARK    2  A    between atoms: C_2  and  C_3
REMARK    3  A    between atoms: C_7  and  C_8
REMARK    4  A    between atoms: C_8  and  C_9
REMARK    5  A    between atoms: C_9  and  C_10
REMARK    6  A    between atoms: C_10  and  C_11
REMARK    7  A    between atoms: C_14  and  C_15
REMARK                            x       y       z     vdW  Elec       q    Type
REMARK                         _______ _______ _______ _____ _____    ______ ____
ROOT
ATOM      1  C   UNL     1      48.659   6.939  14.032  0.00  0.00    +0.000 C 
ENDROOT
BRANCH   1   2
ATOM      2  C   UNL     1      48.797   7.294  15.512  0.00  0.00    +0.000 C 
BRANCH   2   7
ATOM      3  C   UNL     1      48.932   4.009  17.467  0.00  0.00    +0.000 A 
ATOM      4  C   UNL     1      50.295   3.954  17.790  0.00  0.00    +0.000 A 
ATOM      5  C   UNL     1      51.154   4.989  17.422  0.00  0.00    +0.000 A 
ATOM      6  C   UNL     1      50.668   6.080  16.702  0.00  0.00    +0.000 A 
ATOM      7  C   UNL     1      49.314   6.151  16.351  0.00  0.00    +0.000 A 
ATOM      8  C   UNL     1      48.451   5.122  16.758  0.00  0.00    +0.000 A 
BRANCH   3   9
ATOM      9  C   UNL     1      48.015   2.859  17.801  0.00  0.00    +0.000 C 
BRANCH   9  10
ATOM     10  N   UNL     1      46.623   3.144  17.473  0.00  0.00    +0.000 NA
ATOM     11  H   UNL     1      46.140   2.269  17.277  0.00  0.00    +0.000 HD
ATOM     12  H   UNL     1      46.597   3.685  16.610  0.00  0.00    +0.000 HD
ENDBRANCH   9  10
ENDBRANCH   3   9
ENDBRANCH   2   7
ENDBRANCH   1   2
BRANCH   1  13
ATOM     13  C   UNL     1      47.334   7.464  13.471  0.00  0.00    +0.000 C 
BRANCH  13  14
ATOM     14  C   UNL     1      46.516   6.354  12.862  0.00  0.00    +0.000 A 
ATOM     15  C   UNL     1      46.522   5.081  13.424  0.00  0.00    +0.000 A 
ATOM     16  C   UNL     1      45.784   4.071  12.808  0.00  0.00    +0.000 A 
ATOM     17  C   UNL     1      45.059   4.346  11.646  0.00  0.00    +0.000 A 
ATOM     18  C   UNL     1      45.112   5.643  11.160  0.00  0.00    +0.000 A 
ATOM     19  N   UNL     1      45.821   6.647  11.737  0.00  0.00    +0.000 NA
BRANCH  17  20
ATOM     20  C   UNL     1      44.288   3.251  11.004  0.00  0.00    +0.000 C 
ATOM     21  N   UNL     1      44.908   2.447  10.089  0.00  0.00    +0.000 N 
ATOM     22  O   UNL     1      43.111   3.059  11.285  0.00  0.00    +0.000 OA
ATOM     23  H   UNL     1      45.870   2.507   9.795  0.00  0.00    +0.000 HD
ATOM     24  H   UNL     1      44.343   1.709   9.686  0.00  0.00    +0.000 HD
ENDBRANCH  17  20
ENDBRANCH  13  14
ENDBRANCH   1  13
TORSDOF 7
ENDMDL
