MODEL 1
REMARK VINA RESULT:    -8.506      0.000      0.000
REMARK INTER + INTRA:         -12.340
REMARK INTER:                 -11.489
REMARK INTRA:                  -0.850
REMARK UNBOUND:                -0.850
REMARK  Name = 
REMARK  6 active torsions:
REMARK  status: ('A' for Active; 'I' for Inactive)
REMARK    1  A    between atoms: C_2  and  C_4
REMARK    2  A    between atoms: N_8  and  C_9
REMARK    3  A    between atoms: C_9  and  C_10
REMARK    4  A    between atoms: C_10  and  C_11
REMARK    5  A    between atoms: C_15  and  O_16
REMARK    6  A    between atoms: O_16  and  C_17
REMARK                            x       y       z     vdW  Elec       q    Type
REMARK                         _______ _______ _______ _____ _____    ______ ____
ROOT
ATOM      1  C   UNL     1      46.606   2.470   7.511  0.00  0.00    +0.000 A 
ATOM      2  C   UNL     1      45.794   1.833   8.439  0.00  0.00    +0.000 A 
ATOM      3  C   UNL     1      44.876   2.587   9.168  0.00  0.00    +0.000 A 
ATOM      4  C   UNL     1      44.795   3.965   8.976  0.00  0.00    +0.000 A 
ATOM      5  N   UNL     1      43.841   4.753   9.606  0.00  0.00    +0.000 N 
ATOM      6  N   UNL     1      45.604   4.601   8.100  0.00  0.00    +0.000 NA
ATOM      7  C   UNL     1      46.495   3.847   7.394  0.00  0.00    +0.000 A 
ATOM      8  H   UNL     1      44.085   5.727   9.429  0.00  0.00    +0.000 HD
ENDROOT
BRANCH   1  10
ATOM      9  N   UNL     1      48.734   2.369   6.348  0.00  0.00    +0.000 N 
ATOM     10  C   UNL     1      47.564   1.732   6.661  0.00  0.00    +0.000 C 
ATOM     11  O   UNL     1      47.339   0.592   6.279  0.00  0.00    +0.000 OA
ATOM     12  H   UNL     1      49.427   1.822   5.850  0.00  0.00    +0.000 HD
ATOM     13  H   UNL     1      49.057   3.190   6.844  0.00  0.00    +0.000 HD
ENDBRANCH   1  10
BRANCH   5  14
ATOM     14  C   UNL     1      43.456   4.415  10.972  0.00  0.00    +0.000 C 
BRANCH  14  15
ATOM     15  C   UNL     1      43.694   5.588  11.930  0.00  0.00    +0.000 C 
BRANCH  15  16
ATOM     16  C   UNL     1      45.157   5.686  12.306  0.00  0.00    +0.000 A 
ATOM     17  C   UNL     1      45.964   6.702  11.771  0.00  0.00    +0.000 A 
ATOM     18  C   UNL     1      47.297   6.826  12.171  0.00  0.00    +0.000 A 
ATOM     19  C   UNL     1      47.841   5.940  13.106  0.00  0.00    +0.000 A 
ATOM     20  C   UNL     1      47.051   4.923  13.637  0.00  0.00    +0.000 A 
ATOM     21  C   UNL     1      45.717   4.807  13.240  0.00  0.00    +0.000 A 
BRANCH  20  22
ATOM     22  O   UNL     1      47.468   4.020  14.585  0.00  0.00    +0.000 OA
BRANCH  22  23
ATOM     23  C   UNL     1      47.274   4.326  15.984  0.00  0.00    +0.000 C 
ATOM     24  C   UNL     1      48.363   5.180  16.673  0.00  0.00    +0.000 C 
ATOM     25  C   UNL     1      48.433   4.155  17.812  0.00  0.00    +0.000 C 
ATOM     26  C   UNL     1      47.647   3.168  16.943  0.00  0.00    +0.000 C 
ENDBRANCH  22  23
ENDBRANCH  20  22
ENDBRANCH  15  16
ENDBRANCH  14  15
ENDBRANCH   5  14
TORSDOF 6
ENDMDL
MODEL 2
REMARK VINA RESULT:    -7.863      1.744      3.104
REMARK INTER + INTRA:         -11.471
REMARK INTER:                 -10.508
REMARK INTRA:                  -0.963
REMARK UNBOUND:                -0.850
REMARK  Name = 
REMARK  6 active torsions:
REMARK  status: ('A' for Active; 'I' for Inactive)
REMARK    1  A    between atoms: C_2  and  C_4
REMARK    2  A    between atoms: N_8  and  C_9
REMARK    3  A    between atoms: C_9  and  C_10
REMARK    4  A    between atoms: C_10  and  C_11
REMARK    5  A    between atoms: C_15  and  O_16
REMARK    6  A    between atoms: O_16  and  C_17
REMARK                            x       y       z     vdW  Elec       q    Type
REMARK                         _______ _______ _______ _____ _____    ______ ____
ROOT
ATOM      1  C   UNL     1      46.553   2.468   7.637  0.00  0.00    +0.000 A 
ATOM      2  C   UNL     1      45.682   1.833   8.512  0.00  0.00    +0.000 A 
ATOM      3  C   UNL     1      44.756   2.598   9.220  0.00  0.00    +0.000 A 
ATOM      4  C   UNL     1      44.725   3.981   9.061  0.00  0.00    +0.000 A 
ATOM      5  N   UNL     1      43.769   4.783   9.670  0.00  0.00    +0.000 N 
ATOM      6  N   UNL     1      45.591   4.613   8.237  0.00  0.00    +0.000 NA
ATOM      7  C   UNL     1      46.489   3.850   7.551  0.00  0.00    +0.000 A 
ATOM      8  H   UNL     1      44.049   5.752   9.529  0.00  0.00    +0.000 HD
ENDROOT
BRANCH   1  10
ATOM      9  N   UNL     1      48.640   2.400   6.400  0.00  0.00    +0.000 N 
ATOM     10  C   UNL     1      47.525   1.721   6.810  0.00  0.00    +0.000 C 
ATOM     11  O   UNL     1      47.358   0.543   6.528  0.00  0.00    +0.000 OA
ATOM     12  H   UNL     1      49.348   1.856   5.919  0.00  0.00    +0.000 HD
ATOM     13  H   UNL     1      48.929   3.276   6.816  0.00  0.00    +0.000 HD
ENDBRANCH   1  10
BRANCH   5  14
ATOM     14  C   UNL     1      43.315   4.423  11.009  0.00  0.00    +0.000 C 
BRANCH  14  15
ATOM     15  C   UNL     1      43.459   5.596  11.986  0.00  0.00    +0.000 C 
BRANCH  15  16
ATOM     16  C   UNL     1      44.816   5.573  12.656  0.00  0.00    +0.000 A 
ATOM     17  C   UNL     1      45.396   4.359  13.051  0.00  0.00    +0.000 A 
ATOM     18  C   UNL     1      46.675   4.339  13.612  0.00  0.00    +0.000 A 
ATOM     19  C   UNL     1      47.391   5.528  13.786  0.00  0.00    +0.000 A 
ATOM     20  C   UNL     1      46.821   6.740  13.405  0.00  0.00    +0.000 A 
ATOM     21  C   UNL     1      45.544   6.755  12.838  0.00  0.00    +0.000 A 
BRANCH  20  22
ATOM     22  O   UNL     1      47.442   7.962  13.496  0.00  0.00    +0.000 OA
BRANCH  22  23
ATOM     23  C   UNL     1      48.812   8.092  13.052  0.00  0.00    +0.000 C 
ATOM     24  C   UNL     1      49.355   9.527  12.863  0.00  0.00    +0.000 C 
ATOM     25  C   UNL     1      49.865   9.141  11.470  0.00  0.00    +0.000 C 
ATOM     26  C   UNL     1      49.008   7.872  11.532  0.00  0.00    +0.000 C 
ENDBRANCH  22  23
ENDBRANCH  20  22
ENDBRANCH  15  16
ENDBRANCH  14  15
ENDBRANCH   5  14
TORSDOF 6
ENDMDL
MODEL 3
REMARK VINA RESULT:    -7.352      2.036      4.006
REMARK INTER + INTRA:         -10.781
REMARK INTER:                 -10.180
REMARK INTRA:                  -0.601
REMARK UNBOUND:                -0.850
REMARK  Name = 
REMARK  6 active torsions:
REMARK  status: ('A' for Active; 'I' for Inactive)
REMARK    1  A    between atoms: C_2  and  C_4
REMARK    2  A    between atoms: N_8  and  C_9
REMARK    3  A    between atoms: C_9  and  C_10
REMARK    4  A    between atoms: C_10  and  C_11
REMARK    5  A    between atoms: C_15  and  O_16
REMARK    6  A    between atoms: O_16  and  C_17
REMARK                            x       y       z     vdW  Elec       q    Type
REMARK                         _______ _______ _______ _____ _____    ______ ____
ROOT
ATOM      1  C   UNL     1      46.474   2.738   7.392  0.00  0.00    +0.000 A 
ATOM      2  C   UNL     1      45.884   1.816   8.246  0.00  0.00    +0.000 A 
ATOM      3  C   UNL     1      45.001   2.269   9.226  0.00  0.00    +0.000 A 
ATOM      4  C   UNL     1      44.736   3.632   9.351  0.00  0.00    +0.000 A 
ATOM      5  N   UNL     1      43.800   4.132  10.247  0.00  0.00    +0.000 N 
ATOM      6  N   UNL     1      45.331   4.540   8.547  0.00  0.00    +0.000 NA
ATOM      7  C   UNL     1      46.190   4.080   7.593  0.00  0.00    +0.000 A 
ATOM      8  H   UNL     1      43.902   5.145  10.261  0.00  0.00    +0.000 HD
ENDROOT
BRANCH   1  10
ATOM      9  N   UNL     1      48.708   2.602   6.454  0.00  0.00    +0.000 N 
ATOM     10  C   UNL     1      47.377   2.331   6.293  0.00  0.00    +0.000 C 
ATOM     11  O   UNL     1      46.960   1.751   5.300  0.00  0.00    +0.000 OA
ATOM     12  H   UNL     1      49.332   2.233   5.745  0.00  0.00    +0.000 HD
ATOM     13  H   UNL     1      49.112   2.843   7.349  0.00  0.00    +0.000 HD
ENDBRANCH   1  10
BRANCH   5  14
ATOM     14  C   UNL     1      43.659   3.473  11.541  0.00  0.00    +0.000 C 
BRANCH  14  15
ATOM     15  C   UNL     1      43.516   4.491  12.678  0.00  0.00    +0.000 C 
BRANCH  15  16
ATOM     16  C   UNL     1      44.822   5.218  12.916  0.00  0.00    +0.000 A 
ATOM     17  C   UNL     1      45.876   4.586  13.593  0.00  0.00    +0.000 A 
ATOM     18  C   UNL     1      47.101   5.239  13.754  0.00  0.00    +0.000 A 
ATOM     19  C   UNL     1      47.289   6.528  13.245  0.00  0.00    +0.000 A 
ATOM     20  C   UNL     1      46.246   7.167  12.579  0.00  0.00    +0.000 A 
ATOM     21  C   UNL     1      45.026   6.508  12.413  0.00  0.00    +0.000 A 
BRANCH  20  22
ATOM     22  O   UNL     1      46.327   8.415  12.009  0.00  0.00    +0.000 OA
BRANCH  22  23
ATOM     23  C   UNL     1      45.221   9.333  12.161  0.00  0.00    +0.000 C 
ATOM     24  C   UNL     1      44.203   9.404  11.000  0.00  0.00    +0.000 C 
ATOM     25  C   UNL     1      44.326  10.932  10.997  0.00  0.00    +0.000 C 
ATOM     26  C   UNL     1      45.581  10.811  11.869  0.00  0.00    +0.000 C 
ENDBRANCH  22  23
ENDBRANCH  20  22
ENDBRANCH  15  16
ENDBRANCH  14  15
ENDBRANCH   5  14
TORSDOF 6
ENDMDL
MODEL 4
REMARK VINA RESULT:    -7.319      2.561      7.882
REMARK INTER + INTRA:         -10.736
REMARK INTER:                 -10.030
REMARK INTRA:                  -0.706
REMARK UNBOUND:                -0.850
REMARK  Name = 
REMARK  6 active torsions:
REMARK  status: ('A' for Active; 'I' for Inactive)
REMARK    1  A    between atoms: C_2  and  C_4
REMARK    2  A    between atoms: N_8  and  C_9
REMARK    3  A    between atoms: C_9  and  C_10
REMARK    4  A    between atoms: C_10  and  C_11
REMARK    5  A    between atoms: C_15  and  O_16
REMARK    6  A    between atoms: O_16  and  C_17
REMARK                            x       y       z     vdW  Elec       q    Type
REMARK                         _______ _______ _______ _____ _____    ______ ____
ROOT
ATOM      1  C   UNL     1      46.900   5.816  13.384  0.00  0.00    +0.000 A 
ATOM      2  C   UNL     1      45.944   6.194  12.452  0.00  0.00    +0.000 A 
ATOM      3  C   UNL     1      45.051   5.237  11.970  0.00  0.00    +0.000 A 
ATOM      4  C   UNL     1      45.138   3.918  12.409  0.00  0.00    +0.000 A 
ATOM      5  N   UNL     1      44.222   2.944  12.035  0.00  0.00    +0.000 N 
ATOM      6  N   UNL     1      46.086   3.532  13.291  0.00  0.00    +0.000 NA
ATOM      7  C   UNL     1      46.950   4.481  13.753  0.00  0.00    +0.000 A 
ATOM      8  H   UNL     1      44.585   2.046  12.352  0.00  0.00    +0.000 HD
ENDROOT
BRANCH   1  10
ATOM      9  N   UNL     1      47.409   8.074  14.116  0.00  0.00    +0.000 N 
ATOM     10  C   UNL     1      47.845   6.784  13.983  0.00  0.00    +0.000 C 
ATOM     11  O   UNL     1      48.954   6.444  14.370  0.00  0.00    +0.000 OA
ATOM     12  H   UNL     1      48.022   8.708  14.617  0.00  0.00    +0.000 HD
ATOM     13  H   UNL     1      46.432   8.330  14.045  0.00  0.00    +0.000 HD
ENDBRANCH   1  10
BRANCH   5  14
ATOM     14  C   UNL     1      43.683   2.986  10.680  0.00  0.00    +0.000 C 
BRANCH  14  15
ATOM     15  C   UNL     1      44.282   1.882   9.801  0.00  0.00    +0.000 C 
BRANCH  15  16
ATOM     16  C   UNL     1      45.264   2.461   8.805  0.00  0.00    +0.000 A 
ATOM     17  C   UNL     1      45.392   3.850   8.655  0.00  0.00    +0.000 A 
ATOM     18  C   UNL     1      46.345   4.379   7.781  0.00  0.00    +0.000 A 
ATOM     19  C   UNL     1      47.180   3.530   7.046  0.00  0.00    +0.000 A 
ATOM     20  C   UNL     1      47.055   2.150   7.182  0.00  0.00    +0.000 A 
ATOM     21  C   UNL     1      46.107   1.625   8.062  0.00  0.00    +0.000 A 
BRANCH  20  22
ATOM     22  O   UNL     1      47.842   1.224   6.539  0.00  0.00    +0.000 OA
BRANCH  22  23
ATOM     23  C   UNL     1      47.820   1.162   5.095  0.00  0.00    +0.000 C 
ATOM     24  C   UNL     1      46.783   2.050   4.370  0.00  0.00    +0.000 C 
ATOM     25  C   UNL     1      46.327   0.836   3.552  0.00  0.00    +0.000 C 
ATOM     26  C   UNL     1      47.083  -0.075   4.526  0.00  0.00    +0.000 C 
ENDBRANCH  22  23
ENDBRANCH  20  22
ENDBRANCH  15  16
ENDBRANCH  14  15
ENDBRANCH   5  14
TORSDOF 6
ENDMDL
MODEL 5
REMARK VINA RESULT:    -7.098      3.306      8.300
REMARK INTER + INTRA:         -10.439
REMARK INTER:                  -9.891
REMARK INTRA:                  -0.548
REMARK UNBOUND:                -0.850
REMARK  Name = 
REMARK  6 active torsions:
REMARK  status: ('A' for Active; 'I' for Inactive)
REMARK    1  A    between atoms: C_2  and  C_4
REMARK    2  A    between atoms: N_8  and  C_9
REMARK    3  A    between atoms: C_9  and  C_10
REMARK    4  A    between atoms: C_10  and  C_11
REMARK    5  A    between atoms: C_15  and  O_16
REMARK    6  A    between atoms: O_16  and  C_17
REMARK                            x       y       z     vdW  Elec       q    Type
REMARK                         _______ _______ _______ _____ _____    ______ ____
ROOT
ATOM      1  C   UNL     1      48.418   4.569  17.000  0.00  0.00    +0.000 A 
ATOM      2  C   UNL     1      47.405   3.884  16.342  0.00  0.00    +0.000 A 
ATOM      3  C   UNL     1      46.965   4.350  15.103  0.00  0.00    +0.000 A 
ATOM      4  C   UNL     1      47.526   5.499  14.550  0.00  0.00    +0.000 A 
ATOM      5  N   UNL     1      47.193   5.959  13.283  0.00  0.00    +0.000 N 
ATOM      6  N   UNL     1      48.489   6.193  15.198  0.00  0.00    +0.000 NA
ATOM      7  C   UNL     1      48.908   5.722  16.407  0.00  0.00    +0.000 A 
ATOM      8  H   UNL     1      47.610   6.882  13.175  0.00  0.00    +0.000 HD
ENDROOT
BRANCH   1  10
ATOM      9  N   UNL     1      49.399   2.806  18.349  0.00  0.00    +0.000 N 
ATOM     10  C   UNL     1      48.975   4.106  18.288  0.00  0.00    +0.000 C 
ATOM     11  O   UNL     1      49.084   4.855  19.249  0.00  0.00    +0.000 OA
ATOM     12  H   UNL     1      49.870   2.524  19.201  0.00  0.00    +0.000 HD
ATOM     13  H   UNL     1      49.558   2.245  17.522  0.00  0.00    +0.000 HD
ENDBRANCH   1  10
BRANCH   5  14
ATOM     14  C   UNL     1      45.813   5.809  12.834  0.00  0.00    +0.000 C 
BRANCH  14  15
ATOM     15  C   UNL     1      45.666   6.152  11.347  0.00  0.00    +0.000 C 
BRANCH  15  16
ATOM     16  C   UNL     1      45.290   4.924  10.546  0.00  0.00    +0.000 A 
ATOM     17  C   UNL     1      44.535   3.896  11.130  0.00  0.00    +0.000 A 
ATOM     18  C   UNL     1      44.137   2.794  10.368  0.00  0.00    +0.000 A 
ATOM     19  C   UNL     1      44.487   2.705   9.017  0.00  0.00    +0.000 A 
ATOM     20  C   UNL     1      45.244   3.716   8.430  0.00  0.00    +0.000 A 
ATOM     21  C   UNL     1      45.633   4.819   9.193  0.00  0.00    +0.000 A 
BRANCH  20  22
ATOM     22  O   UNL     1      45.615   3.750   7.107  0.00  0.00    +0.000 OA
BRANCH  22  23
ATOM     23  C   UNL     1      46.914   3.242   6.726  0.00  0.00    +0.000 C 
ATOM     24  C   UNL     1      47.072   2.740   5.273  0.00  0.00    +0.000 C 
ATOM     25  C   UNL     1      47.693   1.440   5.799  0.00  0.00    +0.000 C 
ATOM     26  C   UNL     1      47.191   1.795   7.203  0.00  0.00    +0.000 C 
ENDBRANCH  22  23
ENDBRANCH  20  22
ENDBRANCH  15  16
ENDBRANCH  14  15
ENDBRANCH   5  14
TORSDOF 6
ENDMDL
MODEL 6
REMARK VINA RESULT:    -6.847      3.184      7.354
REMARK INTER + INTRA:         -10.099
REMARK INTER:                  -9.292
REMARK INTRA:                  -0.806
REMARK UNBOUND:                -0.850
REMARK  Name = 
REMARK  6 active torsions:
REMARK  status: ('A' for Active; 'I' for Inactive)
REMARK    1  A    between atoms: C_2  and  C_4
REMARK    2  A    between atoms: N_8  and  C_9
REMARK    3  A    between atoms: C_9  and  C_10
REMARK    4  A    between atoms: C_10  and  C_11
REMARK    5  A    between atoms: C_15  and  O_16
REMARK    6  A    between atoms: O_16  and  C_17
REMARK                            x       y       z     vdW  Elec       q    Type
REMARK                         _______ _______ _______ _____ _____    ______ ____
ROOT
ATOM      1  C   UNL     1      47.607   4.350  16.017  0.00  0.00    +0.000 A 
ATOM      2  C   UNL     1      47.174   3.947  14.761  0.00  0.00    +0.000 A 
ATOM      3  C   UNL     1      47.349   4.805  13.676  0.00  0.00    +0.000 A 
ATOM      4  C   UNL     1      47.933   6.057  13.863  0.00  0.00    +0.000 A 
ATOM      5  N   UNL     1      48.214   6.915  12.809  0.00  0.00    +0.000 N 
ATOM      6  N   UNL     1      48.326   6.473  15.087  0.00  0.00    +0.000 NA
ATOM      7  C   UNL     1      48.150   5.619  16.136  0.00  0.00    +0.000 A 
ATOM      8  H   UNL     1      48.486   7.812  13.210  0.00  0.00    +0.000 HD
ENDROOT
BRANCH   1  10
ATOM      9  N   UNL     1      48.631   3.344  17.974  0.00  0.00    +0.000 N 
ATOM     10  C   UNL     1      47.507   3.474  17.204  0.00  0.00    +0.000 C 
ATOM     11  O   UNL     1      46.461   2.916  17.505  0.00  0.00    +0.000 OA
ATOM     12  H   UNL     1      48.528   2.824  18.838  0.00  0.00    +0.000 HD
ATOM     13  H   UNL     1      49.418   3.976  17.901  0.00  0.00    +0.000 HD
ENDBRANCH   1  10
BRANCH   5  14
ATOM     14  C   UNL     1      47.284   6.959  11.685  0.00  0.00    +0.000 C 
BRANCH  14  15
ATOM     15  C   UNL     1      45.868   7.328  12.142  0.00  0.00    +0.000 C 
BRANCH  15  16
ATOM     16  C   UNL     1      44.911   6.178  11.908  0.00  0.00    +0.000 A 
ATOM     17  C   UNL     1      43.879   5.913  12.820  0.00  0.00    +0.000 A 
ATOM     18  C   UNL     1      42.961   4.890  12.567  0.00  0.00    +0.000 A 
ATOM     19  C   UNL     1      43.061   4.122  11.402  0.00  0.00    +0.000 A 
ATOM     20  C   UNL     1      44.086   4.372  10.494  0.00  0.00    +0.000 A 
ATOM     21  C   UNL     1      44.998   5.399  10.748  0.00  0.00    +0.000 A 
BRANCH  20  22
ATOM     22  O   UNL     1      44.261   3.706   9.305  0.00  0.00    +0.000 OA
BRANCH  22  23
ATOM     23  C   UNL     1      45.589   3.282   8.923  0.00  0.00    +0.000 C 
ATOM     24  C   UNL     1      46.045   3.614   7.484  0.00  0.00    +0.000 C 
ATOM     25  C   UNL     1      46.478   2.155   7.293  0.00  0.00    +0.000 C 
ATOM     26  C   UNL     1      45.692   1.781   8.555  0.00  0.00    +0.000 C 
ENDBRANCH  22  23
ENDBRANCH  20  22
ENDBRANCH  15  16
ENDBRANCH  14  15
ENDBRANCH   5  14
TORSDOF 6
ENDMDL
MODEL 7
REMARK VINA RESULT:    -6.798      3.955      8.750
REMARK INTER + INTRA:         -10.033
REMARK INTER:                  -9.404
REMARK INTRA:                  -0.629
REMARK UNBOUND:                -0.850
REMARK  Name = 
REMARK  6 active torsions:
REMARK  status: ('A' for Active; 'I' for Inactive)
REMARK    1  A    between atoms: C_2  and  C_4
REMARK    2  A    between atoms: N_8  and  C_9
REMARK    3  A    between atoms: C_9  and  C_10
REMARK    4  A    between atoms: C_10  and  C_11
REMARK    5  A    between atoms: C_15  and  O_16
REMARK    6  A    between atoms: O_16  and  C_17
REMARK                            x       y       z     vdW  Elec       q    Type
REMARK                         _______ _______ _______ _____ _____    ______ ____
ROOT
ATOM      1  C   UNL     1      48.513   4.337  18.783  0.00  0.00    +0.000 A 
ATOM      2  C   UNL     1      48.541   5.426  17.923  0.00  0.00    +0.000 A 
ATOM      3  C   UNL     1      47.956   5.309  16.663  0.00  0.00    +0.000 A 
ATOM      4  C   UNL     1      47.371   4.106  16.273  0.00  0.00    +0.000 A 
ATOM      5  N   UNL     1      46.696   3.959  15.068  0.00  0.00    +0.000 N 
ATOM      6  N   UNL     1      47.368   3.029  17.089  0.00  0.00    +0.000 NA
ATOM      7  C   UNL     1      47.943   3.161  18.319  0.00  0.00    +0.000 A 
ATOM      8  H   UNL     1      46.502   2.966  14.947  0.00  0.00    +0.000 HD
ENDROOT
BRANCH   1  10
ATOM      9  N   UNL     1      50.418   4.537  20.273  0.00  0.00    +0.000 N 
ATOM     10  C   UNL     1      49.062   4.399  20.155  0.00  0.00    +0.000 C 
ATOM     11  O   UNL     1      48.338   4.361  21.140  0.00  0.00    +0.000 OA
ATOM     12  H   UNL     1      50.777   4.679  21.211  0.00  0.00    +0.000 HD
ATOM     13  H   UNL     1      51.007   4.822  19.501  0.00  0.00    +0.000 HD
ENDBRANCH   1  10
BRANCH   5  14
ATOM     14  C   UNL     1      47.201   4.672  13.900  0.00  0.00    +0.000 C 
BRANCH  14  15
ATOM     15  C   UNL     1      46.252   5.798  13.474  0.00  0.00    +0.000 C 
BRANCH  15  16
ATOM     16  C   UNL     1      45.324   5.331  12.373  0.00  0.00    +0.000 A 
ATOM     17  C   UNL     1      43.988   5.009  12.655  0.00  0.00    +0.000 A 
ATOM     18  C   UNL     1      43.120   4.640  11.625  0.00  0.00    +0.000 A 
ATOM     19  C   UNL     1      43.573   4.586  10.303  0.00  0.00    +0.000 A 
ATOM     20  C   UNL     1      44.899   4.895  10.013  0.00  0.00    +0.000 A 
ATOM     21  C   UNL     1      45.762   5.271  11.044  0.00  0.00    +0.000 A 
BRANCH  20  22
ATOM     22  O   UNL     1      45.444   4.910   8.751  0.00  0.00    +0.000 OA
BRANCH  22  23
ATOM     23  C   UNL     1      45.401   3.706   7.951  0.00  0.00    +0.000 C 
ATOM     24  C   UNL     1      45.643   2.368   8.684  0.00  0.00    +0.000 C 
ATOM     25  C   UNL     1      46.681   1.983   7.624  0.00  0.00    +0.000 C 
ATOM     26  C   UNL     1      46.694   3.439   7.142  0.00  0.00    +0.000 C 
ENDBRANCH  22  23
ENDBRANCH  20  22
ENDBRANCH  15  16
ENDBRANCH  14  15
ENDBRANCH   5  14
TORSDOF 6
ENDMDL
MODEL 8
REMARK VINA RESULT:    -6.552      4.453      8.350
REMARK INTER + INTRA:          -9.700
REMARK INTER:                  -9.299
REMARK INTRA:                  -0.401
REMARK UNBOUND:                -0.850
REMARK  Name = 
REMARK  6 active torsions:
REMARK  status: ('A' for Active; 'I' for Inactive)
REMARK    1  A    between atoms: C_2  and  C_4
REMARK    2  A    between atoms: N_8  and  C_9
REMARK    3  A    between atoms: C_9  and  C_10
REMARK    4  A    between atoms: C_10  and  C_11
REMARK    5  A    between atoms: C_15  and  O_16
REMARK    6  A    between atoms: O_16  and  C_17
REMARK                            x       y       z     vdW  Elec       q    Type
REMARK                         _______ _______ _______ _____ _____    ______ ____
ROOT
ATOM      1  C   UNL     1      51.283   2.665  17.570  0.00  0.00    +0.000 A 
ATOM      2  C   UNL     1      50.671   3.903  17.720  0.00  0.00    +0.000 A 
ATOM      3  C   UNL     1      49.395   4.096  17.193  0.00  0.00    +0.000 A 
ATOM      4  C   UNL     1      48.758   3.062  16.509  0.00  0.00    +0.000 A 
ATOM      5  N   UNL     1      47.455   3.167  16.041  0.00  0.00    +0.000 N 
ATOM      6  N   UNL     1      49.358   1.865  16.328  0.00  0.00    +0.000 NA
ATOM      7  C   UNL     1      50.606   1.693  16.852  0.00  0.00    +0.000 A 
ATOM      8  H   UNL     1      47.277   2.357  15.450  0.00  0.00    +0.000 HD
ENDROOT
BRANCH   1  10
ATOM      9  N   UNL     1      52.895   2.921  19.367  0.00  0.00    +0.000 N 
ATOM     10  C   UNL     1      52.610   2.366  18.149  0.00  0.00    +0.000 C 
ATOM     11  O   UNL     1      53.408   1.631  17.583  0.00  0.00    +0.000 OA
ATOM     12  H   UNL     1      53.764   2.633  19.802  0.00  0.00    +0.000 HD
ATOM     13  H   UNL     1      52.182   3.315  19.967  0.00  0.00    +0.000 HD
ENDBRANCH   1  10
BRANCH   5  14
ATOM     14  C   UNL     1      47.004   4.458  15.531  0.00  0.00    +0.000 C 
BRANCH  14  15
ATOM     15  C   UNL     1      47.367   4.635  14.052  0.00  0.00    +0.000 C 
BRANCH  15  16
ATOM     16  C   UNL     1      46.120   4.767  13.205  0.00  0.00    +0.000 A 
ATOM     17  C   UNL     1      45.432   5.988  13.134  0.00  0.00    +0.000 A 
ATOM     18  C   UNL     1      44.318   6.121  12.301  0.00  0.00    +0.000 A 
ATOM     19  C   UNL     1      43.878   5.041  11.530  0.00  0.00    +0.000 A 
ATOM     20  C   UNL     1      44.549   3.823  11.598  0.00  0.00    +0.000 A 
ATOM     21  C   UNL     1      45.666   3.695  12.427  0.00  0.00    +0.000 A 
BRANCH  20  22
ATOM     22  O   UNL     1      44.228   2.708  10.862  0.00  0.00    +0.000 OA
BRANCH  22  23
ATOM     23  C   UNL     1      44.338   2.758   9.421  0.00  0.00    +0.000 C 
ATOM     24  C   UNL     1      45.424   1.872   8.770  0.00  0.00    +0.000 C 
ATOM     25  C   UNL     1      45.920   3.083   7.970  0.00  0.00    +0.000 C 
ATOM     26  C   UNL     1      45.100   3.996   8.888  0.00  0.00    +0.000 C 
ENDBRANCH  22  23
ENDBRANCH  20  22
ENDBRANCH  15  16
ENDBRANCH  14  15
ENDBRANCH   5  14
TORSDOF 6
ENDMDL
MODEL 9
REMARK VINA RESULT:    -6.200      3.609      7.863
REMARK INTER + INTRA:          -9.225
REMARK INTER:                  -8.663
REMARK INTRA:                  -0.562
REMARK UNBOUND:                -0.850
REMARK  Name = 
REMARK  6 active torsions:
REMARK  status: ('A' for Active; 'I' for Inactive)
REMARK    1  A    between atoms: C_2  and  C_4
REMARK    2  A    between atoms: N_8  and  C_9
REMARK    3  A    between atoms: C_9  and  C_10
REMARK    4  A    between atoms: C_10  and  C_11
REMARK    5  A    between atoms: C_15  and  O_16
REMARK    6  A    between atoms: O_16  and  C_17
REMARK                            x       y       z     vdW  Elec       q    Type
REMARK                         _______ _______ _______ _____ _____    ______ ____
ROOT
ATOM      1  C   UNL     1      49.285   8.921  13.123  0.00  0.00    +0.000 A 
ATOM      2  C   UNL     1      47.954   9.312  13.082  0.00  0.00    +0.000 A 
ATOM      3  C   UNL     1      46.959   8.337  13.152  0.00  0.00    +0.000 A 
ATOM      4  C   UNL     1      47.305   6.991  13.241  0.00  0.00    +0.000 A 
ATOM      5  N   UNL     1      46.362   5.985  13.404  0.00  0.00    +0.000 N 
ATOM      6  N   UNL     1      48.598   6.597  13.248  0.00  0.00    +0.000 NA
ATOM      7  C   UNL     1      49.558   7.563  13.181  0.00  0.00    +0.000 A 
ATOM      8  H   UNL     1      46.842   5.095  13.285  0.00  0.00    +0.000 HD
ENDROOT
BRANCH   1  10
ATOM      9  N   UNL     1      51.647   9.416  13.385  0.00  0.00    +0.000 N 
ATOM     10  C   UNL     1      50.396   9.897  13.110  0.00  0.00    +0.000 C 
ATOM     11  O   UNL     1      50.213  11.076  12.837  0.00  0.00    +0.000 OA
ATOM     12  H   UNL     1      52.415  10.069  13.277  0.00  0.00    +0.000 HD
ATOM     13  H   UNL     1      51.868   8.429  13.363  0.00  0.00    +0.000 HD
ENDBRANCH   1  10
BRANCH   5  14
ATOM     14  C   UNL     1      45.076   6.128  12.729  0.00  0.00    +0.000 C 
BRANCH  14  15
ATOM     15  C   UNL     1      45.246   6.227  11.209  0.00  0.00    +0.000 C 
BRANCH  15  16
ATOM     16  C   UNL     1      44.999   4.886  10.551  0.00  0.00    +0.000 A 
ATOM     17  C   UNL     1      44.369   3.851  11.258  0.00  0.00    +0.000 A 
ATOM     18  C   UNL     1      44.086   2.637  10.626  0.00  0.00    +0.000 A 
ATOM     19  C   UNL     1      44.429   2.441   9.284  0.00  0.00    +0.000 A 
ATOM     20  C   UNL     1      45.062   3.460   8.576  0.00  0.00    +0.000 A 
ATOM     21  C   UNL     1      45.336   4.674   9.209  0.00  0.00    +0.000 A 
BRANCH  20  22
ATOM     22  O   UNL     1      45.412   3.392   7.249  0.00  0.00    +0.000 OA
BRANCH  22  23
ATOM     23  C   UNL     1      46.781   3.092   6.895  0.00  0.00    +0.000 C 
ATOM     24  C   UNL     1      47.074   2.802   5.406  0.00  0.00    +0.000 C 
ATOM     25  C   UNL     1      47.824   1.527   5.810  0.00  0.00    +0.000 C 
ATOM     26  C   UNL     1      47.212   1.638   7.211  0.00  0.00    +0.000 C 
ENDBRANCH  22  23
ENDBRANCH  20  22
ENDBRANCH  15  16
ENDBRANCH  14  15
ENDBRANCH   5  14
TORSDOF 6
ENDMDL
