MODEL 1
REMARK VINA RESULT:    -8.335      0.000      0.000
REMARK INTER + INTRA:         -12.481
REMARK INTER:                 -11.259
REMARK INTRA:                  -1.222
REMARK UNBOUND:                -1.222
REMARK  Name = 
REMARK  6 active torsions:
REMARK  status: ('A' for Active; 'I' for Inactive)
REMARK    1  A    between atoms: C_2  and  C_19
REMARK    2  A    between atoms: N_3  and  C_4
REMARK    3  A    between atoms: C_4  and  C_5
REMARK    4  A    between atoms: C_8  and  C_9
REMARK    5  A    between atoms: C_9  and  C_10
REMARK    6  A    between atoms: C_10  and  C_11
REMARK                            x       y       z     vdW  Elec       q    Type
REMARK                         _______ _______ _______ _____ _____    ______ ____
ROOT
ATOM      1  O   UNL     1      49.154   6.707  13.272  0.00  0.00    +0.000 OA
ATOM      2  C   UNL     1      48.350   6.601  14.195  0.00  0.00    +0.000 C 
ATOM      3  N   UNL     1      47.012   6.869  14.032  0.00  0.00    +0.000 N 
ATOM      4  H   UNL     1      46.424   6.991  14.850  0.00  0.00    +0.000 HD
ENDROOT
BRANCH   2   5
ATOM      5  C   UNL     1      48.771   6.139  15.521  0.00  0.00    +0.000 A 
ATOM      6  C   UNL     1      49.720   6.859  16.234  0.00  0.00    +0.000 A 
ATOM      7  S   UNL     1      50.085   6.185  17.757  0.00  0.00    +0.000 S 
ATOM      8  C   UNL     1      48.953   4.931  17.535  0.00  0.00    +0.000 A 
ATOM      9  N   UNL     1      48.737   4.004  18.505  0.00  0.00    +0.000 NA
ATOM     10  C   UNL     1      47.826   3.136  18.216  0.00  0.00    +0.000 A 
ATOM     11  N   UNL     1      47.125   3.100  17.037  0.00  0.00    +0.000 N 
ATOM     12  C   UNL     1      47.341   3.990  16.011  0.00  0.00    +0.000 A 
ATOM     13  O   UNL     1      46.745   3.892  14.946  0.00  0.00    +0.000 OA
ATOM     14  C   UNL     1      48.332   5.009  16.302  0.00  0.00    +0.000 A 
ATOM     15  H   UNL     1      46.439   2.379  16.865  0.00  0.00    +0.000 HD
ENDBRANCH   2   5
BRANCH   3  16
ATOM     16  C   UNL     1      46.539   7.426  12.792  0.00  0.00    +0.000 C 
BRANCH  16  17
ATOM     17  C   UNL     1      45.953   6.381  11.881  0.00  0.00    +0.000 A 
ATOM     18  C   UNL     1      46.220   6.414  10.509  0.00  0.00    +0.000 A 
ATOM     19  C   UNL     1      45.736   5.413   9.662  0.00  0.00    +0.000 A 
ATOM     20  C   UNL     1      44.973   4.349  10.163  0.00  0.00    +0.000 A 
ATOM     21  C   UNL     1      44.655   4.356  11.529  0.00  0.00    +0.000 A 
ATOM     22  C   UNL     1      45.137   5.359  12.380  0.00  0.00    +0.000 A 
BRANCH  20  23
ATOM     23  C   UNL     1      44.441   3.239   9.276  0.00  0.00    +0.000 C 
BRANCH  23  24
ATOM     24  C   UNL     1      45.394   2.045   9.100  0.00  0.00    +0.000 C 
BRANCH  24  25
ATOM     25  C   UNL     1      46.213   2.111   7.839  0.00  0.00    +0.000 A 
ATOM     26  C   UNL     1      46.130   3.203   6.973  0.00  0.00    +0.000 A 
ATOM     27  C   UNL     1      46.872   3.208   5.795  0.00  0.00    +0.000 A 
ATOM     28  C   UNL     1      47.683   2.117   5.525  0.00  0.00    +0.000 A 
ATOM     29  N   UNL     1      47.801   1.051   6.343  0.00  0.00    +0.000 NA
ATOM     30  C   UNL     1      47.066   1.071   7.477  0.00  0.00    +0.000 A 
ENDBRANCH  24  25
ENDBRANCH  23  24
ENDBRANCH  20  23
ENDBRANCH  16  17
ENDBRANCH   3  16
TORSDOF 6
ENDMDL
MODEL 2
REMARK VINA RESULT:    -8.107      0.864      1.392
REMARK INTER + INTRA:         -12.173
REMARK INTER:                 -10.959
REMARK INTRA:                  -1.213
REMARK UNBOUND:                -1.222
REMARK  Name = 
REMARK  6 active torsions:
REMARK  status: ('A' for Active; 'I' for Inactive)
REMARK    1  A    between atoms: C_2  and  C_19
REMARK    2  A    between atoms: N_3  and  C_4
REMARK    3  A    between atoms: C_4  and  C_5
REMARK    4  A    between atoms: C_8  and  C_9
REMARK    5  A    between atoms: C_9  and  C_10
REMARK    6  A    between atoms: C_10  and  C_11
REMARK                            x       y       z     vdW  Elec       q    Type
REMARK                         _______ _______ _______ _____ _____    ______ ____
ROOT
ATOM      1  O   UNL     1      49.561   6.969  13.712  0.00  0.00    +0.000 OA
ATOM      2  C   UNL     1      48.792   6.824  14.660  0.00  0.00    +0.000 C 
ATOM      3  N   UNL     1      47.446   7.075  14.550  0.00  0.00    +0.000 N 
ATOM      4  H   UNL     1      46.885   7.165  15.392  0.00  0.00    +0.000 HD
ENDROOT
BRANCH   2   5
ATOM      5  C   UNL     1      49.267   6.333  15.956  0.00  0.00    +0.000 A 
ATOM      6  C   UNL     1      50.265   7.022  16.632  0.00  0.00    +0.000 A 
ATOM      7  S   UNL     1      50.689   6.316  18.126  0.00  0.00    +0.000 S 
ATOM      8  C   UNL     1      49.521   5.090  17.941  0.00  0.00    +0.000 A 
ATOM      9  N   UNL     1      49.332   4.153  18.906  0.00  0.00    +0.000 NA
ATOM     10  C   UNL     1      48.389   3.309  18.650  0.00  0.00    +0.000 A 
ATOM     11  N   UNL     1      47.631   3.306  17.507  0.00  0.00    +0.000 N 
ATOM     12  C   UNL     1      47.816   4.207  16.485  0.00  0.00    +0.000 A 
ATOM     13  O   UNL     1      47.167   4.139  15.448  0.00  0.00    +0.000 OA
ATOM     14  C   UNL     1      48.841   5.200  16.741  0.00  0.00    +0.000 A 
ATOM     15  H   UNL     1      46.922   2.603  17.358  0.00  0.00    +0.000 HD
ENDBRANCH   2   5
BRANCH   3  16
ATOM     16  C   UNL     1      46.920   7.658  13.344  0.00  0.00    +0.000 C 
BRANCH  16  17
ATOM     17  C   UNL     1      46.239   6.643  12.467  0.00  0.00    +0.000 A 
ATOM     18  C   UNL     1      45.301   5.760  13.010  0.00  0.00    +0.000 A 
ATOM     19  C   UNL     1      44.614   4.855  12.195  0.00  0.00    +0.000 A 
ATOM     20  C   UNL     1      44.844   4.810  10.813  0.00  0.00    +0.000 A 
ATOM     21  C   UNL     1      45.832   5.654  10.283  0.00  0.00    +0.000 A 
ATOM     22  C   UNL     1      46.524   6.559  11.099  0.00  0.00    +0.000 A 
BRANCH  20  23
ATOM     23  C   UNL     1      44.108   3.851   9.895  0.00  0.00    +0.000 C 
BRANCH  23  24
ATOM     24  C   UNL     1      44.477   3.975   8.408  0.00  0.00    +0.000 C 
BRANCH  24  25
ATOM     25  C   UNL     1      45.556   3.019   7.975  0.00  0.00    +0.000 A 
ATOM     26  C   UNL     1      46.542   3.398   7.061  0.00  0.00    +0.000 A 
ATOM     27  C   UNL     1      47.498   2.472   6.653  0.00  0.00    +0.000 A 
ATOM     28  C   UNL     1      47.441   1.193   7.183  0.00  0.00    +0.000 A 
ATOM     29  N   UNL     1      46.514   0.793   8.078  0.00  0.00    +0.000 NA
ATOM     30  C   UNL     1      45.595   1.712   8.453  0.00  0.00    +0.000 A 
ENDBRANCH  24  25
ENDBRANCH  23  24
ENDBRANCH  20  23
ENDBRANCH  16  17
ENDBRANCH   3  16
TORSDOF 6
ENDMDL
MODEL 3
REMARK VINA RESULT:    -8.003      2.990      4.939
REMARK INTER + INTRA:         -12.033
REMARK INTER:                 -11.139
REMARK INTRA:                  -0.894
REMARK UNBOUND:                -1.222
REMARK  Name = 
REMARK  6 active torsions:
REMARK  status: ('A' for Active; 'I' for Inactive)
REMARK    1  A    between atoms: C_2  and  C_19
REMARK    2  A    between atoms: N_3  and  C_4
REMARK    3  A    between atoms: C_4  and  C_5
REMARK    4  A    between atoms: C_8  and  C_9
REMARK    5  A    between atoms: C_9  and  C_10
REMARK    6  A    between atoms: C_10  and  C_11
REMARK                            x       y       z     vdW  Elec       q    Type
REMARK                         _______ _______ _______ _____ _____    ______ ____
ROOT
ATOM      1  O   UNL     1      43.654   5.502  12.456  0.00  0.00    +0.000 OA
ATOM      2  C   UNL     1      44.455   6.026  11.686  0.00  0.00    +0.000 C 
ATOM      3  N   UNL     1      44.682   5.532  10.424  0.00  0.00    +0.000 N 
ATOM      4  H   UNL     1      45.499   5.843   9.906  0.00  0.00    +0.000 HD
ENDROOT
BRANCH   2   5
ATOM      5  C   UNL     1      45.187   7.239  12.060  0.00  0.00    +0.000 A 
ATOM      6  C   UNL     1      44.772   8.473  11.576  0.00  0.00    +0.000 A 
ATOM      7  S   UNL     1      45.729   9.775  12.118  0.00  0.00    +0.000 S 
ATOM      8  C   UNL     1      46.705   8.740  13.055  0.00  0.00    +0.000 A 
ATOM      9  N   UNL     1      47.717   9.232  13.818  0.00  0.00    +0.000 NA
ATOM     10  C   UNL     1      48.347   8.339  14.504  0.00  0.00    +0.000 A 
ATOM     11  N   UNL     1      48.071   6.995  14.482  0.00  0.00    +0.000 N 
ATOM     12  C   UNL     1      47.087   6.448  13.692  0.00  0.00    +0.000 A 
ATOM     13  O   UNL     1      46.907   5.237  13.645  0.00  0.00    +0.000 OA
ATOM     14  C   UNL     1      46.324   7.417  12.929  0.00  0.00    +0.000 A 
ATOM     15  H   UNL     1      48.618   6.346  15.027  0.00  0.00    +0.000 HD
ENDBRANCH   2   5
BRANCH   3  16
ATOM     16  C   UNL     1      44.082   4.288  10.021  0.00  0.00    +0.000 C 
BRANCH  16  17
ATOM     17  C   UNL     1      44.942   3.525   9.050  0.00  0.00    +0.000 A 
ATOM     18  C   UNL     1      45.682   4.206   8.080  0.00  0.00    +0.000 A 
ATOM     19  C   UNL     1      46.534   3.515   7.213  0.00  0.00    +0.000 A 
ATOM     20  C   UNL     1      46.673   2.123   7.295  0.00  0.00    +0.000 A 
ATOM     21  C   UNL     1      45.880   1.437   8.228  0.00  0.00    +0.000 A 
ATOM     22  C   UNL     1      45.023   2.128   9.095  0.00  0.00    +0.000 A 
BRANCH  20  23
ATOM     23  C   UNL     1      47.597   1.341   6.381  0.00  0.00    +0.000 C 
BRANCH  23  24
ATOM     24  C   UNL     1      47.551   1.766   4.904  0.00  0.00    +0.000 C 
BRANCH  24  25
ATOM     25  C   UNL     1      46.870   0.764   4.011  0.00  0.00    +0.000 A 
ATOM     26  C   UNL     1      45.960   1.163   3.029  0.00  0.00    +0.000 A 
ATOM     27  C   UNL     1      45.319   0.203   2.252  0.00  0.00    +0.000 A 
ATOM     28  C   UNL     1      45.616  -1.132   2.479  0.00  0.00    +0.000 A 
ATOM     29  N   UNL     1      46.498  -1.555   3.408  0.00  0.00    +0.000 NA
ATOM     30  C   UNL     1      47.103  -0.601   4.151  0.00  0.00    +0.000 A 
ENDBRANCH  24  25
ENDBRANCH  23  24
ENDBRANCH  20  23
ENDBRANCH  16  17
ENDBRANCH   3  16
TORSDOF 6
ENDMDL
MODEL 4
REMARK VINA RESULT:    -7.857      1.916      2.402
REMARK INTER + INTRA:         -11.835
REMARK INTER:                 -10.855
REMARK INTRA:                  -0.980
REMARK UNBOUND:                -1.222
REMARK  Name = 
REMARK  6 active torsions:
REMARK  status: ('A' for Active; 'I' for Inactive)
REMARK    1  A    between atoms: C_2  and  C_19
REMARK    2  A    between atoms: N_3  and  C_4
REMARK    3  A    between atoms: C_4  and  C_5
REMARK    4  A    between atoms: C_8  and  C_9
REMARK    5  A    between atoms: C_9  and  C_10
REMARK    6  A    between atoms: C_10  and  C_11
REMARK                            x       y       z     vdW  Elec       q    Type
REMARK                         _______ _______ _______ _____ _____    ______ ____
ROOT
ATOM      1  O   UNL     1      50.300   6.505  15.748  0.00  0.00    +0.000 OA
ATOM      2  C   UNL     1      49.137   6.682  16.102  0.00  0.00    +0.000 C 
ATOM      3  N   UNL     1      48.095   6.687  15.206  0.00  0.00    +0.000 N 
ATOM      4  H   UNL     1      47.194   7.056  15.492  0.00  0.00    +0.000 HD
ENDROOT
BRANCH   2   5
ATOM      5  C   UNL     1      48.791   6.856  17.515  0.00  0.00    +0.000 A 
ATOM      6  C   UNL     1      48.309   8.078  17.963  0.00  0.00    +0.000 A 
ATOM      7  S   UNL     1      47.949   8.100  19.630  0.00  0.00    +0.000 S 
ATOM      8  C   UNL     1      48.383   6.462  19.801  0.00  0.00    +0.000 A 
ATOM      9  N   UNL     1      48.272   5.831  21.000  0.00  0.00    +0.000 NA
ATOM     10  C   UNL     1      48.599   4.583  20.975  0.00  0.00    +0.000 A 
ATOM     11  N   UNL     1      49.047   3.913  19.865  0.00  0.00    +0.000 N 
ATOM     12  C   UNL     1      49.217   4.521  18.643  0.00  0.00    +0.000 A 
ATOM     13  O   UNL     1      49.680   3.912  17.686  0.00  0.00    +0.000 OA
ATOM     14  C   UNL     1      48.827   5.918  18.610  0.00  0.00    +0.000 A 
ATOM     15  H   UNL     1      49.308   2.939  19.918  0.00  0.00    +0.000 HD
ENDBRANCH   2   5
BRANCH   3  16
ATOM     16  C   UNL     1      48.364   6.628  13.793  0.00  0.00    +0.000 C 
BRANCH  16  17
ATOM     17  C   UNL     1      47.239   5.991  13.023  0.00  0.00    +0.000 A 
ATOM     18  C   UNL     1      46.727   6.614  11.881  0.00  0.00    +0.000 A 
ATOM     19  C   UNL     1      45.727   6.003  11.119  0.00  0.00    +0.000 A 
ATOM     20  C   UNL     1      45.211   4.750  11.478  0.00  0.00    +0.000 A 
ATOM     21  C   UNL     1      45.683   4.159  12.660  0.00  0.00    +0.000 A 
ATOM     22  C   UNL     1      46.683   4.771  13.425  0.00  0.00    +0.000 A 
BRANCH  20  23
ATOM     23  C   UNL     1      44.135   4.051  10.669  0.00  0.00    +0.000 C 
BRANCH  23  24
ATOM     24  C   UNL     1      44.261   4.223   9.146  0.00  0.00    +0.000 C 
BRANCH  24  25
ATOM     25  C   UNL     1      45.263   3.293   8.518  0.00  0.00    +0.000 A 
ATOM     26  C   UNL     1      46.158   3.738   7.542  0.00  0.00    +0.000 A 
ATOM     27  C   UNL     1      47.041   2.838   6.953  0.00  0.00    +0.000 A 
ATOM     28  C   UNL     1      47.006   1.516   7.369  0.00  0.00    +0.000 A 
ATOM     29  N   UNL     1      46.167   1.051   8.318  0.00  0.00    +0.000 NA
ATOM     30  C   UNL     1      45.317   1.947   8.869  0.00  0.00    +0.000 A 
ENDBRANCH  24  25
ENDBRANCH  23  24
ENDBRANCH  20  23
ENDBRANCH  16  17
ENDBRANCH   3  16
TORSDOF 6
ENDMDL
MODEL 5
REMARK VINA RESULT:    -7.826      4.079      5.950
REMARK INTER + INTRA:         -11.793
REMARK INTER:                 -10.922
REMARK INTRA:                  -0.871
REMARK UNBOUND:                -1.222
REMARK  Name = 
REMARK  6 active torsions:
REMARK  status: ('A' for Active; 'I' for Inactive)
REMARK    1  A    between atoms: C_2  and  C_19
REMARK    2  A    between atoms: N_3  and  C_4
REMARK    3  A    between atoms: C_4  and  C_5
REMARK    4  A    between atoms: C_8  and  C_9
REMARK    5  A    between atoms: C_9  and  C_10
REMARK    6  A    between atoms: C_10  and  C_11
REMARK                            x       y       z     vdW  Elec       q    Type
REMARK                         _______ _______ _______ _____ _____    ______ ____
ROOT
ATOM      1  O   UNL     1      44.058   5.758  12.610  0.00  0.00    +0.000 OA
ATOM      2  C   UNL     1      44.686   6.306  11.708  0.00  0.00    +0.000 C 
ATOM      3  N   UNL     1      44.710   5.806  10.428  0.00  0.00    +0.000 N 
ATOM      4  H   UNL     1      45.407   6.144   9.773  0.00  0.00    +0.000 HD
ENDROOT
BRANCH   2   5
ATOM      5  C   UNL     1      45.416   7.555  11.940  0.00  0.00    +0.000 A 
ATOM      6  C   UNL     1      46.690   7.519  12.490  0.00  0.00    +0.000 A 
ATOM      7  S   UNL     1      47.394   9.060  12.682  0.00  0.00    +0.000 S 
ATOM      8  C   UNL     1      46.037   9.827  11.994  0.00  0.00    +0.000 A 
ATOM      9  N   UNL     1      46.006  11.175  11.825  0.00  0.00    +0.000 NA
ATOM     10  C   UNL     1      44.933  11.614  11.258  0.00  0.00    +0.000 A 
ATOM     11  N   UNL     1      43.879  10.830  10.861  0.00  0.00    +0.000 N 
ATOM     12  C   UNL     1      43.848   9.468  11.052  0.00  0.00    +0.000 A 
ATOM     13  O   UNL     1      42.866   8.803  10.746  0.00  0.00    +0.000 OA
ATOM     14  C   UNL     1      45.049   8.921  11.654  0.00  0.00    +0.000 A 
ATOM     15  H   UNL     1      43.058  11.240  10.442  0.00  0.00    +0.000 HD
ENDBRANCH   2   5
BRANCH   3  16
ATOM     16  C   UNL     1      44.106   4.530  10.145  0.00  0.00    +0.000 C 
BRANCH  16  17
ATOM     17  C   UNL     1      44.925   3.709   9.187  0.00  0.00    +0.000 A 
ATOM     18  C   UNL     1      45.672   4.334   8.184  0.00  0.00    +0.000 A 
ATOM     19  C   UNL     1      46.487   3.588   7.329  0.00  0.00    +0.000 A 
ATOM     20  C   UNL     1      46.581   2.195   7.453  0.00  0.00    +0.000 A 
ATOM     21  C   UNL     1      45.780   1.566   8.419  0.00  0.00    +0.000 A 
ATOM     22  C   UNL     1      44.960   2.312   9.275  0.00  0.00    +0.000 A 
BRANCH  20  23
ATOM     23  C   UNL     1      47.464   1.353   6.551  0.00  0.00    +0.000 C 
BRANCH  23  24
ATOM     24  C   UNL     1      47.510   1.815   5.085  0.00  0.00    +0.000 C 
BRANCH  24  25
ATOM     25  C   UNL     1      46.875   0.842   4.129  0.00  0.00    +0.000 A 
ATOM     26  C   UNL     1      46.001   1.269   3.128  0.00  0.00    +0.000 A 
ATOM     27  C   UNL     1      45.399   0.334   2.290  0.00  0.00    +0.000 A 
ATOM     28  C   UNL     1      45.701  -1.006   2.478  0.00  0.00    +0.000 A 
ATOM     29  N   UNL     1      46.551  -1.457   3.424  0.00  0.00    +0.000 NA
ATOM     30  C   UNL     1      47.116  -0.527   4.226  0.00  0.00    +0.000 A 
ENDBRANCH  24  25
ENDBRANCH  23  24
ENDBRANCH  20  23
ENDBRANCH  16  17
ENDBRANCH   3  16
TORSDOF 6
ENDMDL
MODEL 6
REMARK VINA RESULT:    -7.661      2.451      3.196
REMARK INTER + INTRA:         -11.570
REMARK INTER:                 -10.417
REMARK INTRA:                  -1.153
REMARK UNBOUND:                -1.222
REMARK  Name = 
REMARK  6 active torsions:
REMARK  status: ('A' for Active; 'I' for Inactive)
REMARK    1  A    between atoms: C_2  and  C_19
REMARK    2  A    between atoms: N_3  and  C_4
REMARK    3  A    between atoms: C_4  and  C_5
REMARK    4  A    between atoms: C_8  and  C_9
REMARK    5  A    between atoms: C_9  and  C_10
REMARK    6  A    between atoms: C_10  and  C_11
REMARK                            x       y       z     vdW  Elec       q    Type
REMARK                         _______ _______ _______ _____ _____    ______ ____
ROOT
ATOM      1  O   UNL     1      50.265   6.319  15.791  0.00  0.00    +0.000 OA
ATOM      2  C   UNL     1      49.125   6.397  16.243  0.00  0.00    +0.000 C 
ATOM      3  N   UNL     1      48.034   6.610  15.436  0.00  0.00    +0.000 N 
ATOM      4  H   UNL     1      47.152   6.893  15.853  0.00  0.00    +0.000 HD
ENDROOT
BRANCH   2   5
ATOM      5  C   UNL     1      48.862   6.226  17.674  0.00  0.00    +0.000 A 
ATOM      6  C   UNL     1      49.188   5.029  18.298  0.00  0.00    +0.000 A 
ATOM      7  S   UNL     1      48.823   5.007  19.964  0.00  0.00    +0.000 S 
ATOM      8  C   UNL     1      48.258   6.614  19.918  0.00  0.00    +0.000 A 
ATOM      9  N   UNL     1      47.822   7.235  21.046  0.00  0.00    +0.000 NA
ATOM     10  C   UNL     1      47.459   8.461  20.870  0.00  0.00    +0.000 A 
ATOM     11  N   UNL     1      47.474   9.117  19.665  0.00  0.00    +0.000 N 
ATOM     12  C   UNL     1      47.865   8.516  18.492  0.00  0.00    +0.000 A 
ATOM     13  O   UNL     1      47.806   9.108  17.421  0.00  0.00    +0.000 OA
ATOM     14  C   UNL     1      48.317   7.146  18.643  0.00  0.00    +0.000 A 
ATOM     15  H   UNL     1      47.156  10.072  19.592  0.00  0.00    +0.000 HD
ENDBRANCH   2   5
BRANCH   3  16
ATOM     16  C   UNL     1      48.220   6.891  14.037  0.00  0.00    +0.000 C 
BRANCH  16  17
ATOM     17  C   UNL     1      47.253   6.135  13.167  0.00  0.00    +0.000 A 
ATOM     18  C   UNL     1      46.670   4.951  13.627  0.00  0.00    +0.000 A 
ATOM     19  C   UNL     1      45.721   4.274  12.855  0.00  0.00    +0.000 A 
ATOM     20  C   UNL     1      45.327   4.763  11.602  0.00  0.00    +0.000 A 
ATOM     21  C   UNL     1      45.962   5.917  11.118  0.00  0.00    +0.000 A 
ATOM     22  C   UNL     1      46.915   6.595  11.889  0.00  0.00    +0.000 A 
BRANCH  20  23
ATOM     23  C   UNL     1      44.291   4.062  10.743  0.00  0.00    +0.000 C 
BRANCH  23  24
ATOM     24  C   UNL     1      44.436   4.311   9.232  0.00  0.00    +0.000 C 
BRANCH  24  25
ATOM     25  C   UNL     1      45.374   3.350   8.552  0.00  0.00    +0.000 A 
ATOM     26  C   UNL     1      46.252   3.774   7.553  0.00  0.00    +0.000 A 
ATOM     27  C   UNL     1      47.073   2.847   6.917  0.00  0.00    +0.000 A 
ATOM     28  C   UNL     1      46.995   1.521   7.312  0.00  0.00    +0.000 A 
ATOM     29  N   UNL     1      46.170   1.075   8.282  0.00  0.00    +0.000 NA
ATOM     30  C   UNL     1      45.381   1.996   8.878  0.00  0.00    +0.000 A 
ENDBRANCH  24  25
ENDBRANCH  23  24
ENDBRANCH  20  23
ENDBRANCH  16  17
ENDBRANCH   3  16
TORSDOF 6
ENDMDL
MODEL 7
REMARK VINA RESULT:    -7.482      2.683      4.458
REMARK INTER + INTRA:         -11.328
REMARK INTER:                 -10.124
REMARK INTRA:                  -1.205
REMARK UNBOUND:                -1.222
REMARK  Name = 
REMARK  6 active torsions:
REMARK  status: ('A' for Active; 'I' for Inactive)
REMARK    1  A    between atoms: C_2  and  C_19
REMARK    2  A    between atoms: N_3  and  C_4
REMARK    3  A    between atoms: C_4  and  C_5
REMARK    4  A    between atoms: C_8  and  C_9
REMARK    5  A    between atoms: C_9  and  C_10
REMARK    6  A    between atoms: C_10  and  C_11
REMARK                            x       y       z     vdW  Elec       q    Type
REMARK                         _______ _______ _______ _____ _____    ______ ____
ROOT
ATOM      1  O   UNL     1      49.741   6.536  15.139  0.00  0.00    +0.000 OA
ATOM      2  C   UNL     1      48.863   7.280  14.708  0.00  0.00    +0.000 C 
ATOM      3  N   UNL     1      47.617   6.815  14.365  0.00  0.00    +0.000 N 
ATOM      4  H   UNL     1      47.001   7.400  13.809  0.00  0.00    +0.000 HD
ENDROOT
BRANCH   2   5
ATOM      5  C   UNL     1      49.088   8.722  14.574  0.00  0.00    +0.000 A 
ATOM      6  C   UNL     1      49.323   9.492  15.704  0.00  0.00    +0.000 A 
ATOM      7  S   UNL     1      49.572  11.145  15.364  0.00  0.00    +0.000 S 
ATOM      8  C   UNL     1      49.419  10.879  13.688  0.00  0.00    +0.000 A 
ATOM      9  N   UNL     1      49.565  11.900  12.802  0.00  0.00    +0.000 NA
ATOM     10  C   UNL     1      49.461  11.547  11.565  0.00  0.00    +0.000 A 
ATOM     11  N   UNL     1      49.204  10.270  11.133  0.00  0.00    +0.000 N 
ATOM     12  C   UNL     1      49.006   9.216  11.994  0.00  0.00    +0.000 A 
ATOM     13  O   UNL     1      48.714   8.101  11.581  0.00  0.00    +0.000 OA
ATOM     14  C   UNL     1      49.149   9.555  13.397  0.00  0.00    +0.000 A 
ATOM     15  H   UNL     1      49.114  10.065  10.149  0.00  0.00    +0.000 HD
ENDBRANCH   2   5
BRANCH   3  16
ATOM     16  C   UNL     1      47.353   5.400  14.370  0.00  0.00    +0.000 C 
BRANCH  16  17
ATOM     17  C   UNL     1      46.481   4.976  13.219  0.00  0.00    +0.000 A 
ATOM     18  C   UNL     1      46.153   5.888  12.211  0.00  0.00    +0.000 A 
ATOM     19  C   UNL     1      45.399   5.491  11.104  0.00  0.00    +0.000 A 
ATOM     20  C   UNL     1      44.952   4.169  10.971  0.00  0.00    +0.000 A 
ATOM     21  C   UNL     1      45.230   3.274  12.016  0.00  0.00    +0.000 A 
ATOM     22  C   UNL     1      45.983   3.671  13.128  0.00  0.00    +0.000 A 
BRANCH  20  23
ATOM     23  C   UNL     1      44.142   3.698   9.778  0.00  0.00    +0.000 C 
BRANCH  23  24
ATOM     24  C   UNL     1      44.750   4.048   8.410  0.00  0.00    +0.000 C 
BRANCH  24  25
ATOM     25  C   UNL     1      45.752   3.037   7.922  0.00  0.00    +0.000 A 
ATOM     26  C   UNL     1      46.696   3.359   6.945  0.00  0.00    +0.000 A 
ATOM     27  C   UNL     1      47.578   2.384   6.488  0.00  0.00    +0.000 A 
ATOM     28  C   UNL     1      47.492   1.113   7.034  0.00  0.00    +0.000 A 
ATOM     29  N   UNL     1      46.604   0.767   7.990  0.00  0.00    +0.000 NA
ATOM     30  C   UNL     1      45.757   1.732   8.410  0.00  0.00    +0.000 A 
ENDBRANCH  24  25
ENDBRANCH  23  24
ENDBRANCH  20  23
ENDBRANCH  16  17
ENDBRANCH   3  16
TORSDOF 6
ENDMDL
MODEL 8
REMARK VINA RESULT:    -6.913      3.315      7.948
REMARK INTER + INTRA:         -10.560
REMARK INTER:                  -9.144
REMARK INTRA:                  -1.416
REMARK UNBOUND:                -1.222
REMARK  Name = 
REMARK  6 active torsions:
REMARK  status: ('A' for Active; 'I' for Inactive)
REMARK    1  A    between atoms: C_2  and  C_19
REMARK    2  A    between atoms: N_3  and  C_4
REMARK    3  A    between atoms: C_4  and  C_5
REMARK    4  A    between atoms: C_8  and  C_9
REMARK    5  A    between atoms: C_9  and  C_10
REMARK    6  A    between atoms: C_10  and  C_11
REMARK                            x       y       z     vdW  Elec       q    Type
REMARK                         _______ _______ _______ _____ _____    ______ ____
ROOT
ATOM      1  O   UNL     1      45.466   7.838  12.003  0.00  0.00    +0.000 OA
ATOM      2  C   UNL     1      46.177   6.977  11.490  0.00  0.00    +0.000 C 
ATOM      3  N   UNL     1      47.549   7.050  11.524  0.00  0.00    +0.000 N 
ATOM      4  H   UNL     1      48.095   6.456  10.907  0.00  0.00    +0.000 HD
ENDROOT
BRANCH   2   5
ATOM      5  C   UNL     1      45.595   5.796  10.846  0.00  0.00    +0.000 A 
ATOM      6  C   UNL     1      45.833   5.556   9.500  0.00  0.00    +0.000 A 
ATOM      7  S   UNL     1      45.089   4.136   8.919  0.00  0.00    +0.000 S 
ATOM      8  C   UNL     1      44.460   3.769  10.459  0.00  0.00    +0.000 A 
ATOM      9  N   UNL     1      43.738   2.637  10.668  0.00  0.00    +0.000 NA
ATOM     10  C   UNL     1      43.358   2.468  11.890  0.00  0.00    +0.000 A 
ATOM     11  N   UNL     1      43.618   3.338  12.919  0.00  0.00    +0.000 N 
ATOM     12  C   UNL     1      44.307   4.516  12.745  0.00  0.00    +0.000 A 
ATOM     13  O   UNL     1      44.467   5.303  13.669  0.00  0.00    +0.000 OA
ATOM     14  C   UNL     1      44.787   4.734  11.394  0.00  0.00    +0.000 A 
ATOM     15  H   UNL     1      43.272   3.157  13.850  0.00  0.00    +0.000 HD
ENDBRANCH   2   5
BRANCH   3  16
ATOM     16  C   UNL     1      48.192   8.227  12.044  0.00  0.00    +0.000 C 
BRANCH  16  17
ATOM     17  C   UNL     1      48.567   8.081  13.494  0.00  0.00    +0.000 A 
ATOM     18  C   UNL     1      47.864   8.785  14.477  0.00  0.00    +0.000 A 
ATOM     19  C   UNL     1      48.159   8.610  15.832  0.00  0.00    +0.000 A 
ATOM     20  C   UNL     1      49.164   7.723  16.243  0.00  0.00    +0.000 A 
ATOM     21  C   UNL     1      49.909   7.068  15.251  0.00  0.00    +0.000 A 
ATOM     22  C   UNL     1      49.616   7.245  13.892  0.00  0.00    +0.000 A 
BRANCH  20  23
ATOM     23  C   UNL     1      49.503   7.498  17.705  0.00  0.00    +0.000 C 
BRANCH  23  24
ATOM     24  C   UNL     1      48.514   6.598  18.463  0.00  0.00    +0.000 C 
BRANCH  24  25
ATOM     25  C   UNL     1      48.453   5.191  17.931  0.00  0.00    +0.000 A 
ATOM     26  C   UNL     1      49.571   4.355  17.952  0.00  0.00    +0.000 A 
ATOM     27  C   UNL     1      49.487   3.075  17.411  0.00  0.00    +0.000 A 
ATOM     28  C   UNL     1      48.277   2.669  16.871  0.00  0.00    +0.000 A 
ATOM     29  N   UNL     1      47.171   3.442  16.845  0.00  0.00    +0.000 NA
ATOM     30  C   UNL     1      47.283   4.681  17.372  0.00  0.00    +0.000 A 
ENDBRANCH  24  25
ENDBRANCH  23  24
ENDBRANCH  20  23
ENDBRANCH  16  17
ENDBRANCH   3  16
TORSDOF 6
ENDMDL
MODEL 9
REMARK VINA RESULT:    -6.680      4.918      7.267
REMARK INTER + INTRA:         -10.245
REMARK INTER:                  -9.114
REMARK INTRA:                  -1.131
REMARK UNBOUND:                -1.222
REMARK  Name = 
REMARK  6 active torsions:
REMARK  status: ('A' for Active; 'I' for Inactive)
REMARK    1  A    between atoms: C_2  and  C_19
REMARK    2  A    between atoms: N_3  and  C_4
REMARK    3  A    between atoms: C_4  and  C_5
REMARK    4  A    between atoms: C_8  and  C_9
REMARK    5  A    between atoms: C_9  and  C_10
REMARK    6  A    between atoms: C_10  and  C_11
REMARK                            x       y       z     vdW  Elec       q    Type
REMARK                         _______ _______ _______ _____ _____    ______ ____
ROOT
ATOM      1  O   UNL     1      44.313   7.810  11.352  0.00  0.00    +0.000 OA
ATOM      2  C   UNL     1      45.079   6.911  11.693  0.00  0.00    +0.000 C 
ATOM      3  N   UNL     1      46.311   7.173  12.241  0.00  0.00    +0.000 N 
ATOM      4  H   UNL     1      46.999   6.428  12.299  0.00  0.00    +0.000 HD
ENDROOT
BRANCH   2   5
ATOM      5  C   UNL     1      44.698   5.502  11.571  0.00  0.00    +0.000 A 
ATOM      6  C   UNL     1      43.973   4.892  12.586  0.00  0.00    +0.000 A 
ATOM      7  S   UNL     1      43.608   3.255  12.275  0.00  0.00    +0.000 S 
ATOM      8  C   UNL     1      44.368   3.318  10.751  0.00  0.00    +0.000 A 
ATOM      9  N   UNL     1      44.383   2.234   9.932  0.00  0.00    +0.000 NA
ATOM     10  C   UNL     1      44.960   2.436   8.795  0.00  0.00    +0.000 A 
ATOM     11  N   UNL     1      45.540   3.618   8.410  0.00  0.00    +0.000 N 
ATOM     12  C   UNL     1      45.588   4.726   9.224  0.00  0.00    +0.000 A 
ATOM     13  O   UNL     1      46.170   5.747   8.877  0.00  0.00    +0.000 OA
ATOM     14  C   UNL     1      44.920   4.561  10.500  0.00  0.00    +0.000 A 
ATOM     15  H   UNL     1      45.995   3.703   7.513  0.00  0.00    +0.000 HD
ENDBRANCH   2   5
BRANCH   3  16
ATOM     16  C   UNL     1      46.799   8.525  12.297  0.00  0.00    +0.000 C 
BRANCH  16  17
ATOM     17  C   UNL     1      48.233   8.636  11.854  0.00  0.00    +0.000 A 
ATOM     18  C   UNL     1      48.775   9.882  11.526  0.00  0.00    +0.000 A 
ATOM     19  C   UNL     1      50.122  10.008  11.176  0.00  0.00    +0.000 A 
ATOM     20  C   UNL     1      50.967   8.890  11.145  0.00  0.00    +0.000 A 
ATOM     21  C   UNL     1      50.403   7.633  11.412  0.00  0.00    +0.000 A 
ATOM     22  C   UNL     1      49.053   7.505  11.760  0.00  0.00    +0.000 A 
BRANCH  20  23
ATOM     23  C   UNL     1      52.437   8.989  10.781  0.00  0.00    +0.000 C 
BRANCH  23  24
ATOM     24  C   UNL     1      52.718   9.131   9.276  0.00  0.00    +0.000 C 
BRANCH  24  25
ATOM     25  C   UNL     1      52.975   7.818   8.587  0.00  0.00    +0.000 A 
ATOM     26  C   UNL     1      53.407   6.695   9.296  0.00  0.00    +0.000 A 
ATOM     27  C   UNL     1      53.676   5.510   8.617  0.00  0.00    +0.000 A 
ATOM     28  C   UNL     1      53.493   5.485   7.243  0.00  0.00    +0.000 A 
ATOM     29  N   UNL     1      53.064   6.544   6.525  0.00  0.00    +0.000 NA
ATOM     30  C   UNL     1      52.816   7.682   7.210  0.00  0.00    +0.000 A 
ENDBRANCH  24  25
ENDBRANCH  23  24
ENDBRANCH  20  23
ENDBRANCH  16  17
ENDBRANCH   3  16
TORSDOF 6
ENDMDL
