MODEL 1
REMARK VINA RESULT:    -7.380      0.000      0.000
REMARK INTER + INTRA:         -10.108
REMARK INTER:                  -9.106
REMARK INTRA:                  -1.002
REMARK UNBOUND:                -1.002
REMARK  Name = 
REMARK  4 active torsions:
REMARK  status: ('A' for Active; 'I' for Inactive)
REMARK    1  A    between atoms: C_5  and  N_6
REMARK    2  A    between atoms: N_6  and  C_7
REMARK    3  A    between atoms: C_7  and  C_8
REMARK    4  A    between atoms: C_12  and  C_13
REMARK                            x       y       z     vdW  Elec       q    Type
REMARK                         _______ _______ _______ _____ _____    ______ ____
ROOT
ATOM      1  C   UNL     1      46.347   7.316  12.399  0.00  0.00    +0.000 C 
ATOM      2  C   UNL     1      46.457   8.728  11.825  0.00  0.00    +0.000 C 
ATOM      3  C   UNL     1      45.722   8.505  13.103  0.00  0.00    +0.000 C 
ENDROOT
BRANCH   1   4
ATOM      4  C   UNL     1      45.383   6.339  11.731  0.00  0.00    +0.000 A 
ATOM      5  C   UNL     1      43.996   6.456  11.903  0.00  0.00    +0.000 A 
ATOM      6  C   UNL     1      43.107   5.647  11.198  0.00  0.00    +0.000 A 
ATOM      7  C   UNL     1      43.593   4.708  10.287  0.00  0.00    +0.000 A 
ATOM      8  C   UNL     1      44.972   4.549  10.073  0.00  0.00    +0.000 A 
ATOM      9  C   UNL     1      45.840   5.344  10.843  0.00  0.00    +0.000 A 
BRANCH   8  10
ATOM     10  C   UNL     1      45.500   3.671   9.005  0.00  0.00    +0.000 A 
ATOM     11  C   UNL     1      46.133   4.219   7.875  0.00  0.00    +0.000 A 
ATOM     12  C   UNL     1      46.723   3.407   6.901  0.00  0.00    +0.000 A 
ATOM     13  C   UNL     1      46.698   2.024   7.042  0.00  0.00    +0.000 A 
ATOM     14  C   UNL     1      46.070   1.454   8.144  0.00  0.00    +0.000 A 
ATOM     15  C   UNL     1      45.470   2.268   9.111  0.00  0.00    +0.000 A 
ENDBRANCH   8  10
ENDBRANCH   1   4
BRANCH   1  16
ATOM     16  N   UNL     1      47.632   6.737  12.821  0.00  0.00    +0.000 N 
ATOM     17  H   UNL     1      48.150   6.260  12.088  0.00  0.00    +0.000 HD
BRANCH  16  22
ATOM     18 CL   UNL     1      48.144   4.057  18.048  0.00  0.00    +0.000 Cl
ATOM     19  C   UNL     1      48.034   4.849  16.530  0.00  0.00    +0.000 A 
ATOM     20  C   UNL     1      47.327   4.288  15.479  0.00  0.00    +0.000 A 
ATOM     21  N   UNL     1      47.191   4.860  14.257  0.00  0.00    +0.000 NA
ATOM     22  C   UNL     1      47.799   6.052  14.049  0.00  0.00    +0.000 A 
ATOM     23  C   UNL     1      48.534   6.679  15.077  0.00  0.00    +0.000 A 
ATOM     24 CL   UNL     1      49.308   8.209  14.837  0.00  0.00    +0.000 Cl
ATOM     25  C   UNL     1      48.653   6.070  16.327  0.00  0.00    +0.000 A 
ENDBRANCH  16  22
ENDBRANCH   1  16
TORSDOF 4
ENDMDL
MODEL 2
REMARK VINA RESULT:    -7.259      3.102      5.178
REMARK INTER + INTRA:          -9.958
REMARK INTER:                  -8.923
REMARK INTRA:                  -1.035
REMARK UNBOUND:                -1.002
REMARK  Name = 
REMARK  4 active torsions:
REMARK  status: ('A' for Active; 'I' for Inactive)
REMARK    1  A    between atoms: C_5  and  N_6
REMARK    2  A    between atoms: N_6  and  C_7
REMARK    3  A    between atoms: C_7  and  C_8
REMARK    4  A    between atoms: C_12  and  C_13
REMARK                            x       y       z     vdW  Elec       q    Type
REMARK                         _______ _______ _______ _____ _____    ______ ____
ROOT
ATOM      1  C   UNL     1      45.729   7.704  12.305  0.00  0.00    +0.000 C 
ATOM      2  C   UNL     1      46.843   7.499  13.332  0.00  0.00    +0.000 C 
ATOM      3  C   UNL     1      47.192   7.769  11.907  0.00  0.00    +0.000 C 
ENDROOT
BRANCH   1   4
ATOM      4  C   UNL     1      44.952   6.478  11.831  0.00  0.00    +0.000 A 
ATOM      5  C   UNL     1      43.621   6.268  12.219  0.00  0.00    +0.000 A 
ATOM      6  C   UNL     1      42.868   5.221  11.692  0.00  0.00    +0.000 A 
ATOM      7  C   UNL     1      43.433   4.366  10.744  0.00  0.00    +0.000 A 
ATOM      8  C   UNL     1      44.761   4.530  10.317  0.00  0.00    +0.000 A 
ATOM      9  C   UNL     1      45.507   5.564  10.913  0.00  0.00    +0.000 A 
BRANCH   8  10
ATOM     10  C   UNL     1      45.327   3.734   9.206  0.00  0.00    +0.000 A 
ATOM     11  C   UNL     1      45.928   4.367   8.103  0.00  0.00    +0.000 A 
ATOM     12  C   UNL     1      46.554   3.635   7.090  0.00  0.00    +0.000 A 
ATOM     13  C   UNL     1      46.598   2.247   7.162  0.00  0.00    +0.000 A 
ATOM     14  C   UNL     1      46.003   1.593   8.236  0.00  0.00    +0.000 A 
ATOM     15  C   UNL     1      45.368   2.328   9.242  0.00  0.00    +0.000 A 
ENDBRANCH   8  10
ENDBRANCH   1   4
BRANCH   1  16
ATOM     16  N   UNL     1      44.919   8.911  12.528  0.00  0.00    +0.000 N 
ATOM     17  H   UNL     1      44.150   8.798  13.183  0.00  0.00    +0.000 HD
BRANCH  16  22
ATOM     18 CL   UNL     1      43.491  12.411   8.002  0.00  0.00    +0.000 Cl
ATOM     19  C   UNL     1      43.919  11.425   9.340  0.00  0.00    +0.000 A 
ATOM     20  C   UNL     1      43.136  10.345   9.713  0.00  0.00    +0.000 A 
ATOM     21  N   UNL     1      43.417   9.519  10.752  0.00  0.00    +0.000 NA
ATOM     22  C   UNL     1      44.529   9.779  11.479  0.00  0.00    +0.000 A 
ATOM     23  C   UNL     1      45.371  10.862  11.152  0.00  0.00    +0.000 A 
ATOM     24 CL   UNL     1      46.805  11.204  12.061  0.00  0.00    +0.000 Cl
ATOM     25  C   UNL     1      45.061  11.693  10.075  0.00  0.00    +0.000 A 
ENDBRANCH  16  22
ENDBRANCH   1  16
TORSDOF 4
ENDMDL
MODEL 3
REMARK VINA RESULT:    -6.950      3.392      7.152
REMARK INTER + INTRA:          -9.577
REMARK INTER:                  -9.589
REMARK INTRA:                   0.012
REMARK UNBOUND:                -1.002
REMARK  Name = 
REMARK  4 active torsions:
REMARK  status: ('A' for Active; 'I' for Inactive)
REMARK    1  A    between atoms: C_5  and  N_6
REMARK    2  A    between atoms: N_6  and  C_7
REMARK    3  A    between atoms: C_7  and  C_8
REMARK    4  A    between atoms: C_12  and  C_13
REMARK                            x       y       z     vdW  Elec       q    Type
REMARK                         _______ _______ _______ _____ _____    ______ ____
ROOT
ATOM      1  C   UNL     1      43.957   5.011  11.096  0.00  0.00    +0.000 C 
ATOM      2  C   UNL     1      43.185   4.040  11.988  0.00  0.00    +0.000 C 
ATOM      3  C   UNL     1      42.748   5.462  11.892  0.00  0.00    +0.000 C 
ENDROOT
BRANCH   1   4
ATOM      4  C   UNL     1      45.315   5.513  11.581  0.00  0.00    +0.000 A 
ATOM      5  C   UNL     1      45.999   6.530  10.900  0.00  0.00    +0.000 A 
ATOM      6  C   UNL     1      47.176   7.077  11.407  0.00  0.00    +0.000 A 
ATOM      7  C   UNL     1      47.687   6.625  12.625  0.00  0.00    +0.000 A 
ATOM      8  C   UNL     1      47.042   5.610  13.351  0.00  0.00    +0.000 A 
ATOM      9  C   UNL     1      45.887   5.043  12.781  0.00  0.00    +0.000 A 
BRANCH   8  10
ATOM     10  C   UNL     1      47.480   5.226  14.711  0.00  0.00    +0.000 A 
ATOM     11  C   UNL     1      48.330   6.063  15.455  0.00  0.00    +0.000 A 
ATOM     12  C   UNL     1      48.678   5.766  16.776  0.00  0.00    +0.000 A 
ATOM     13  C   UNL     1      48.175   4.623  17.386  0.00  0.00    +0.000 A 
ATOM     14  C   UNL     1      47.340   3.769  16.671  0.00  0.00    +0.000 A 
ATOM     15  C   UNL     1      47.003   4.064  15.346  0.00  0.00    +0.000 A 
ENDBRANCH   8  10
ENDBRANCH   1   4
BRANCH   1  16
ATOM     16  N   UNL     1      43.883   4.697   9.660  0.00  0.00    +0.000 N 
ATOM     17  H   UNL     1      42.979   4.365   9.339  0.00  0.00    +0.000 HD
BRANCH  16  22
ATOM     18 CL   UNL     1      47.995   1.784   6.600  0.00  0.00    +0.000 Cl
ATOM     19  C   UNL     1      46.805   2.607   7.521  0.00  0.00    +0.000 A 
ATOM     20  C   UNL     1      46.665   3.983   7.445  0.00  0.00    +0.000 A 
ATOM     21  N   UNL     1      45.744   4.698   8.137  0.00  0.00    +0.000 NA
ATOM     22  C   UNL     1      44.916   4.020   8.968  0.00  0.00    +0.000 A 
ATOM     23  C   UNL     1      45.004   2.618   9.091  0.00  0.00    +0.000 A 
ATOM     24 CL   UNL     1      43.947   1.730  10.137  0.00  0.00    +0.000 Cl
ATOM     25  C   UNL     1      45.958   1.907   8.363  0.00  0.00    +0.000 A 
ENDBRANCH  16  22
ENDBRANCH   1  16
TORSDOF 4
ENDMDL
MODEL 4
REMARK VINA RESULT:    -6.934      3.603      6.807
REMARK INTER + INTRA:          -9.557
REMARK INTER:                  -8.435
REMARK INTRA:                  -1.122
REMARK UNBOUND:                -1.002
REMARK  Name = 
REMARK  4 active torsions:
REMARK  status: ('A' for Active; 'I' for Inactive)
REMARK    1  A    between atoms: C_5  and  N_6
REMARK    2  A    between atoms: N_6  and  C_7
REMARK    3  A    between atoms: C_7  and  C_8
REMARK    4  A    between atoms: C_12  and  C_13
REMARK                            x       y       z     vdW  Elec       q    Type
REMARK                         _______ _______ _______ _____ _____    ______ ____
ROOT
ATOM      1  C   UNL     1      43.768   5.404  11.010  0.00  0.00    +0.000 C 
ATOM      2  C   UNL     1      42.437   5.762  11.669  0.00  0.00    +0.000 C 
ATOM      3  C   UNL     1      43.245   6.828  11.009  0.00  0.00    +0.000 C 
ENDROOT
BRANCH   1   4
ATOM      4  C   UNL     1      44.967   5.123  11.912  0.00  0.00    +0.000 A 
ATOM      5  C   UNL     1      45.145   3.869  12.513  0.00  0.00    +0.000 A 
ATOM      6  C   UNL     1      46.298   3.567  13.234  0.00  0.00    +0.000 A 
ATOM      7  C   UNL     1      47.313   4.519  13.355  0.00  0.00    +0.000 A 
ATOM      8  C   UNL     1      47.190   5.790  12.772  0.00  0.00    +0.000 A 
ATOM      9  C   UNL     1      45.988   6.078  12.099  0.00  0.00    +0.000 A 
BRANCH   8  10
ATOM     10  C   UNL     1      48.312   6.754  12.757  0.00  0.00    +0.000 A 
ATOM     11  C   UNL     1      48.550   7.561  11.630  0.00  0.00    +0.000 A 
ATOM     12  C   UNL     1      49.544   8.544  11.630  0.00  0.00    +0.000 A 
ATOM     13  C   UNL     1      50.320   8.747  12.765  0.00  0.00    +0.000 A 
ATOM     14  C   UNL     1      50.114   7.957  13.892  0.00  0.00    +0.000 A 
ATOM     15  C   UNL     1      49.127   6.967  13.885  0.00  0.00    +0.000 A 
ENDBRANCH   8  10
ENDBRANCH   1   4
BRANCH   1  16
ATOM     16  N   UNL     1      43.643   4.517   9.842  0.00  0.00    +0.000 N 
ATOM     17  H   UNL     1      42.953   3.778   9.936  0.00  0.00    +0.000 HD
BRANCH  16  22
ATOM     18 CL   UNL     1      48.129   2.449   6.623  0.00  0.00    +0.000 Cl
ATOM     19  C   UNL     1      46.831   3.023   7.587  0.00  0.00    +0.000 A 
ATOM     20  C   UNL     1      46.571   4.378   7.707  0.00  0.00    +0.000 A 
ATOM     21  N   UNL     1      45.560   4.902   8.444  0.00  0.00    +0.000 NA
ATOM     22  C   UNL     1      44.761   4.040   9.117  0.00  0.00    +0.000 A 
ATOM     23  C   UNL     1      44.969   2.647   9.037  0.00  0.00    +0.000 A 
ATOM     24 CL   UNL     1      43.951   1.527   9.879  0.00  0.00    +0.000 Cl
ATOM     25  C   UNL     1      46.014   2.136   8.268  0.00  0.00    +0.000 A 
ENDBRANCH  16  22
ENDBRANCH   1  16
TORSDOF 4
ENDMDL
MODEL 5
REMARK VINA RESULT:    -6.445      3.811      7.399
REMARK INTER + INTRA:          -8.953
REMARK INTER:                  -8.648
REMARK INTRA:                  -0.306
REMARK UNBOUND:                -1.002
REMARK  Name = 
REMARK  4 active torsions:
REMARK  status: ('A' for Active; 'I' for Inactive)
REMARK    1  A    between atoms: C_5  and  N_6
REMARK    2  A    between atoms: N_6  and  C_7
REMARK    3  A    between atoms: C_7  and  C_8
REMARK    4  A    between atoms: C_12  and  C_13
REMARK                            x       y       z     vdW  Elec       q    Type
REMARK                         _______ _______ _______ _____ _____    ______ ____
ROOT
ATOM      1  C   UNL     1      44.260   4.809  11.354  0.00  0.00    +0.000 C 
ATOM      2  C   UNL     1      44.452   3.533  12.174  0.00  0.00    +0.000 C 
ATOM      3  C   UNL     1      43.250   4.386  12.404  0.00  0.00    +0.000 C 
ENDROOT
BRANCH   1   4
ATOM      4  C   UNL     1      45.124   6.020  11.694  0.00  0.00    +0.000 A 
ATOM      5  C   UNL     1      46.495   5.884  11.957  0.00  0.00    +0.000 A 
ATOM      6  C   UNL     1      47.312   6.997  12.144  0.00  0.00    +0.000 A 
ATOM      7  C   UNL     1      46.771   8.281  12.053  0.00  0.00    +0.000 A 
ATOM      8  C   UNL     1      45.405   8.477  11.790  0.00  0.00    +0.000 A 
ATOM      9  C   UNL     1      44.601   7.329  11.662  0.00  0.00    +0.000 A 
BRANCH   8  10
ATOM     10  C   UNL     1      44.845   9.823  11.538  0.00  0.00    +0.000 A 
ATOM     11  C   UNL     1      45.609  10.977  11.790  0.00  0.00    +0.000 A 
ATOM     12  C   UNL     1      45.135  12.253  11.470  0.00  0.00    +0.000 A 
ATOM     13  C   UNL     1      43.884  12.402  10.883  0.00  0.00    +0.000 A 
ATOM     14  C   UNL     1      43.101  11.279  10.631  0.00  0.00    +0.000 A 
ATOM     15  C   UNL     1      43.573  10.005  10.963  0.00  0.00    +0.000 A 
ENDBRANCH   8  10
ENDBRANCH   1   4
BRANCH   1  16
ATOM     16  N   UNL     1      44.048   4.574   9.917  0.00  0.00    +0.000 N 
ATOM     17  H   UNL     1      43.155   4.152   9.677  0.00  0.00    +0.000 HD
BRANCH  16  22
ATOM     18 CL   UNL     1      48.070   2.445   6.169  0.00  0.00    +0.000 Cl
ATOM     19  C   UNL     1      46.906   3.032   7.283  0.00  0.00    +0.000 A 
ATOM     20  C   UNL     1      46.805   4.384   7.569  0.00  0.00    +0.000 A 
ATOM     21  N   UNL     1      45.906   4.920   8.430  0.00  0.00    +0.000 NA
ATOM     22  C   UNL     1      45.060   4.072   9.063  0.00  0.00    +0.000 A 
ATOM     23  C   UNL     1      45.107   2.684   8.818  0.00  0.00    +0.000 A 
ATOM     24 CL   UNL     1      44.027   1.584   9.606  0.00  0.00    +0.000 Cl
ATOM     25  C   UNL     1      46.040   2.161   7.922  0.00  0.00    +0.000 A 
ENDBRANCH  16  22
ENDBRANCH   1  16
TORSDOF 4
ENDMDL
MODEL 6
REMARK VINA RESULT:    -6.392      1.683      2.592
REMARK INTER + INTRA:          -8.889
REMARK INTER:                  -7.830
REMARK INTRA:                  -1.059
REMARK UNBOUND:                -1.002
REMARK  Name = 
REMARK  4 active torsions:
REMARK  status: ('A' for Active; 'I' for Inactive)
REMARK    1  A    between atoms: C_5  and  N_6
REMARK    2  A    between atoms: N_6  and  C_7
REMARK    3  A    between atoms: C_7  and  C_8
REMARK    4  A    between atoms: C_12  and  C_13
REMARK                            x       y       z     vdW  Elec       q    Type
REMARK                         _______ _______ _______ _____ _____    ______ ____
ROOT
ATOM      1  C   UNL     1      48.634   8.183  12.475  0.00  0.00    +0.000 C 
ATOM      2  C   UNL     1      49.351   9.053  11.444  0.00  0.00    +0.000 C 
ATOM      3  C   UNL     1      48.874   9.661  12.719  0.00  0.00    +0.000 C 
ENDROOT
BRANCH   1   4
ATOM      4  C   UNL     1      47.192   7.768  12.191  0.00  0.00    +0.000 A 
ATOM      5  C   UNL     1      46.122   8.634  12.457  0.00  0.00    +0.000 A 
ATOM      6  C   UNL     1      44.819   8.312  12.084  0.00  0.00    +0.000 A 
ATOM      7  C   UNL     1      44.561   7.113  11.417  0.00  0.00    +0.000 A 
ATOM      8  C   UNL     1      45.595   6.209  11.123  0.00  0.00    +0.000 A 
ATOM      9  C   UNL     1      46.889   6.543  11.564  0.00  0.00    +0.000 A 
BRANCH   8  10
ATOM     10  C   UNL     1      45.368   5.010  10.285  0.00  0.00    +0.000 A 
ATOM     11  C   UNL     1      44.644   3.913  10.784  0.00  0.00    +0.000 A 
ATOM     12  C   UNL     1      44.337   2.812   9.979  0.00  0.00    +0.000 A 
ATOM     13  C   UNL     1      44.744   2.788   8.650  0.00  0.00    +0.000 A 
ATOM     14  C   UNL     1      45.471   3.856   8.132  0.00  0.00    +0.000 A 
ATOM     15  C   UNL     1      45.787   4.950   8.943  0.00  0.00    +0.000 A 
ENDBRANCH   8  10
ENDBRANCH   1   4
BRANCH   1  16
ATOM     16  N   UNL     1      49.479   7.138  13.074  0.00  0.00    +0.000 N 
ATOM     17  H   UNL     1      49.524   6.269  12.550  0.00  0.00    +0.000 HD
BRANCH  16  22
ATOM     18 CL   UNL     1      49.419   6.235  18.900  0.00  0.00    +0.000 Cl
ATOM     19  C   UNL     1      49.477   6.495  17.205  0.00  0.00    +0.000 A 
ATOM     20  C   UNL     1      48.532   5.933  16.361  0.00  0.00    +0.000 A 
ATOM     21  N   UNL     1      48.511   6.103  15.016  0.00  0.00    +0.000 NA
ATOM     22  C   UNL     1      49.488   6.860  14.463  0.00  0.00    +0.000 A 
ATOM     23  C   UNL     1      50.480   7.463  15.264  0.00  0.00    +0.000 A 
ATOM     24 CL   UNL     1      51.729   8.446  14.578  0.00  0.00    +0.000 Cl
ATOM     25  C   UNL     1      50.474   7.276  16.647  0.00  0.00    +0.000 A 
ENDBRANCH  16  22
ENDBRANCH   1  16
TORSDOF 4
ENDMDL
MODEL 7
REMARK VINA RESULT:    -6.387      2.034      3.391
REMARK INTER + INTRA:          -8.883
REMARK INTER:                  -8.229
REMARK INTRA:                  -0.654
REMARK UNBOUND:                -1.002
REMARK  Name = 
REMARK  4 active torsions:
REMARK  status: ('A' for Active; 'I' for Inactive)
REMARK    1  A    between atoms: C_5  and  N_6
REMARK    2  A    between atoms: N_6  and  C_7
REMARK    3  A    between atoms: C_7  and  C_8
REMARK    4  A    between atoms: C_12  and  C_13
REMARK                            x       y       z     vdW  Elec       q    Type
REMARK                         _______ _______ _______ _____ _____    ______ ____
ROOT
ATOM      1  C   UNL     1      43.855   6.116  11.953  0.00  0.00    +0.000 C 
ATOM      2  C   UNL     1      43.616   7.196  10.899  0.00  0.00    +0.000 C 
ATOM      3  C   UNL     1      42.481   6.722  11.743  0.00  0.00    +0.000 C 
ENDROOT
BRANCH   1   4
ATOM      4  C   UNL     1      44.041   4.676  11.481  0.00  0.00    +0.000 A 
ATOM      5  C   UNL     1      43.275   3.632  12.018  0.00  0.00    +0.000 A 
ATOM      6  C   UNL     1      43.351   2.339  11.505  0.00  0.00    +0.000 A 
ATOM      7  C   UNL     1      44.192   2.067  10.423  0.00  0.00    +0.000 A 
ATOM      8  C   UNL     1      44.980   3.075   9.844  0.00  0.00    +0.000 A 
ATOM      9  C   UNL     1      44.918   4.355  10.425  0.00  0.00    +0.000 A 
BRANCH   8  10
ATOM     10  C   UNL     1      45.756   2.844   8.606  0.00  0.00    +0.000 A 
ATOM     11  C   UNL     1      46.247   1.563   8.296  0.00  0.00    +0.000 A 
ATOM     12  C   UNL     1      46.900   1.303   7.087  0.00  0.00    +0.000 A 
ATOM     13  C   UNL     1      47.070   2.321   6.156  0.00  0.00    +0.000 A 
ATOM     14  C   UNL     1      46.604   3.601   6.440  0.00  0.00    +0.000 A 
ATOM     15  C   UNL     1      45.961   3.861   7.655  0.00  0.00    +0.000 A 
ENDBRANCH   8  10
ENDBRANCH   1   4
BRANCH   1  16
ATOM     16  N   UNL     1      44.740   6.533  13.053  0.00  0.00    +0.000 N 
ATOM     17  H   UNL     1      44.315   7.154  13.735  0.00  0.00    +0.000 HD
BRANCH  16  22
ATOM     18 CL   UNL     1      50.378   7.895  11.992  0.00  0.00    +0.000 Cl
ATOM     19  C   UNL     1      48.749   7.479  12.334  0.00  0.00    +0.000 A 
ATOM     20  C   UNL     1      47.716   8.370  12.092  0.00  0.00    +0.000 A 
ATOM     21  N   UNL     1      46.407   8.108  12.330  0.00  0.00    +0.000 NA
ATOM     22  C   UNL     1      46.094   6.898  12.852  0.00  0.00    +0.000 A 
ATOM     23  C   UNL     1      47.096   5.943  13.121  0.00  0.00    +0.000 A 
ATOM     24 CL   UNL     1      46.716   4.386  13.776  0.00  0.00    +0.000 Cl
ATOM     25  C   UNL     1      48.435   6.239  12.862  0.00  0.00    +0.000 A 
ENDBRANCH  16  22
ENDBRANCH   1  16
TORSDOF 4
ENDMDL
MODEL 8
REMARK VINA RESULT:    -6.330      2.100      3.004
REMARK INTER + INTRA:          -8.812
REMARK INTER:                  -7.710
REMARK INTRA:                  -1.102
REMARK UNBOUND:                -1.002
REMARK  Name = 
REMARK  4 active torsions:
REMARK  status: ('A' for Active; 'I' for Inactive)
REMARK    1  A    between atoms: C_5  and  N_6
REMARK    2  A    between atoms: N_6  and  C_7
REMARK    3  A    between atoms: C_7  and  C_8
REMARK    4  A    between atoms: C_12  and  C_13
REMARK                            x       y       z     vdW  Elec       q    Type
REMARK                         _______ _______ _______ _____ _____    ______ ____
ROOT
ATOM      1  C   UNL     1      48.926   7.985  12.492  0.00  0.00    +0.000 C 
ATOM      2  C   UNL     1      49.802   8.395  11.309  0.00  0.00    +0.000 C 
ATOM      3  C   UNL     1      49.405   9.415  12.322  0.00  0.00    +0.000 C 
ENDROOT
BRANCH   1   4
ATOM      4  C   UNL     1      47.443   7.732  12.238  0.00  0.00    +0.000 A 
ATOM      5  C   UNL     1      46.482   8.718  12.504  0.00  0.00    +0.000 A 
ATOM      6  C   UNL     1      45.144   8.540  12.157  0.00  0.00    +0.000 A 
ATOM      7  C   UNL     1      44.741   7.366  11.517  0.00  0.00    +0.000 A 
ATOM      8  C   UNL     1      45.661   6.346  11.225  0.00  0.00    +0.000 A 
ATOM      9  C   UNL     1      46.992   6.538  11.639  0.00  0.00    +0.000 A 
BRANCH   8  10
ATOM     10  C   UNL     1      45.286   5.166  10.413  0.00  0.00    +0.000 A 
ATOM     11  C   UNL     1      45.679   5.068   9.066  0.00  0.00    +0.000 A 
ATOM     12  C   UNL     1      45.419   3.922   8.310  0.00  0.00    +0.000 A 
ATOM     13  C   UNL     1      44.762   2.842   8.889  0.00  0.00    +0.000 A 
ATOM     14  C   UNL     1      44.352   2.914  10.216  0.00  0.00    +0.000 A 
ATOM     15  C   UNL     1      44.604   4.067  10.967  0.00  0.00    +0.000 A 
ENDBRANCH   8  10
ENDBRANCH   1   4
BRANCH   1  16
ATOM     16  N   UNL     1      49.571   7.044  13.421  0.00  0.00    +0.000 N 
ATOM     17  H   UNL     1      49.423   6.061  13.209  0.00  0.00    +0.000 HD
BRANCH  16  22
ATOM     18 CL   UNL     1      49.746   7.600  19.289  0.00  0.00    +0.000 Cl
ATOM     19  C   UNL     1      49.655   7.435  17.583  0.00  0.00    +0.000 A 
ATOM     20  C   UNL     1      50.473   8.177  16.746  0.00  0.00    +0.000 A 
ATOM     21  N   UNL     1      50.461   8.092  15.393  0.00  0.00    +0.000 NA
ATOM     22  C   UNL     1      49.581   7.235  14.824  0.00  0.00    +0.000 A 
ATOM     23  C   UNL     1      48.720   6.448  15.618  0.00  0.00    +0.000 A 
ATOM     24 CL   UNL     1      47.597   5.335  14.912  0.00  0.00    +0.000 Cl
ATOM     25  C   UNL     1      48.757   6.551  17.009  0.00  0.00    +0.000 A 
ENDBRANCH  16  22
ENDBRANCH   1  16
TORSDOF 4
ENDMDL
MODEL 9
REMARK VINA RESULT:    -6.267      3.775      7.001
REMARK INTER + INTRA:          -8.734
REMARK INTER:                  -8.677
REMARK INTRA:                  -0.058
REMARK UNBOUND:                -1.002
REMARK  Name = 
REMARK  4 active torsions:
REMARK  status: ('A' for Active; 'I' for Inactive)
REMARK    1  A    between atoms: C_5  and  N_6
REMARK    2  A    between atoms: N_6  and  C_7
REMARK    3  A    between atoms: C_7  and  C_8
REMARK    4  A    between atoms: C_12  and  C_13
REMARK                            x       y       z     vdW  Elec       q    Type
REMARK                         _______ _______ _______ _____ _____    ______ ____
ROOT
ATOM      1  C   UNL     1      44.997   5.704  11.687  0.00  0.00    +0.000 C 
ATOM      2  C   UNL     1      45.588   4.539  12.482  0.00  0.00    +0.000 C 
ATOM      3  C   UNL     1      44.377   5.245  12.993  0.00  0.00    +0.000 C 
ENDROOT
BRANCH   1   4
ATOM      4  C   UNL     1      45.730   7.043  11.718  0.00  0.00    +0.000 A 
ATOM      5  C   UNL     1      45.026   8.254  11.772  0.00  0.00    +0.000 A 
ATOM      6  C   UNL     1      45.688   9.471  11.926  0.00  0.00    +0.000 A 
ATOM      7  C   UNL     1      47.079   9.497  12.047  0.00  0.00    +0.000 A 
ATOM      8  C   UNL     1      47.834   8.314  12.002  0.00  0.00    +0.000 A 
ATOM      9  C   UNL     1      47.137   7.111  11.789  0.00  0.00    +0.000 A 
BRANCH   8  10
ATOM     10  C   UNL     1      49.287   8.305  12.281  0.00  0.00    +0.000 A 
ATOM     11  C   UNL     1      50.215   8.098  11.245  0.00  0.00    +0.000 A 
ATOM     12  C   UNL     1      51.593   8.181  11.469  0.00  0.00    +0.000 A 
ATOM     13  C   UNL     1      52.073   8.480  12.739  0.00  0.00    +0.000 A 
ATOM     14  C   UNL     1      51.179   8.680  13.786  0.00  0.00    +0.000 A 
ATOM     15  C   UNL     1      49.802   8.585  13.561  0.00  0.00    +0.000 A 
ENDBRANCH   8  10
ENDBRANCH   1   4
BRANCH   1  16
ATOM     16  N   UNL     1      44.448   5.322  10.377  0.00  0.00    +0.000 N 
ATOM     17  H   UNL     1      43.457   5.098  10.375  0.00  0.00    +0.000 HD
BRANCH  16  22
ATOM     18 CL   UNL     1      47.066   1.755   6.479  0.00  0.00    +0.000 Cl
ATOM     19  C   UNL     1      46.309   2.765   7.642  0.00  0.00    +0.000 A 
ATOM     20  C   UNL     1      46.537   4.131   7.662  0.00  0.00    +0.000 A 
ATOM     21  N   UNL     1      45.968   4.989   8.544  0.00  0.00    +0.000 NA
ATOM     22  C   UNL     1      45.132   4.470   9.476  0.00  0.00    +0.000 A 
ATOM     23  C   UNL     1      44.855   3.088   9.511  0.00  0.00    +0.000 A 
ATOM     24 CL   UNL     1      43.780   2.407  10.684  0.00  0.00    +0.000 Cl
ATOM     25  C   UNL     1      45.451   2.229   8.587  0.00  0.00    +0.000 A 
ENDBRANCH  16  22
ENDBRANCH   1  16
TORSDOF 4
ENDMDL
