MODEL 1
REMARK VINA RESULT:    -8.275      0.000      0.000
REMARK INTER + INTRA:         -11.464
REMARK INTER:                 -10.694
REMARK INTRA:                  -0.771
REMARK UNBOUND:                -0.771
REMARK  Name = 
REMARK  5 active torsions:
REMARK  status: ('A' for Active; 'I' for Inactive)
REMARK    1  A    between atoms: C_2  and  C_4
REMARK    2  A    between atoms: C_8  and  O_9
REMARK    3  A    between atoms: O_9  and  C_10
REMARK    4  A    between atoms: C_10  and  C_11
REMARK    5  A    between atoms: C_16  and  N_17
REMARK                            x       y       z     vdW  Elec       q    Type
REMARK                         _______ _______ _______ _____ _____    ______ ____
ROOT
ATOM      1  C   UNL     1      43.508   4.012  11.171  0.00  0.00    +0.000 C 
ENDROOT
BRANCH   1   2
ATOM      2  C   UNL     1      44.673   4.459  12.016  0.00  0.00    +0.000 A 
ATOM      3  C   UNL     1      45.410   3.555  12.781  0.00  0.00    +0.000 A 
ATOM      4  C   UNL     1      46.545   3.995  13.455  0.00  0.00    +0.000 A 
ATOM      5  F   UNL     1      47.267   3.115  14.162  0.00  0.00    +0.000 F 
ATOM      6  C   UNL     1      46.973   5.321  13.377  0.00  0.00    +0.000 A 
ATOM      7  C   UNL     1      46.259   6.249  12.616  0.00  0.00    +0.000 A 
ATOM      8  C   UNL     1      45.083   5.800  11.984  0.00  0.00    +0.000 A 
BRANCH   7   9
ATOM      9  N   UNL     1      46.642   7.578  12.438  0.00  0.00    +0.000 N 
ATOM     10  C   UNL     1      45.792   8.667  12.933  0.00  0.00    +0.000 C 
ATOM     11  C   UNL     1      46.138   9.942  12.155  0.00  0.00    +0.000 C 
ATOM     12  C   UNL     1      47.635  10.261  12.204  0.00  0.00    +0.000 C 
ATOM     13  C   UNL     1      48.481   9.049  11.823  0.00  0.00    +0.000 C 
ATOM     14  C   UNL     1      48.081   7.825  12.641  0.00  0.00    +0.000 C 
ENDBRANCH   7   9
ENDBRANCH   1   2
BRANCH   1  15
ATOM     15  O   UNL     1      43.838   2.856  10.407  0.00  0.00    +0.000 OA
BRANCH  15  20
ATOM     16  C   UNL     1      46.311   1.980   7.882  0.00  0.00    +0.000 A 
ATOM     17  C   UNL     1      46.628   3.223   7.323  0.00  0.00    +0.000 A 
ATOM     18  C   UNL     1      45.990   4.374   7.779  0.00  0.00    +0.000 A 
ATOM     19  C   UNL     1      45.045   4.291   8.803  0.00  0.00    +0.000 A 
ATOM     20  C   UNL     1      44.733   3.058   9.385  0.00  0.00    +0.000 A 
ATOM     21  C   UNL     1      45.370   1.902   8.920  0.00  0.00    +0.000 A 
BRANCH  16  23
ATOM     22  N   UNL     1      47.852   0.966   6.294  0.00  0.00    +0.000 N 
ATOM     23  C   UNL     1      47.008   0.780   7.354  0.00  0.00    +0.000 C 
ATOM     24  O   UNL     1      46.877  -0.321   7.869  0.00  0.00    +0.000 OA
ATOM     25  H   UNL     1      48.404   0.166   6.013  0.00  0.00    +0.000 HD
ATOM     26  H   UNL     1      48.169   1.881   6.005  0.00  0.00    +0.000 HD
ENDBRANCH  16  23
ENDBRANCH  15  20
ENDBRANCH   1  15
TORSDOF 5
ENDMDL
MODEL 2
REMARK VINA RESULT:    -7.619      1.375      1.798
REMARK INTER + INTRA:         -10.617
REMARK INTER:                  -9.611
REMARK INTRA:                  -1.006
REMARK UNBOUND:                -0.771
REMARK  Name = 
REMARK  5 active torsions:
REMARK  status: ('A' for Active; 'I' for Inactive)
REMARK    1  A    between atoms: C_2  and  C_4
REMARK    2  A    between atoms: C_8  and  O_9
REMARK    3  A    between atoms: O_9  and  C_10
REMARK    4  A    between atoms: C_10  and  C_11
REMARK    5  A    between atoms: C_16  and  N_17
REMARK                            x       y       z     vdW  Elec       q    Type
REMARK                         _______ _______ _______ _____ _____    ______ ____
ROOT
ATOM      1  C   UNL     1      43.891   4.751  10.703  0.00  0.00    +0.000 C 
ENDROOT
BRANCH   1   2
ATOM      2  C   UNL     1      45.034   4.979  11.659  0.00  0.00    +0.000 A 
ATOM      3  C   UNL     1      45.420   4.007  12.581  0.00  0.00    +0.000 A 
ATOM      4  C   UNL     1      46.550   4.217  13.364  0.00  0.00    +0.000 A 
ATOM      5  F   UNL     1      46.934   3.264  14.225  0.00  0.00    +0.000 F 
ATOM      6  C   UNL     1      47.318   5.375  13.243  0.00  0.00    +0.000 A 
ATOM      7  C   UNL     1      46.960   6.366  12.326  0.00  0.00    +0.000 A 
ATOM      8  C   UNL     1      45.784   6.162  11.580  0.00  0.00    +0.000 A 
BRANCH   7   9
ATOM      9  N   UNL     1      47.696   7.529  12.100  0.00  0.00    +0.000 N 
ATOM     10  C   UNL     1      47.199   8.825  12.574  0.00  0.00    +0.000 C 
ATOM     11  C   UNL     1      47.870   9.930  11.751  0.00  0.00    +0.000 C 
ATOM     12  C   UNL     1      49.396   9.817  11.765  0.00  0.00    +0.000 C 
ATOM     13  C   UNL     1      49.858   8.407  11.408  0.00  0.00    +0.000 C 
ATOM     14  C   UNL     1      49.151   7.366  12.270  0.00  0.00    +0.000 C 
ENDBRANCH   7   9
ENDBRANCH   1   2
BRANCH   1  15
ATOM     15  O   UNL     1      44.336   4.783   9.350  0.00  0.00    +0.000 OA
BRANCH  15  20
ATOM     16  C   UNL     1      46.474   2.693   7.273  0.00  0.00    +0.000 A 
ATOM     17  C   UNL     1      46.221   1.409   7.769  0.00  0.00    +0.000 A 
ATOM     18  C   UNL     1      45.336   1.236   8.831  0.00  0.00    +0.000 A 
ATOM     19  C   UNL     1      44.694   2.342   9.392  0.00  0.00    +0.000 A 
ATOM     20  C   UNL     1      44.923   3.628   8.893  0.00  0.00    +0.000 A 
ATOM     21  C   UNL     1      45.817   3.799   7.830  0.00  0.00    +0.000 A 
BRANCH  16  23
ATOM     22  N   UNL     1      48.732   2.472   6.389  0.00  0.00    +0.000 N 
ATOM     23  C   UNL     1      47.434   2.828   6.147  0.00  0.00    +0.000 C 
ATOM     24  O   UNL     1      47.078   3.193   5.036  0.00  0.00    +0.000 OA
ATOM     25  H   UNL     1      49.353   2.463   5.591  0.00  0.00    +0.000 HD
ATOM     26  H   UNL     1      49.008   1.943   7.205  0.00  0.00    +0.000 HD
ENDBRANCH  16  23
ENDBRANCH  15  20
ENDBRANCH   1  15
TORSDOF 5
ENDMDL
MODEL 3
REMARK VINA RESULT:    -7.521      2.782      6.780
REMARK INTER + INTRA:         -10.490
REMARK INTER:                  -9.601
REMARK INTRA:                  -0.889
REMARK UNBOUND:                -0.771
REMARK  Name = 
REMARK  5 active torsions:
REMARK  status: ('A' for Active; 'I' for Inactive)
REMARK    1  A    between atoms: C_2  and  C_4
REMARK    2  A    between atoms: C_8  and  O_9
REMARK    3  A    between atoms: O_9  and  C_10
REMARK    4  A    between atoms: C_10  and  C_11
REMARK    5  A    between atoms: C_16  and  N_17
REMARK                            x       y       z     vdW  Elec       q    Type
REMARK                         _______ _______ _______ _____ _____    ______ ____
ROOT
ATOM      1  C   UNL     1      44.582   6.578  10.729  0.00  0.00    +0.000 C 
ENDROOT
BRANCH   1   2
ATOM      2  C   UNL     1      44.562   5.083  10.540  0.00  0.00    +0.000 A 
ATOM      3  C   UNL     1      43.717   4.263  11.287  0.00  0.00    +0.000 A 
ATOM      4  C   UNL     1      43.652   2.904  10.999  0.00  0.00    +0.000 A 
ATOM      5  F   UNL     1      42.813   2.128  11.699  0.00  0.00    +0.000 F 
ATOM      6  C   UNL     1      44.407   2.338   9.971  0.00  0.00    +0.000 A 
ATOM      7  C   UNL     1      45.261   3.133   9.203  0.00  0.00    +0.000 A 
ATOM      8  C   UNL     1      45.354   4.496   9.542  0.00  0.00    +0.000 A 
BRANCH   7   9
ATOM      9  N   UNL     1      46.010   2.664   8.124  0.00  0.00    +0.000 N 
ATOM     10  C   UNL     1      46.278   1.230   7.975  0.00  0.00    +0.000 C 
ATOM     11  C   UNL     1      47.516   1.059   7.088  0.00  0.00    +0.000 C 
ATOM     12  C   UNL     1      47.380   1.799   5.755  0.00  0.00    +0.000 C 
ATOM     13  C   UNL     1      46.955   3.251   5.959  0.00  0.00    +0.000 C 
ATOM     14  C   UNL     1      45.717   3.338   6.846  0.00  0.00    +0.000 C 
ENDBRANCH   7   9
ENDBRANCH   1   2
BRANCH   1  15
ATOM     15  O   UNL     1      44.657   6.923  12.109  0.00  0.00    +0.000 OA
BRANCH  15  20
ATOM     16  C   UNL     1      47.189   5.411  14.244  0.00  0.00    +0.000 A 
ATOM     17  C   UNL     1      48.297   6.239  14.036  0.00  0.00    +0.000 A 
ATOM     18  C   UNL     1      48.208   7.311  13.151  0.00  0.00    +0.000 A 
ATOM     19  C   UNL     1      47.010   7.566  12.480  0.00  0.00    +0.000 A 
ATOM     20  C   UNL     1      45.888   6.758  12.694  0.00  0.00    +0.000 A 
ATOM     21  C   UNL     1      45.983   5.678  13.579  0.00  0.00    +0.000 A 
BRANCH  16  23
ATOM     22  N   UNL     1      47.174   4.544  16.519  0.00  0.00    +0.000 N 
ATOM     23  C   UNL     1      47.336   4.273  15.188  0.00  0.00    +0.000 C 
ATOM     24  O   UNL     1      47.544   3.134  14.799  0.00  0.00    +0.000 OA
ATOM     25  H   UNL     1      47.168   3.748  17.143  0.00  0.00    +0.000 HD
ATOM     26  H   UNL     1      46.767   5.407  16.853  0.00  0.00    +0.000 HD
ENDBRANCH  16  23
ENDBRANCH  15  20
ENDBRANCH   1  15
TORSDOF 5
ENDMDL
MODEL 4
REMARK VINA RESULT:    -7.318      2.564      4.043
REMARK INTER + INTRA:         -10.227
REMARK INTER:                  -9.212
REMARK INTRA:                  -1.016
REMARK UNBOUND:                -0.771
REMARK  Name = 
REMARK  5 active torsions:
REMARK  status: ('A' for Active; 'I' for Inactive)
REMARK    1  A    between atoms: C_2  and  C_4
REMARK    2  A    between atoms: C_8  and  O_9
REMARK    3  A    between atoms: O_9  and  C_10
REMARK    4  A    between atoms: C_10  and  C_11
REMARK    5  A    between atoms: C_16  and  N_17
REMARK                            x       y       z     vdW  Elec       q    Type
REMARK                         _______ _______ _______ _____ _____    ______ ____
ROOT
ATOM      1  C   UNL     1      44.762   5.573  11.535  0.00  0.00    +0.000 C 
ENDROOT
BRANCH   1   2
ATOM      2  C   UNL     1      46.116   5.945  12.082  0.00  0.00    +0.000 A 
ATOM      3  C   UNL     1      46.914   6.907  11.463  0.00  0.00    +0.000 A 
ATOM      4  C   UNL     1      48.105   7.298  12.066  0.00  0.00    +0.000 A 
ATOM      5  F   UNL     1      48.851   8.246  11.482  0.00  0.00    +0.000 F 
ATOM      6  C   UNL     1      48.519   6.759  13.284  0.00  0.00    +0.000 A 
ATOM      7  C   UNL     1      47.740   5.797  13.931  0.00  0.00    +0.000 A 
ATOM      8  C   UNL     1      46.565   5.373  13.281  0.00  0.00    +0.000 A 
BRANCH   7   9
ATOM      9  N   UNL     1      48.047   5.244  15.174  0.00  0.00    +0.000 N 
ATOM     10  C   UNL     1      48.591   6.086  16.245  0.00  0.00    +0.000 C 
ATOM     11  C   UNL     1      49.324   5.183  17.244  0.00  0.00    +0.000 C 
ATOM     12  C   UNL     1      48.439   4.041  17.750  0.00  0.00    +0.000 C 
ATOM     13  C   UNL     1      47.778   3.289  16.598  0.00  0.00    +0.000 C 
ATOM     14  C   UNL     1      47.067   4.253  15.653  0.00  0.00    +0.000 C 
ENDBRANCH   7   9
ENDBRANCH   1   2
BRANCH   1  15
ATOM     15  O   UNL     1      44.783   5.498  10.112  0.00  0.00    +0.000 OA
BRANCH  15  20
ATOM     16  C   UNL     1      46.244   2.975   7.932  0.00  0.00    +0.000 A 
ATOM     17  C   UNL     1      45.593   1.806   8.339  0.00  0.00    +0.000 A 
ATOM     18  C   UNL     1      44.663   1.852   9.376  0.00  0.00    +0.000 A 
ATOM     19  C   UNL     1      44.373   3.067  10.000  0.00  0.00    +0.000 A 
ATOM     20  C   UNL     1      45.001   4.247   9.589  0.00  0.00    +0.000 A 
ATOM     21  C   UNL     1      45.939   4.196   8.552  0.00  0.00    +0.000 A 
BRANCH  16  23
ATOM     22  N   UNL     1      47.049   3.687   5.747  0.00  0.00    +0.000 N 
ATOM     23  C   UNL     1      47.236   2.873   6.830  0.00  0.00    +0.000 C 
ATOM     24  O   UNL     1      48.206   2.133   6.902  0.00  0.00    +0.000 OA
ATOM     25  H   UNL     1      47.786   3.689   5.054  0.00  0.00    +0.000 HD
ATOM     26  H   UNL     1      46.412   4.471   5.759  0.00  0.00    +0.000 HD
ENDBRANCH  16  23
ENDBRANCH  15  20
ENDBRANCH   1  15
TORSDOF 5
ENDMDL
MODEL 5
REMARK VINA RESULT:    -7.217      2.878      7.086
REMARK INTER + INTRA:         -10.097
REMARK INTER:                  -9.353
REMARK INTRA:                  -0.744
REMARK UNBOUND:                -0.771
REMARK  Name = 
REMARK  5 active torsions:
REMARK  status: ('A' for Active; 'I' for Inactive)
REMARK    1  A    between atoms: C_2  and  C_4
REMARK    2  A    between atoms: C_8  and  O_9
REMARK    3  A    between atoms: O_9  and  C_10
REMARK    4  A    between atoms: C_10  and  C_11
REMARK    5  A    between atoms: C_16  and  N_17
REMARK                            x       y       z     vdW  Elec       q    Type
REMARK                         _______ _______ _______ _____ _____    ______ ____
ROOT
ATOM      1  C   UNL     1      46.220   5.595  13.703  0.00  0.00    +0.000 C 
ENDROOT
BRANCH   1   2
ATOM      2  C   UNL     1      45.227   5.128  12.670  0.00  0.00    +0.000 A 
ATOM      3  C   UNL     1      43.876   5.468  12.749  0.00  0.00    +0.000 A 
ATOM      4  C   UNL     1      43.019   5.109  11.714  0.00  0.00    +0.000 A 
ATOM      5  F   UNL     1      41.730   5.467  11.781  0.00  0.00    +0.000 F 
ATOM      6  C   UNL     1      43.478   4.422  10.590  0.00  0.00    +0.000 A 
ATOM      7  C   UNL     1      44.825   4.070  10.479  0.00  0.00    +0.000 A 
ATOM      8  C   UNL     1      45.669   4.394  11.559  0.00  0.00    +0.000 A 
BRANCH   7   9
ATOM      9  N   UNL     1      45.382   3.433   9.371  0.00  0.00    +0.000 N 
ATOM     10  C   UNL     1      45.033   2.042   9.063  0.00  0.00    +0.000 C 
ATOM     11  C   UNL     1      46.143   1.448   8.189  0.00  0.00    +0.000 C 
ATOM     12  C   UNL     1      46.421   2.299   6.948  0.00  0.00    +0.000 C 
ATOM     13  C   UNL     1      46.631   3.767   7.309  0.00  0.00    +0.000 C 
ATOM     14  C   UNL     1      45.486   4.286   8.173  0.00  0.00    +0.000 C 
ENDBRANCH   7   9
ENDBRANCH   1   2
BRANCH   1  15
ATOM     15  O   UNL     1      47.526   5.714  13.145  0.00  0.00    +0.000 OA
BRANCH  15  20
ATOM     16  C   UNL     1      47.037   9.197  12.205  0.00  0.00    +0.000 A 
ATOM     17  C   UNL     1      48.318   9.586  11.799  0.00  0.00    +0.000 A 
ATOM     18  C   UNL     1      49.373   8.677  11.860  0.00  0.00    +0.000 A 
ATOM     19  C   UNL     1      49.149   7.376  12.314  0.00  0.00    +0.000 A 
ATOM     20  C   UNL     1      47.869   6.968  12.703  0.00  0.00    +0.000 A 
ATOM     21  C   UNL     1      46.813   7.885  12.647  0.00  0.00    +0.000 A 
BRANCH  16  23
ATOM     22  N   UNL     1      44.725   9.834  12.621  0.00  0.00    +0.000 N 
ATOM     23  C   UNL     1      45.948  10.204  12.133  0.00  0.00    +0.000 C 
ATOM     24  O   UNL     1      46.139  11.332  11.704  0.00  0.00    +0.000 OA
ATOM     25  H   UNL     1      44.021  10.559  12.668  0.00  0.00    +0.000 HD
ATOM     26  H   UNL     1      44.594   9.013  13.196  0.00  0.00    +0.000 HD
ENDBRANCH  16  23
ENDBRANCH  15  20
ENDBRANCH   1  15
TORSDOF 5
ENDMDL
MODEL 6
REMARK VINA RESULT:    -7.129      3.234      7.102
REMARK INTER + INTRA:          -9.983
REMARK INTER:                  -9.111
REMARK INTRA:                  -0.872
REMARK UNBOUND:                -0.771
REMARK  Name = 
REMARK  5 active torsions:
REMARK  status: ('A' for Active; 'I' for Inactive)
REMARK    1  A    between atoms: C_2  and  C_4
REMARK    2  A    between atoms: C_8  and  O_9
REMARK    3  A    between atoms: O_9  and  C_10
REMARK    4  A    between atoms: C_10  and  C_11
REMARK    5  A    between atoms: C_16  and  N_17
REMARK                            x       y       z     vdW  Elec       q    Type
REMARK                         _______ _______ _______ _____ _____    ______ ____
ROOT
ATOM      1  C   UNL     1      46.208   7.545  12.131  0.00  0.00    +0.000 C 
ENDROOT
BRANCH   1   2
ATOM      2  C   UNL     1      45.267   6.477  11.634  0.00  0.00    +0.000 A 
ATOM      3  C   UNL     1      43.911   6.489  11.961  0.00  0.00    +0.000 A 
ATOM      4  C   UNL     1      43.061   5.548  11.387  0.00  0.00    +0.000 A 
ATOM      5  F   UNL     1      41.754   5.585  11.680  0.00  0.00    +0.000 F 
ATOM      6  C   UNL     1      43.530   4.596  10.482  0.00  0.00    +0.000 A 
ATOM      7  C   UNL     1      44.882   4.560  10.132  0.00  0.00    +0.000 A 
ATOM      8  C   UNL     1      45.737   5.484  10.762  0.00  0.00    +0.000 A 
BRANCH   7   9
ATOM      9  N   UNL     1      45.428   3.680   9.198  0.00  0.00    +0.000 N 
ATOM     10  C   UNL     1      44.896   2.320   9.062  0.00  0.00    +0.000 C 
ATOM     11  C   UNL     1      45.973   1.443   8.414  0.00  0.00    +0.000 C 
ATOM     12  C   UNL     1      46.487   2.034   7.099  0.00  0.00    +0.000 C 
ATOM     13  C   UNL     1      46.890   3.498   7.261  0.00  0.00    +0.000 C 
ATOM     14  C   UNL     1      45.768   4.304   7.907  0.00  0.00    +0.000 C 
ENDBRANCH   7   9
ENDBRANCH   1   2
BRANCH   1  15
ATOM     15  O   UNL     1      47.558   7.090  12.116  0.00  0.00    +0.000 OA
BRANCH  15  20
ATOM     16  C   UNL     1      48.115   5.522  15.354  0.00  0.00    +0.000 A 
ATOM     17  C   UNL     1      49.121   6.321  15.910  0.00  0.00    +0.000 A 
ATOM     18  C   UNL     1      49.640   7.391  15.185  0.00  0.00    +0.000 A 
ATOM     19  C   UNL     1      49.150   7.673  13.909  0.00  0.00    +0.000 A 
ATOM     20  C   UNL     1      48.131   6.896  13.349  0.00  0.00    +0.000 A 
ATOM     21  C   UNL     1      47.616   5.818  14.078  0.00  0.00    +0.000 A 
BRANCH  16  23
ATOM     22  N   UNL     1      47.007   4.688  17.355  0.00  0.00    +0.000 N 
ATOM     23  C   UNL     1      47.602   4.386  16.161  0.00  0.00    +0.000 C 
ATOM     24  O   UNL     1      47.660   3.232  15.762  0.00  0.00    +0.000 OA
ATOM     25  H   UNL     1      46.565   3.922  17.844  0.00  0.00    +0.000 HD
ATOM     26  H   UNL     1      46.726   5.628  17.600  0.00  0.00    +0.000 HD
ENDBRANCH  16  23
ENDBRANCH  15  20
ENDBRANCH   1  15
TORSDOF 5
ENDMDL
MODEL 7
REMARK VINA RESULT:    -7.061      3.803      7.751
REMARK INTER + INTRA:          -9.895
REMARK INTER:                  -9.228
REMARK INTRA:                  -0.667
REMARK UNBOUND:                -0.771
REMARK  Name = 
REMARK  5 active torsions:
REMARK  status: ('A' for Active; 'I' for Inactive)
REMARK    1  A    between atoms: C_2  and  C_4
REMARK    2  A    between atoms: C_8  and  O_9
REMARK    3  A    between atoms: O_9  and  C_10
REMARK    4  A    between atoms: C_10  and  C_11
REMARK    5  A    between atoms: C_16  and  N_17
REMARK                            x       y       z     vdW  Elec       q    Type
REMARK                         _______ _______ _______ _____ _____    ______ ____
ROOT
ATOM      1  C   UNL     1      46.243   5.102  13.984  0.00  0.00    +0.000 C 
ENDROOT
BRANCH   1   2
ATOM      2  C   UNL     1      45.253   4.822  12.882  0.00  0.00    +0.000 A 
ATOM      3  C   UNL     1      43.936   5.276  12.951  0.00  0.00    +0.000 A 
ATOM      4  C   UNL     1      43.091   5.091  11.861  0.00  0.00    +0.000 A 
ATOM      5  F   UNL     1      41.836   5.558  11.922  0.00  0.00    +0.000 F 
ATOM      6  C   UNL     1      43.532   4.471  10.692  0.00  0.00    +0.000 A 
ATOM      7  C   UNL     1      44.846   4.009  10.591  0.00  0.00    +0.000 A 
ATOM      8  C   UNL     1      45.672   4.155  11.721  0.00  0.00    +0.000 A 
BRANCH   7   9
ATOM      9  N   UNL     1      45.387   3.427   9.445  0.00  0.00    +0.000 N 
ATOM     10  C   UNL     1      45.056   2.042   9.090  0.00  0.00    +0.000 C 
ATOM     11  C   UNL     1      46.156   1.504   8.168  0.00  0.00    +0.000 C 
ATOM     12  C   UNL     1      46.388   2.409   6.955  0.00  0.00    +0.000 C 
ATOM     13  C   UNL     1      46.580   3.865   7.369  0.00  0.00    +0.000 C 
ATOM     14  C   UNL     1      45.447   4.327   8.279  0.00  0.00    +0.000 C 
ENDBRANCH   7   9
ENDBRANCH   1   2
BRANCH   1  15
ATOM     15  O   UNL     1      46.187   4.099  14.994  0.00  0.00    +0.000 OA
BRANCH  15  20
ATOM     16  C   UNL     1      49.088   5.434  16.743  0.00  0.00    +0.000 A 
ATOM     17  C   UNL     1      49.250   4.530  17.798  0.00  0.00    +0.000 A 
ATOM     18  C   UNL     1      48.364   3.466  17.945  0.00  0.00    +0.000 A 
ATOM     19  C   UNL     1      47.321   3.294  17.032  0.00  0.00    +0.000 A 
ATOM     20  C   UNL     1      47.159   4.178  15.961  0.00  0.00    +0.000 A 
ATOM     21  C   UNL     1      48.048   5.250  15.820  0.00  0.00    +0.000 A 
BRANCH  16  23
ATOM     22  N   UNL     1      50.176   7.379  17.723  0.00  0.00    +0.000 N 
ATOM     23  C   UNL     1      50.051   6.560  16.635  0.00  0.00    +0.000 C 
ATOM     24  O   UNL     1      50.741   6.726  15.640  0.00  0.00    +0.000 OA
ATOM     25  H   UNL     1      50.909   8.074  17.681  0.00  0.00    +0.000 HD
ATOM     26  H   UNL     1      49.811   7.134  18.633  0.00  0.00    +0.000 HD
ENDBRANCH  16  23
ENDBRANCH  15  20
ENDBRANCH   1  15
TORSDOF 5
ENDMDL
MODEL 8
REMARK VINA RESULT:    -7.057      4.267      7.666
REMARK INTER + INTRA:          -9.891
REMARK INTER:                  -9.232
REMARK INTRA:                  -0.659
REMARK UNBOUND:                -0.771
REMARK  Name = 
REMARK  5 active torsions:
REMARK  status: ('A' for Active; 'I' for Inactive)
REMARK    1  A    between atoms: C_2  and  C_4
REMARK    2  A    between atoms: C_8  and  O_9
REMARK    3  A    between atoms: O_9  and  C_10
REMARK    4  A    between atoms: C_10  and  C_11
REMARK    5  A    between atoms: C_16  and  N_17
REMARK                            x       y       z     vdW  Elec       q    Type
REMARK                         _______ _______ _______ _____ _____    ______ ____
ROOT
ATOM      1  C   UNL     1      46.807   4.450  14.356  0.00  0.00    +0.000 C 
ENDROOT
BRANCH   1   2
ATOM      2  C   UNL     1      45.712   4.387  13.323  0.00  0.00    +0.000 A 
ATOM      3  C   UNL     1      44.449   4.928  13.562  0.00  0.00    +0.000 A 
ATOM      4  C   UNL     1      43.507   4.947  12.539  0.00  0.00    +0.000 A 
ATOM      5  F   UNL     1      42.307   5.498  12.766  0.00  0.00    +0.000 F 
ATOM      6  C   UNL     1      43.798   4.446  11.269  0.00  0.00    +0.000 A 
ATOM      7  C   UNL     1      45.054   3.901  10.996  0.00  0.00    +0.000 A 
ATOM      8  C   UNL     1      45.978   3.841  12.058  0.00  0.00    +0.000 A 
BRANCH   7   9
ATOM      9  N   UNL     1      45.450   3.428   9.746  0.00  0.00    +0.000 N 
ATOM     10  C   UNL     1      45.065   2.082   9.308  0.00  0.00    +0.000 C 
ATOM     11  C   UNL     1      46.042   1.632   8.215  0.00  0.00    +0.000 C 
ATOM     12  C   UNL     1      46.138   2.644   7.072  0.00  0.00    +0.000 C 
ATOM     13  C   UNL     1      46.393   4.056   7.592  0.00  0.00    +0.000 C 
ATOM     14  C   UNL     1      45.380   4.432   8.669  0.00  0.00    +0.000 C 
ENDBRANCH   7   9
ENDBRANCH   1   2
BRANCH   1  15
ATOM     15  O   UNL     1      46.342   4.006  15.628  0.00  0.00    +0.000 OA
BRANCH  15  20
ATOM     16  C   UNL     1      49.374   3.155  17.454  0.00  0.00    +0.000 A 
ATOM     17  C   UNL     1      49.268   3.944  18.605  0.00  0.00    +0.000 A 
ATOM     18  C   UNL     1      48.175   4.793  18.768  0.00  0.00    +0.000 A 
ATOM     19  C   UNL     1      47.181   4.848  17.790  0.00  0.00    +0.000 A 
ATOM     20  C   UNL     1      47.265   4.051  16.644  0.00  0.00    +0.000 A 
ATOM     21  C   UNL     1      48.367   3.204  16.480  0.00  0.00    +0.000 A 
BRANCH  16  23
ATOM     22  N   UNL     1      51.628   2.537  18.137  0.00  0.00    +0.000 N 
ATOM     23  C   UNL     1      50.563   2.275  17.320  0.00  0.00    +0.000 C 
ATOM     24  O   UNL     1      50.579   1.325  16.551  0.00  0.00    +0.000 OA
ATOM     25  H   UNL     1      52.387   1.869  18.116  0.00  0.00    +0.000 HD
ATOM     26  H   UNL     1      51.560   3.147  18.940  0.00  0.00    +0.000 HD
ENDBRANCH  16  23
ENDBRANCH  15  20
ENDBRANCH   1  15
TORSDOF 5
ENDMDL
MODEL 9
REMARK VINA RESULT:    -7.041      3.256      7.395
REMARK INTER + INTRA:          -9.870
REMARK INTER:                  -8.935
REMARK INTRA:                  -0.935
REMARK UNBOUND:                -0.771
REMARK  Name = 
REMARK  5 active torsions:
REMARK  status: ('A' for Active; 'I' for Inactive)
REMARK    1  A    between atoms: C_2  and  C_4
REMARK    2  A    between atoms: C_8  and  O_9
REMARK    3  A    between atoms: O_9  and  C_10
REMARK    4  A    between atoms: C_10  and  C_11
REMARK    5  A    between atoms: C_16  and  N_17
REMARK                            x       y       z     vdW  Elec       q    Type
REMARK                         _______ _______ _______ _____ _____    ______ ____
ROOT
ATOM      1  C   UNL     1      46.132   4.661  14.028  0.00  0.00    +0.000 C 
ENDROOT
BRANCH   1   2
ATOM      2  C   UNL     1      45.179   4.512  12.869  0.00  0.00    +0.000 A 
ATOM      3  C   UNL     1      43.893   5.049  12.907  0.00  0.00    +0.000 A 
ATOM      4  C   UNL     1      43.090   4.985  11.773  0.00  0.00    +0.000 A 
ATOM      5  F   UNL     1      41.868   5.532  11.806  0.00  0.00    +0.000 F 
ATOM      6  C   UNL     1      43.544   4.403  10.589  0.00  0.00    +0.000 A 
ATOM      7  C   UNL     1      44.829   3.859  10.518  0.00  0.00    +0.000 A 
ATOM      8  C   UNL     1      45.608   3.884  11.690  0.00  0.00    +0.000 A 
BRANCH   7   9
ATOM      9  N   UNL     1      45.384   3.306   9.364  0.00  0.00    +0.000 N 
ATOM     10  C   UNL     1      45.098   1.915   8.996  0.00  0.00    +0.000 C 
ATOM     11  C   UNL     1      46.211   1.423   8.064  0.00  0.00    +0.000 C 
ATOM     12  C   UNL     1      46.408   2.347   6.860  0.00  0.00    +0.000 C 
ATOM     13  C   UNL     1      46.553   3.805   7.288  0.00  0.00    +0.000 C 
ATOM     14  C   UNL     1      45.409   4.220   8.208  0.00  0.00    +0.000 C 
ENDBRANCH   7   9
ENDBRANCH   1   2
BRANCH   1  15
ATOM     15  O   UNL     1      47.461   4.899  13.574  0.00  0.00    +0.000 OA
BRANCH  15  20
ATOM     16  C   UNL     1      48.503   8.267  14.484  0.00  0.00    +0.000 A 
ATOM     17  C   UNL     1      48.485   8.934  13.254  0.00  0.00    +0.000 A 
ATOM     18  C   UNL     1      48.139   8.245  12.094  0.00  0.00    +0.000 A 
ATOM     19  C   UNL     1      47.800   6.892  12.160  0.00  0.00    +0.000 A 
ATOM     20  C   UNL     1      47.795   6.218  13.385  0.00  0.00    +0.000 A 
ATOM     21  C   UNL     1      48.149   6.911  14.548  0.00  0.00    +0.000 A 
BRANCH  16  23
ATOM     22  N   UNL     1      47.928   9.828  16.261  0.00  0.00    +0.000 N 
ATOM     23  C   UNL     1      48.890   9.041  15.691  0.00  0.00    +0.000 C 
ATOM     24  O   UNL     1      50.002   8.947  16.189  0.00  0.00    +0.000 OA
ATOM     25  H   UNL     1      48.166  10.264  17.141  0.00  0.00    +0.000 HD
ATOM     26  H   UNL     1      46.948   9.743  16.028  0.00  0.00    +0.000 HD
ENDBRANCH  16  23
ENDBRANCH  15  20
ENDBRANCH   1  15
TORSDOF 5
ENDMDL
