MODEL 1
REMARK VINA RESULT:    -7.639      0.000      0.000
REMARK INTER + INTRA:         -11.763
REMARK INTER:                 -10.764
REMARK INTRA:                  -0.999
REMARK UNBOUND:                -0.999
REMARK  Name = 
REMARK  9 active torsions:
REMARK  status: ('A' for Active; 'I' for Inactive)
REMARK    1  A    between atoms: C_1  and  C_2
REMARK    2  A    between atoms: C_2  and  C_3
REMARK    3  A    between atoms: C_2  and  N_18
REMARK    4  A    between atoms: C_6  and  C_7
REMARK    5  A    between atoms: C_7  and  N_8
REMARK    6  A    between atoms: N_8  and  C_9
REMARK    7  A    between atoms: C_9  and  C_10
REMARK    8  A    between atoms: N_18  and  C_19
REMARK    9  A    between atoms: C_20  and  C_22
REMARK                            x       y       z     vdW  Elec       q    Type
REMARK                         _______ _______ _______ _____ _____    ______ ____
ROOT
ATOM      1  C   UNL     1      49.392   7.252  12.558  0.00  0.00    +0.000 C 
ATOM      2  C   UNL     1      48.488   6.391  13.465  0.00  0.00    +0.000 C 
ENDROOT
BRANCH   2   3
ATOM      3  C   UNL     1      47.143   6.105  12.818  0.00  0.00    +0.000 A 
ATOM      4  C   UNL     1      46.797   6.670  11.582  0.00  0.00    +0.000 A 
ATOM      5  C   UNL     1      45.591   6.368  10.951  0.00  0.00    +0.000 A 
ATOM      6  C   UNL     1      44.692   5.482  11.558  0.00  0.00    +0.000 A 
ATOM      7  C   UNL     1      45.006   4.936  12.796  0.00  0.00    +0.000 A 
ATOM      8  C   UNL     1      46.216   5.249  13.434  0.00  0.00    +0.000 A 
BRANCH   6   9
ATOM      9  C   UNL     1      43.406   5.126  10.838  0.00  0.00    +0.000 C 
BRANCH   9  10
ATOM     10  N   UNL     1      43.684   4.487   9.548  0.00  0.00    +0.000 NA
ATOM     11  H   UNL     1      44.386   5.048   9.058  0.00  0.00    +0.000 HD
BRANCH  10  12
ATOM     12  C   UNL     1      44.220   3.134   9.729  0.00  0.00    +0.000 C 
BRANCH  12  13
ATOM     13  C   UNL     1      45.322   2.820   8.736  0.00  0.00    +0.000 A 
ATOM     14  C   UNL     1      45.870   3.823   7.955  0.00  0.00    +0.000 A 
ATOM     15  C   UNL     1      46.867   3.444   7.087  0.00  0.00    +0.000 A 
ATOM     16  N   UNL     1      47.311   2.180   6.968  0.00  0.00    +0.000 NA
ATOM     17  C   UNL     1      46.716   1.282   7.767  0.00  0.00    +0.000 A 
ATOM     18  N   UNL     1      45.740   1.535   8.653  0.00  0.00    +0.000 NA
ENDBRANCH  12  13
ENDBRANCH  10  12
ENDBRANCH   9  10
ENDBRANCH   6   9
ENDBRANCH   2   3
BRANCH   2  19
ATOM     19  N   UNL     1      48.372   6.973  14.817  0.00  0.00    +0.000 N 
ATOM     20  C   UNL     1      47.794   8.301  14.984  0.00  0.00    +0.000 C 
ATOM     21  C   UNL     1      48.628   6.145  15.918  0.00  0.00    +0.000 C 
ATOM     22  O   UNL     1      48.657   4.921  15.831  0.00  0.00    +0.000 OA
BRANCH  21  23
ATOM     23  C   UNL     1      49.070   6.792  17.172  0.00  0.00    +0.000 A 
ATOM     24  C   UNL     1      50.069   7.751  17.239  0.00  0.00    +0.000 A 
ATOM     25  S   UNL     1      50.735   7.928  18.798  0.00  0.00    +0.000 S 
ATOM     26  C   UNL     1      49.654   6.780  19.430  0.00  0.00    +0.000 A 
ATOM     27  N   UNL     1      49.763   6.355  20.715  0.00  0.00    +0.000 NA
ATOM     28  C   UNL     1      48.815   5.562  21.083  0.00  0.00    +0.000 A 
ATOM     29  N   UNL     1      47.745   5.196  20.304  0.00  0.00    +0.000 N 
ATOM     30  C   UNL     1      47.588   5.610  18.994  0.00  0.00    +0.000 A 
ATOM     31  O   UNL     1      46.555   5.405  18.373  0.00  0.00    +0.000 OA
ATOM     32  C   UNL     1      48.703   6.399  18.504  0.00  0.00    +0.000 A 
ATOM     33  H   UNL     1      46.972   4.686  20.702  0.00  0.00    +0.000 HD
ENDBRANCH  21  23
ENDBRANCH   2  19
TORSDOF 7
ENDMDL
MODEL 2
REMARK VINA RESULT:    -7.376      0.649      1.288
REMARK INTER + INTRA:         -11.393
REMARK INTER:                 -10.463
REMARK INTRA:                  -0.931
REMARK UNBOUND:                -0.999
REMARK  Name = 
REMARK  9 active torsions:
REMARK  status: ('A' for Active; 'I' for Inactive)
REMARK    1  A    between atoms: C_1  and  C_2
REMARK    2  A    between atoms: C_2  and  C_3
REMARK    3  A    between atoms: C_2  and  N_18
REMARK    4  A    between atoms: C_6  and  C_7
REMARK    5  A    between atoms: C_7  and  N_8
REMARK    6  A    between atoms: N_8  and  C_9
REMARK    7  A    between atoms: C_9  and  C_10
REMARK    8  A    between atoms: N_18  and  C_19
REMARK    9  A    between atoms: C_20  and  C_22
REMARK                            x       y       z     vdW  Elec       q    Type
REMARK                         _______ _______ _______ _____ _____    ______ ____
ROOT
ATOM      1  C   UNL     1      49.691   7.510  12.960  0.00  0.00    +0.000 C 
ATOM      2  C   UNL     1      48.795   6.577  13.802  0.00  0.00    +0.000 C 
ENDROOT
BRANCH   2   3
ATOM      3  C   UNL     1      47.483   6.266  13.100  0.00  0.00    +0.000 A 
ATOM      4  C   UNL     1      46.614   5.280  13.588  0.00  0.00    +0.000 A 
ATOM      5  C   UNL     1      45.382   5.028  12.987  0.00  0.00    +0.000 A 
ATOM      6  C   UNL     1      44.991   5.768  11.864  0.00  0.00    +0.000 A 
ATOM      7  C   UNL     1      45.854   6.729  11.349  0.00  0.00    +0.000 A 
ATOM      8  C   UNL     1      47.098   6.974  11.950  0.00  0.00    +0.000 A 
BRANCH   6   9
ATOM      9  C   UNL     1      43.628   5.516  11.250  0.00  0.00    +0.000 C 
BRANCH   9  10
ATOM     10  N   UNL     1      43.752   5.038   9.869  0.00  0.00    +0.000 NA
ATOM     11  H   UNL     1      44.555   5.505   9.441  0.00  0.00    +0.000 HD
BRANCH  10  12
ATOM     12  C   UNL     1      43.984   3.591   9.826  0.00  0.00    +0.000 C 
BRANCH  12  13
ATOM     13  C   UNL     1      45.089   3.219   8.857  0.00  0.00    +0.000 A 
ATOM     14  C   UNL     1      45.517   1.906   8.752  0.00  0.00    +0.000 A 
ATOM     15  C   UNL     1      46.520   1.663   7.843  0.00  0.00    +0.000 A 
ATOM     16  N   UNL     1      47.084   2.619   7.082  0.00  0.00    +0.000 NA
ATOM     17  C   UNL     1      46.600   3.857   7.259  0.00  0.00    +0.000 A 
ATOM     18  N   UNL     1      45.624   4.212   8.108  0.00  0.00    +0.000 NA
ENDBRANCH  12  13
ENDBRANCH  10  12
ENDBRANCH   9  10
ENDBRANCH   6   9
ENDBRANCH   2   3
BRANCH   2  19
ATOM     19  N   UNL     1      48.614   7.096  15.171  0.00  0.00    +0.000 N 
ATOM     20  C   UNL     1      48.025   8.415  15.372  0.00  0.00    +0.000 C 
ATOM     21  C   UNL     1      48.821   6.219  16.244  0.00  0.00    +0.000 C 
ATOM     22  O   UNL     1      48.858   5.000  16.103  0.00  0.00    +0.000 OA
BRANCH  21  23
ATOM     23  C   UNL     1      49.202   6.808  17.546  0.00  0.00    +0.000 A 
ATOM     24  C   UNL     1      50.236   7.717  17.713  0.00  0.00    +0.000 A 
ATOM     25  S   UNL     1      50.797   7.817  19.319  0.00  0.00    +0.000 S 
ATOM     26  C   UNL     1      49.623   6.704  19.838  0.00  0.00    +0.000 A 
ATOM     27  N   UNL     1      49.621   6.238  21.113  0.00  0.00    +0.000 NA
ATOM     28  C   UNL     1      48.615   5.481  21.389  0.00  0.00    +0.000 A 
ATOM     29  N   UNL     1      47.587   5.188  20.526  0.00  0.00    +0.000 N 
ATOM     30  C   UNL     1      47.542   5.647  19.222  0.00  0.00    +0.000 A 
ATOM     31  O   UNL     1      46.548   5.508  18.524  0.00  0.00    +0.000 OA
ATOM     32  C   UNL     1      48.724   6.395  18.836  0.00  0.00    +0.000 A 
ATOM     33  H   UNL     1      46.766   4.705  20.854  0.00  0.00    +0.000 HD
ENDBRANCH  21  23
ENDBRANCH   2  19
TORSDOF 7
ENDMDL
MODEL 3
REMARK VINA RESULT:    -7.354      2.189      3.115
REMARK INTER + INTRA:         -11.362
REMARK INTER:                  -9.937
REMARK INTRA:                  -1.425
REMARK UNBOUND:                -0.999
REMARK  Name = 
REMARK  9 active torsions:
REMARK  status: ('A' for Active; 'I' for Inactive)
REMARK    1  A    between atoms: C_1  and  C_2
REMARK    2  A    between atoms: C_2  and  C_3
REMARK    3  A    between atoms: C_2  and  N_18
REMARK    4  A    between atoms: C_6  and  C_7
REMARK    5  A    between atoms: C_7  and  N_8
REMARK    6  A    between atoms: N_8  and  C_9
REMARK    7  A    between atoms: C_9  and  C_10
REMARK    8  A    between atoms: N_18  and  C_19
REMARK    9  A    between atoms: C_20  and  C_22
REMARK                            x       y       z     vdW  Elec       q    Type
REMARK                         _______ _______ _______ _____ _____    ______ ____
ROOT
ATOM      1  C   UNL     1      49.164   7.485  11.845  0.00  0.00    +0.000 C 
ATOM      2  C   UNL     1      48.468   6.689  12.969  0.00  0.00    +0.000 C 
ENDROOT
BRANCH   2   3
ATOM      3  C   UNL     1      47.149   6.092  12.508  0.00  0.00    +0.000 A 
ATOM      4  C   UNL     1      46.534   6.518  11.321  0.00  0.00    +0.000 A 
ATOM      5  C   UNL     1      45.355   5.937  10.858  0.00  0.00    +0.000 A 
ATOM      6  C   UNL     1      44.756   4.901  11.588  0.00  0.00    +0.000 A 
ATOM      7  C   UNL     1      45.337   4.487  12.781  0.00  0.00    +0.000 A 
ATOM      8  C   UNL     1      46.518   5.081  13.251  0.00  0.00    +0.000 A 
BRANCH   6   9
ATOM      9  C   UNL     1      43.501   4.246  11.047  0.00  0.00    +0.000 C 
BRANCH   9  10
ATOM     10  N   UNL     1      43.713   3.742   9.687  0.00  0.00    +0.000 NA
ATOM     11  H   UNL     1      44.272   4.430   9.175  0.00  0.00    +0.000 HD
BRANCH  10  12
ATOM     12  C   UNL     1      44.445   2.472   9.698  0.00  0.00    +0.000 C 
BRANCH  12  13
ATOM     13  C   UNL     1      45.499   2.411   8.610  0.00  0.00    +0.000 A 
ATOM     14  C   UNL     1      45.839   3.548   7.898  0.00  0.00    +0.000 A 
ATOM     15  C   UNL     1      46.808   3.397   6.934  0.00  0.00    +0.000 A 
ATOM     16  N   UNL     1      47.413   2.227   6.664  0.00  0.00    +0.000 NA
ATOM     17  C   UNL     1      47.014   1.185   7.408  0.00  0.00    +0.000 A 
ATOM     18  N   UNL     1      46.085   1.213   8.375  0.00  0.00    +0.000 NA
ENDBRANCH  12  13
ENDBRANCH  10  12
ENDBRANCH   9  10
ENDBRANCH   6   9
ENDBRANCH   2   3
BRANCH   2  19
ATOM     19  N   UNL     1      48.345   7.493  14.201  0.00  0.00    +0.000 N 
ATOM     20  C   UNL     1      47.534   8.705  14.194  0.00  0.00    +0.000 C 
ATOM     21  C   UNL     1      48.840   6.953  15.396  0.00  0.00    +0.000 C 
ATOM     22  O   UNL     1      49.099   5.761  15.524  0.00  0.00    +0.000 OA
BRANCH  21  23
ATOM     23  C   UNL     1      49.241   7.900  16.458  0.00  0.00    +0.000 A 
ATOM     24  C   UNL     1      48.540   8.082  17.640  0.00  0.00    +0.000 A 
ATOM     25  S   UNL     1      48.891   9.558  18.416  0.00  0.00    +0.000 S 
ATOM     26  C   UNL     1      50.040   9.952  17.229  0.00  0.00    +0.000 A 
ATOM     27  N   UNL     1      50.643  11.168  17.219  0.00  0.00    +0.000 NA
ATOM     28  C   UNL     1      51.563  11.286  16.323  0.00  0.00    +0.000 A 
ATOM     29  N   UNL     1      51.969  10.288  15.473  0.00  0.00    +0.000 N 
ATOM     30  C   UNL     1      51.390   9.032  15.451  0.00  0.00    +0.000 A 
ATOM     31  O   UNL     1      51.869   8.113  14.802  0.00  0.00    +0.000 OA
ATOM     32  C   UNL     1      50.264   8.905  16.357  0.00  0.00    +0.000 A 
ATOM     33  H   UNL     1      52.786  10.409  14.895  0.00  0.00    +0.000 HD
ENDBRANCH  21  23
ENDBRANCH   2  19
TORSDOF 7
ENDMDL
MODEL 4
REMARK VINA RESULT:    -6.656      3.226      8.379
REMARK INTER + INTRA:         -10.379
REMARK INTER:                  -8.916
REMARK INTRA:                  -1.464
REMARK UNBOUND:                -0.999
REMARK  Name = 
REMARK  9 active torsions:
REMARK  status: ('A' for Active; 'I' for Inactive)
REMARK    1  A    between atoms: C_1  and  C_2
REMARK    2  A    between atoms: C_2  and  C_3
REMARK    3  A    between atoms: C_2  and  N_18
REMARK    4  A    between atoms: C_6  and  C_7
REMARK    5  A    between atoms: C_7  and  N_8
REMARK    6  A    between atoms: N_8  and  C_9
REMARK    7  A    between atoms: C_9  and  C_10
REMARK    8  A    between atoms: N_18  and  C_19
REMARK    9  A    between atoms: C_20  and  C_22
REMARK                            x       y       z     vdW  Elec       q    Type
REMARK                         _______ _______ _______ _____ _____    ______ ____
ROOT
ATOM      1  C   UNL     1      48.779   9.121  11.782  0.00  0.00    +0.000 C 
ATOM      2  C   UNL     1      47.930   8.509  12.916  0.00  0.00    +0.000 C 
ENDROOT
BRANCH   2   3
ATOM      3  C   UNL     1      48.650   8.562  14.254  0.00  0.00    +0.000 A 
ATOM      4  C   UNL     1      47.944   8.755  15.451  0.00  0.00    +0.000 A 
ATOM      5  C   UNL     1      48.586   8.747  16.688  0.00  0.00    +0.000 A 
ATOM      6  C   UNL     1      49.971   8.545  16.752  0.00  0.00    +0.000 A 
ATOM      7  C   UNL     1      50.689   8.381  15.573  0.00  0.00    +0.000 A 
ATOM      8  C   UNL     1      50.042   8.400  14.328  0.00  0.00    +0.000 A 
BRANCH   6   9
ATOM      9  C   UNL     1      50.648   8.490  18.107  0.00  0.00    +0.000 C 
BRANCH   9  10
ATOM     10  N   UNL     1      50.139   7.372  18.907  0.00  0.00    +0.000 NA
ATOM     11  H   UNL     1      49.117   7.373  18.843  0.00  0.00    +0.000 HD
BRANCH  10  12
ATOM     12  C   UNL     1      50.630   6.087  18.399  0.00  0.00    +0.000 C 
BRANCH  12  13
ATOM     13  C   UNL     1      49.498   5.155  18.012  0.00  0.00    +0.000 A 
ATOM     14  C   UNL     1      48.182   5.515  18.248  0.00  0.00    +0.000 A 
ATOM     15  C   UNL     1      47.223   4.609  17.860  0.00  0.00    +0.000 A 
ATOM     16  N   UNL     1      47.506   3.426  17.284  0.00  0.00    +0.000 NA
ATOM     17  C   UNL     1      48.809   3.171  17.099  0.00  0.00    +0.000 A 
ATOM     18  N   UNL     1      49.829   3.978  17.432  0.00  0.00    +0.000 NA
ENDBRANCH  12  13
ENDBRANCH  10  12
ENDBRANCH   9  10
ENDBRANCH   6   9
ENDBRANCH   2   3
BRANCH   2  19
ATOM     19  N   UNL     1      47.456   7.156  12.563  0.00  0.00    +0.000 N 
ATOM     20  C   UNL     1      48.261   5.993  12.918  0.00  0.00    +0.000 C 
ATOM     21  C   UNL     1      46.146   7.019  12.085  0.00  0.00    +0.000 C 
ATOM     22  O   UNL     1      45.299   7.897  12.216  0.00  0.00    +0.000 OA
BRANCH  21  23
ATOM     23  C   UNL     1      45.852   5.853  11.224  0.00  0.00    +0.000 A 
ATOM     24  C   UNL     1      46.051   5.832   9.852  0.00  0.00    +0.000 A 
ATOM     25  S   UNL     1      45.159   4.618   9.056  0.00  0.00    +0.000 S 
ATOM     26  C   UNL     1      44.543   4.049  10.534  0.00  0.00    +0.000 A 
ATOM     27  N   UNL     1      43.596   3.078  10.566  0.00  0.00    +0.000 NA
ATOM     28  C   UNL     1      43.300   2.678  11.756  0.00  0.00    +0.000 A 
ATOM     29  N   UNL     1      43.898   3.121  12.909  0.00  0.00    +0.000 N 
ATOM     30  C   UNL     1      44.873   4.103  12.925  0.00  0.00    +0.000 A 
ATOM     31  O   UNL     1      45.503   4.369  13.939  0.00  0.00    +0.000 OA
ATOM     32  C   UNL     1      45.138   4.668  11.615  0.00  0.00    +0.000 A 
ATOM     33  H   UNL     1      43.715   2.666  13.789  0.00  0.00    +0.000 HD
ENDBRANCH  21  23
ENDBRANCH   2  19
TORSDOF 7
ENDMDL
MODEL 5
REMARK VINA RESULT:    -6.415      3.989      5.606
REMARK INTER + INTRA:         -10.038
REMARK INTER:                  -8.846
REMARK INTRA:                  -1.192
REMARK UNBOUND:                -0.999
REMARK  Name = 
REMARK  9 active torsions:
REMARK  status: ('A' for Active; 'I' for Inactive)
REMARK    1  A    between atoms: C_1  and  C_2
REMARK    2  A    between atoms: C_2  and  C_3
REMARK    3  A    between atoms: C_2  and  N_18
REMARK    4  A    between atoms: C_6  and  C_7
REMARK    5  A    between atoms: C_7  and  N_8
REMARK    6  A    between atoms: N_8  and  C_9
REMARK    7  A    between atoms: C_9  and  C_10
REMARK    8  A    between atoms: N_18  and  C_19
REMARK    9  A    between atoms: C_20  and  C_22
REMARK                            x       y       z     vdW  Elec       q    Type
REMARK                         _______ _______ _______ _____ _____    ______ ____
ROOT
ATOM      1  C   UNL     1      48.844   7.316  14.609  0.00  0.00    +0.000 C 
ATOM      2  C   UNL     1      47.939   7.846  13.477  0.00  0.00    +0.000 C 
ENDROOT
BRANCH   2   3
ATOM      3  C   UNL     1      47.012   6.767  12.942  0.00  0.00    +0.000 A 
ATOM      4  C   UNL     1      47.005   5.476  13.492  0.00  0.00    +0.000 A 
ATOM      5  C   UNL     1      46.119   4.497  13.048  0.00  0.00    +0.000 A 
ATOM      6  C   UNL     1      45.206   4.794  12.027  0.00  0.00    +0.000 A 
ATOM      7  C   UNL     1      45.219   6.059  11.452  0.00  0.00    +0.000 A 
ATOM      8  C   UNL     1      46.121   7.041  11.892  0.00  0.00    +0.000 A 
BRANCH   6   9
ATOM      9  C   UNL     1      44.216   3.734  11.589  0.00  0.00    +0.000 C 
BRANCH   9  10
ATOM     10  N   UNL     1      44.078   3.712  10.130  0.00  0.00    +0.000 NA
ATOM     11  H   UNL     1      44.747   4.379   9.736  0.00  0.00    +0.000 HD
BRANCH  10  12
ATOM     12  C   UNL     1      44.377   2.384   9.586  0.00  0.00    +0.000 C 
BRANCH  12  13
ATOM     13  C   UNL     1      45.466   2.430   8.533  0.00  0.00    +0.000 A 
ATOM     14  C   UNL     1      45.726   3.603   7.844  0.00  0.00    +0.000 A 
ATOM     15  C   UNL     1      46.734   3.551   6.910  0.00  0.00    +0.000 A 
ATOM     16  N   UNL     1      47.449   2.442   6.647  0.00  0.00    +0.000 NA
ATOM     17  C   UNL     1      47.120   1.359   7.367  0.00  0.00    +0.000 A 
ATOM     18  N   UNL     1      46.163   1.292   8.304  0.00  0.00    +0.000 NA
ENDBRANCH  12  13
ENDBRANCH  10  12
ENDBRANCH   9  10
ENDBRANCH   6   9
ENDBRANCH   2   3
BRANCH   2  19
ATOM     19  N   UNL     1      48.730   8.510  12.422  0.00  0.00    +0.000 N 
ATOM     20  C   UNL     1      49.573   7.711  11.541  0.00  0.00    +0.000 C 
ATOM     21  C   UNL     1      48.484   9.865  12.165  0.00  0.00    +0.000 C 
ATOM     22  O   UNL     1      47.472  10.438  12.557  0.00  0.00    +0.000 OA
BRANCH  21  23
ATOM     23  C   UNL     1      49.582  10.658  11.573  0.00  0.00    +0.000 A 
ATOM     24  C   UNL     1      49.518  11.260  10.325  0.00  0.00    +0.000 A 
ATOM     25  S   UNL     1      51.047  11.635   9.674  0.00  0.00    +0.000 S 
ATOM     26  C   UNL     1      51.824  11.069  11.075  0.00  0.00    +0.000 A 
ATOM     27  N   UNL     1      53.177  10.984  11.135  0.00  0.00    +0.000 NA
ATOM     28  C   UNL     1      53.626  10.634  12.292  0.00  0.00    +0.000 A 
ATOM     29  N   UNL     1      52.853  10.410  13.404  0.00  0.00    +0.000 N 
ATOM     30  C   UNL     1      51.472  10.492  13.393  0.00  0.00    +0.000 A 
ATOM     31  O   UNL     1      50.815  10.447  14.423  0.00  0.00    +0.000 OA
ATOM     32  C   UNL     1      50.924  10.757  12.075  0.00  0.00    +0.000 A 
ATOM     33  H   UNL     1      53.280  10.276  14.307  0.00  0.00    +0.000 HD
ENDBRANCH  21  23
ENDBRANCH   2  19
TORSDOF 7
ENDMDL
MODEL 6
REMARK VINA RESULT:    -6.305      3.299      8.778
REMARK INTER + INTRA:          -9.885
REMARK INTER:                  -8.574
REMARK INTRA:                  -1.310
REMARK UNBOUND:                -0.999
REMARK  Name = 
REMARK  9 active torsions:
REMARK  status: ('A' for Active; 'I' for Inactive)
REMARK    1  A    between atoms: C_1  and  C_2
REMARK    2  A    between atoms: C_2  and  C_3
REMARK    3  A    between atoms: C_2  and  N_18
REMARK    4  A    between atoms: C_6  and  C_7
REMARK    5  A    between atoms: C_7  and  N_8
REMARK    6  A    between atoms: N_8  and  C_9
REMARK    7  A    between atoms: C_9  and  C_10
REMARK    8  A    between atoms: N_18  and  C_19
REMARK    9  A    between atoms: C_20  and  C_22
REMARK                            x       y       z     vdW  Elec       q    Type
REMARK                         _______ _______ _______ _____ _____    ______ ____
ROOT
ATOM      1  C   UNL     1      48.492   7.160  11.223  0.00  0.00    +0.000 C 
ATOM      2  C   UNL     1      47.485   7.340  12.378  0.00  0.00    +0.000 C 
ENDROOT
BRANCH   2   3
ATOM      3  C   UNL     1      48.182   7.605  13.702  0.00  0.00    +0.000 A 
ATOM      4  C   UNL     1      49.445   7.062  13.979  0.00  0.00    +0.000 A 
ATOM      5  C   UNL     1      50.120   7.346  15.165  0.00  0.00    +0.000 A 
ATOM      6  C   UNL     1      49.532   8.193  16.114  0.00  0.00    +0.000 A 
ATOM      7  C   UNL     1      48.268   8.716  15.868  0.00  0.00    +0.000 A 
ATOM      8  C   UNL     1      47.587   8.420  14.678  0.00  0.00    +0.000 A 
BRANCH   6   9
ATOM      9  C   UNL     1      50.298   8.531  17.378  0.00  0.00    +0.000 C 
BRANCH   9  10
ATOM     10  N   UNL     1      50.699   7.316  18.093  0.00  0.00    +0.000 NA
ATOM     11  H   UNL     1      51.296   7.589  18.877  0.00  0.00    +0.000 HD
BRANCH  10  12
ATOM     12  C   UNL     1      49.534   6.604  18.628  0.00  0.00    +0.000 C 
BRANCH  12  13
ATOM     13  C   UNL     1      49.328   5.260  17.956  0.00  0.00    +0.000 A 
ATOM     14  C   UNL     1      50.289   4.269  18.062  0.00  0.00    +0.000 A 
ATOM     15  C   UNL     1      50.014   3.083  17.424  0.00  0.00    +0.000 A 
ATOM     16  N   UNL     1      48.888   2.858  16.721  0.00  0.00    +0.000 NA
ATOM     17  C   UNL     1      48.021   3.881  16.678  0.00  0.00    +0.000 A 
ATOM     18  N   UNL     1      48.179   5.078  17.263  0.00  0.00    +0.000 NA
ENDBRANCH  12  13
ENDBRANCH  10  12
ENDBRANCH   9  10
ENDBRANCH   6   9
ENDBRANCH   2   3
BRANCH   2  19
ATOM     19  N   UNL     1      46.530   6.216  12.438  0.00  0.00    +0.000 N 
ATOM     20  C   UNL     1      46.837   5.049  13.257  0.00  0.00    +0.000 C 
ATOM     21  C   UNL     1      45.260   6.396  11.872  0.00  0.00    +0.000 C 
ATOM     22  O   UNL     1      44.811   7.504  11.597  0.00  0.00    +0.000 OA
BRANCH  21  23
ATOM     23  C   UNL     1      44.537   5.189  11.418  0.00  0.00    +0.000 A 
ATOM     24  C   UNL     1      43.553   4.550  12.158  0.00  0.00    +0.000 A 
ATOM     25  S   UNL     1      43.278   2.940  11.673  0.00  0.00    +0.000 S 
ATOM     26  C   UNL     1      44.415   3.084  10.419  0.00  0.00    +0.000 A 
ATOM     27  N   UNL     1      44.769   2.007   9.672  0.00  0.00    +0.000 NA
ATOM     28  C   UNL     1      45.563   2.288   8.696  0.00  0.00    +0.000 A 
ATOM     29  N   UNL     1      45.994   3.550   8.368  0.00  0.00    +0.000 N 
ATOM     30  C   UNL     1      45.654   4.677   9.094  0.00  0.00    +0.000 A 
ATOM     31  O   UNL     1      45.916   5.803   8.695  0.00  0.00    +0.000 OA
ATOM     32  C   UNL     1      44.867   4.381  10.276  0.00  0.00    +0.000 A 
ATOM     33  H   UNL     1      46.500   3.711   7.511  0.00  0.00    +0.000 HD
ENDBRANCH  21  23
ENDBRANCH   2  19
TORSDOF 7
ENDMDL
MODEL 7
REMARK VINA RESULT:    -5.569      3.896      9.877
REMARK INTER + INTRA:          -8.847
REMARK INTER:                  -7.679
REMARK INTRA:                  -1.168
REMARK UNBOUND:                -0.999
REMARK  Name = 
REMARK  9 active torsions:
REMARK  status: ('A' for Active; 'I' for Inactive)
REMARK    1  A    between atoms: C_1  and  C_2
REMARK    2  A    between atoms: C_2  and  C_3
REMARK    3  A    between atoms: C_2  and  N_18
REMARK    4  A    between atoms: C_6  and  C_7
REMARK    5  A    between atoms: C_7  and  N_8
REMARK    6  A    between atoms: N_8  and  C_9
REMARK    7  A    between atoms: C_9  and  C_10
REMARK    8  A    between atoms: N_18  and  C_19
REMARK    9  A    between atoms: C_20  and  C_22
REMARK                            x       y       z     vdW  Elec       q    Type
REMARK                         _______ _______ _______ _____ _____    ______ ____
ROOT
ATOM      1  C   UNL     1      48.606   9.302  11.574  0.00  0.00    +0.000 C 
ATOM      2  C   UNL     1      47.789   8.715  12.745  0.00  0.00    +0.000 C 
ENDROOT
BRANCH   2   3
ATOM      3  C   UNL     1      48.512   8.870  14.073  0.00  0.00    +0.000 A 
ATOM      4  C   UNL     1      47.813   8.835  15.289  0.00  0.00    +0.000 A 
ATOM      5  C   UNL     1      48.473   8.917  16.514  0.00  0.00    +0.000 A 
ATOM      6  C   UNL     1      49.868   9.040  16.547  0.00  0.00    +0.000 A 
ATOM      7  C   UNL     1      50.573   9.105  15.350  0.00  0.00    +0.000 A 
ATOM      8  C   UNL     1      49.906   9.033  14.118  0.00  0.00    +0.000 A 
BRANCH   6   9
ATOM      9  C   UNL     1      50.575   9.079  17.887  0.00  0.00    +0.000 C 
BRANCH   9  10
ATOM     10  N   UNL     1      49.612   9.044  18.992  0.00  0.00    +0.000 NA
ATOM     11  H   UNL     1      49.858   8.262  19.604  0.00  0.00    +0.000 HD
BRANCH  10  12
ATOM     12  C   UNL     1      49.661  10.279  19.780  0.00  0.00    +0.000 C 
BRANCH  12  13
ATOM     13  C   UNL     1      48.287  10.895  19.962  0.00  0.00    +0.000 A 
ATOM     14  C   UNL     1      47.166  10.089  20.066  0.00  0.00    +0.000 A 
ATOM     15  C   UNL     1      45.964  10.736  20.232  0.00  0.00    +0.000 A 
ATOM     16  N   UNL     1      45.840  12.074  20.292  0.00  0.00    +0.000 NA
ATOM     17  C   UNL     1      46.984  12.765  20.181  0.00  0.00    +0.000 A 
ATOM     18  N   UNL     1      48.210  12.245  20.020  0.00  0.00    +0.000 NA
ENDBRANCH  12  13
ENDBRANCH  10  12
ENDBRANCH   9  10
ENDBRANCH   6   9
ENDBRANCH   2   3
BRANCH   2  19
ATOM     19  N   UNL     1      47.372   7.327  12.467  0.00  0.00    +0.000 N 
ATOM     20  C   UNL     1      48.228   6.220  12.877  0.00  0.00    +0.000 C 
ATOM     21  C   UNL     1      46.067   7.108  12.005  0.00  0.00    +0.000 C 
ATOM     22  O   UNL     1      45.184   7.955  12.096  0.00  0.00    +0.000 OA
BRANCH  21  23
ATOM     23  C   UNL     1      45.819   5.887  11.210  0.00  0.00    +0.000 A 
ATOM     24  C   UNL     1      46.051   5.789   9.846  0.00  0.00    +0.000 A 
ATOM     25  S   UNL     1      45.204   4.510   9.104  0.00  0.00    +0.000 S 
ATOM     26  C   UNL     1      44.568   4.015  10.600  0.00  0.00    +0.000 A 
ATOM     27  N   UNL     1      43.641   3.025  10.669  0.00  0.00    +0.000 NA
ATOM     28  C   UNL     1      43.327   2.689  11.874  0.00  0.00    +0.000 A 
ATOM     29  N   UNL     1      43.888   3.215  13.011  0.00  0.00    +0.000 N 
ATOM     30  C   UNL     1      44.840   4.218  12.990  0.00  0.00    +0.000 A 
ATOM     31  O   UNL     1      45.440   4.558  14.000  0.00  0.00    +0.000 OA
ATOM     32  C   UNL     1      45.123   4.711  11.655  0.00  0.00    +0.000 A 
ATOM     33  H   UNL     1      43.694   2.807  13.913  0.00  0.00    +0.000 HD
ENDBRANCH  21  23
ENDBRANCH   2  19
TORSDOF 7
ENDMDL
MODEL 8
REMARK VINA RESULT:    -5.456      3.580      7.617
REMARK INTER + INTRA:          -8.687
REMARK INTER:                  -7.170
REMARK INTRA:                  -1.517
REMARK UNBOUND:                -0.999
REMARK  Name = 
REMARK  9 active torsions:
REMARK  status: ('A' for Active; 'I' for Inactive)
REMARK    1  A    between atoms: C_1  and  C_2
REMARK    2  A    between atoms: C_2  and  C_3
REMARK    3  A    between atoms: C_2  and  N_18
REMARK    4  A    between atoms: C_6  and  C_7
REMARK    5  A    between atoms: C_7  and  N_8
REMARK    6  A    between atoms: N_8  and  C_9
REMARK    7  A    between atoms: C_9  and  C_10
REMARK    8  A    between atoms: N_18  and  C_19
REMARK    9  A    between atoms: C_20  and  C_22
REMARK                            x       y       z     vdW  Elec       q    Type
REMARK                         _______ _______ _______ _____ _____    ______ ____
ROOT
ATOM      1  C   UNL     1      49.975  10.758  12.833  0.00  0.00    +0.000 C 
ATOM      2  C   UNL     1      48.758  10.217  13.614  0.00  0.00    +0.000 C 
ENDROOT
BRANCH   2   3
ATOM      3  C   UNL     1      49.169   9.571  14.927  0.00  0.00    +0.000 A 
ATOM      4  C   UNL     1      48.210   9.121  15.846  0.00  0.00    +0.000 A 
ATOM      5  C   UNL     1      48.574   8.474  17.025  0.00  0.00    +0.000 A 
ATOM      6  C   UNL     1      49.929   8.264  17.314  0.00  0.00    +0.000 A 
ATOM      7  C   UNL     1      50.893   8.730  16.428  0.00  0.00    +0.000 A 
ATOM      8  C   UNL     1      50.524   9.390  15.246  0.00  0.00    +0.000 A 
BRANCH   6   9
ATOM      9  C   UNL     1      50.308   7.516  18.577  0.00  0.00    +0.000 C 
BRANCH   9  10
ATOM     10  N   UNL     1      50.617   6.113  18.287  0.00  0.00    +0.000 NA
ATOM     11  H   UNL     1      51.386   5.823  18.895  0.00  0.00    +0.000 HD
BRANCH  10  12
ATOM     12  C   UNL     1      49.464   5.248  18.556  0.00  0.00    +0.000 C 
BRANCH  12  13
ATOM     13  C   UNL     1      49.511   3.966  17.747  0.00  0.00    +0.000 A 
ATOM     14  C   UNL     1      50.655   3.186  17.735  0.00  0.00    +0.000 A 
ATOM     15  C   UNL     1      50.604   2.040  16.977  0.00  0.00    +0.000 A 
ATOM     16  N   UNL     1      49.524   1.664  16.269  0.00  0.00    +0.000 NA
ATOM     17  C   UNL     1      48.467   2.486  16.346  0.00  0.00    +0.000 A 
ATOM     18  N   UNL     1      48.400   3.624  17.053  0.00  0.00    +0.000 NA
ENDBRANCH  12  13
ENDBRANCH  10  12
ENDBRANCH   9  10
ENDBRANCH   6   9
ENDBRANCH   2   3
BRANCH   2  19
ATOM     19  N   UNL     1      47.924   9.340  12.768  0.00  0.00    +0.000 N 
ATOM     20  C   UNL     1      46.566   9.747  12.426  0.00  0.00    +0.000 C 
ATOM     21  C   UNL     1      48.536   8.243  12.147  0.00  0.00    +0.000 C 
ATOM     22  O   UNL     1      49.754   8.142  12.035  0.00  0.00    +0.000 OA
BRANCH  21  23
ATOM     23  C   UNL     1      47.679   7.090  11.800  0.00  0.00    +0.000 A 
ATOM     24  C   UNL     1      47.085   6.911  10.559  0.00  0.00    +0.000 A 
ATOM     25  S   UNL     1      45.764   5.835  10.590  0.00  0.00    +0.000 S 
ATOM     26  C   UNL     1      46.002   5.530  12.244  0.00  0.00    +0.000 A 
ATOM     27  N   UNL     1      45.121   4.774  12.946  0.00  0.00    +0.000 NA
ATOM     28  C   UNL     1      45.484   4.545  14.163  0.00  0.00    +0.000 A 
ATOM     29  N   UNL     1      46.667   4.959  14.724  0.00  0.00    +0.000 N 
ATOM     30  C   UNL     1      47.598   5.723  14.045  0.00  0.00    +0.000 A 
ATOM     31  O   UNL     1      48.709   5.945  14.506  0.00  0.00    +0.000 OA
ATOM     32  C   UNL     1      47.163   6.110  12.715  0.00  0.00    +0.000 A 
ATOM     33  H   UNL     1      46.946   4.626  15.633  0.00  0.00    +0.000 HD
ENDBRANCH  21  23
ENDBRANCH   2  19
TORSDOF 7
ENDMDL
MODEL 9
REMARK VINA RESULT:    -5.246     10.633     14.106
REMARK INTER + INTRA:          -8.392
REMARK INTER:                  -7.008
REMARK INTRA:                  -1.383
REMARK UNBOUND:                -0.999
REMARK  Name = 
REMARK  9 active torsions:
REMARK  status: ('A' for Active; 'I' for Inactive)
REMARK    1  A    between atoms: C_1  and  C_2
REMARK    2  A    between atoms: C_2  and  C_3
REMARK    3  A    between atoms: C_2  and  N_18
REMARK    4  A    between atoms: C_6  and  C_7
REMARK    5  A    between atoms: C_7  and  N_8
REMARK    6  A    between atoms: N_8  and  C_9
REMARK    7  A    between atoms: C_9  and  C_10
REMARK    8  A    between atoms: N_18  and  C_19
REMARK    9  A    between atoms: C_20  and  C_22
REMARK                            x       y       z     vdW  Elec       q    Type
REMARK                         _______ _______ _______ _____ _____    ______ ____
ROOT
ATOM      1  C   UNL     1      41.667  -5.284  14.064  0.00  0.00    +0.000 C 
ATOM      2  C   UNL     1      41.154  -3.836  13.913  0.00  0.00    +0.000 C 
ENDROOT
BRANCH   2   3
ATOM      3  C   UNL     1      40.899  -3.182  15.261  0.00  0.00    +0.000 A 
ATOM      4  C   UNL     1      40.345  -1.897  15.351  0.00  0.00    +0.000 A 
ATOM      5  C   UNL     1      40.052  -1.311  16.581  0.00  0.00    +0.000 A 
ATOM      6  C   UNL     1      40.316  -2.011  17.766  0.00  0.00    +0.000 A 
ATOM      7  C   UNL     1      40.892  -3.274  17.695  0.00  0.00    +0.000 A 
ATOM      8  C   UNL     1      41.196  -3.857  16.456  0.00  0.00    +0.000 A 
BRANCH   6   9
ATOM      9  C   UNL     1      39.948  -1.381  19.095  0.00  0.00    +0.000 C 
BRANCH   9  10
ATOM     10  N   UNL     1      38.635  -0.733  19.025  0.00  0.00    +0.000 NA
ATOM     11  H   UNL     1      37.985  -1.265  19.609  0.00  0.00    +0.000 HD
BRANCH  10  12
ATOM     12  C   UNL     1      38.692   0.641  19.532  0.00  0.00    +0.000 C 
BRANCH  12  13
ATOM     13  C   UNL     1      38.387   1.661  18.452  0.00  0.00    +0.000 A 
ATOM     14  C   UNL     1      37.617   1.313  17.356  0.00  0.00    +0.000 A 
ATOM     15  C   UNL     1      37.391   2.305  16.430  0.00  0.00    +0.000 A 
ATOM     16  N   UNL     1      37.875   3.554  16.544  0.00  0.00    +0.000 NA
ATOM     17  C   UNL     1      38.609   3.791  17.641  0.00  0.00    +0.000 A 
ATOM     18  N   UNL     1      38.892   2.908  18.610  0.00  0.00    +0.000 NA
ENDBRANCH  12  13
ENDBRANCH  10  12
ENDBRANCH   9  10
ENDBRANCH   6   9
ENDBRANCH   2   3
BRANCH   2  19
ATOM     19  N   UNL     1      39.994  -3.769  13.003  0.00  0.00    +0.000 N 
ATOM     20  C   UNL     1      38.720  -4.348  13.414  0.00  0.00    +0.000 C 
ATOM     21  C   UNL     1      40.095  -2.965  11.860  0.00  0.00    +0.000 C 
ATOM     22  O   UNL     1      40.965  -2.108  11.730  0.00  0.00    +0.000 OA
BRANCH  21  23
ATOM     23  C   UNL     1      39.241  -3.310  10.704  0.00  0.00    +0.000 A 
ATOM     24  C   UNL     1      39.476  -4.383   9.859  0.00  0.00    +0.000 A 
ATOM     25  S   UNL     1      38.694  -4.243   8.351  0.00  0.00    +0.000 S 
ATOM     26  C   UNL     1      37.967  -2.781   8.822  0.00  0.00    +0.000 A 
ATOM     27  N   UNL     1      37.248  -2.045   7.938  0.00  0.00    +0.000 NA
ATOM     28  C   UNL     1      36.674  -1.016   8.462  0.00  0.00    +0.000 A 
ATOM     29  N   UNL     1      36.711  -0.685   9.794  0.00  0.00    +0.000 N 
ATOM     30  C   UNL     1      37.423  -1.410  10.733  0.00  0.00    +0.000 A 
ATOM     31  O   UNL     1      37.315  -1.193  11.931  0.00  0.00    +0.000 OA
ATOM     32  C   UNL     1      38.188  -2.499  10.155  0.00  0.00    +0.000 A 
ATOM     33  H   UNL     1      36.126   0.052  10.155  0.00  0.00    +0.000 HD
ENDBRANCH  21  23
ENDBRANCH   2  19
TORSDOF 7
ENDMDL
