MODEL 1
REMARK VINA RESULT:    -6.818      0.000      0.000
REMARK INTER + INTRA:          -9.013
REMARK INTER:                  -8.413
REMARK INTRA:                  -0.601
REMARK UNBOUND:                -0.601
REMARK  Name = 
REMARK  4 active torsions:
REMARK  status: ('A' for Active; 'I' for Inactive)
REMARK    1  A    between atoms: C_2  and  C_3
REMARK    2  A    between atoms: N_8  and  C_9
REMARK    3  A    between atoms: C_9  and  C_10
REMARK    4  A    between atoms: C_15  and  N_16
REMARK                            x       y       z     vdW  Elec       q    Type
REMARK                         _______ _______ _______ _____ _____    ______ ____
ROOT
ATOM      1  C   UNL     1      43.888   5.008  11.894  0.00  0.00    +0.000 C 
ATOM      2  C   UNL     1      42.921   4.867  13.070  0.00  0.00    +0.000 C 
ATOM      3  C   UNL     1      42.429   5.411  11.772  0.00  0.00    +0.000 C 
ENDROOT
BRANCH   1   9
ATOM      4  C   UNL     1      45.890   2.115   8.420  0.00  0.00    +0.000 A 
ATOM      5  C   UNL     1      45.883   3.160   7.510  0.00  0.00    +0.000 A 
ATOM      6  C   UNL     1      45.413   4.385   7.948  0.00  0.00    +0.000 A 
ATOM      7  N   UNL     1      44.953   4.615   9.201  0.00  0.00    +0.000 NA
ATOM      8  C   UNL     1      44.964   3.596  10.084  0.00  0.00    +0.000 A 
ATOM      9  N   UNL     1      44.439   3.731  11.393  0.00  0.00    +0.000 N 
ATOM     10  C   UNL     1      45.427   2.331   9.718  0.00  0.00    +0.000 A 
ATOM     11  H   UNL     1      45.101   3.319  12.046  0.00  0.00    +0.000 HD
BRANCH   4  13
ATOM     12  N   UNL     1      46.711  -0.239   7.711  0.00  0.00    +0.000 NA
ATOM     13  C   UNL     1      46.346   0.812   8.028  0.00  0.00    +0.000 C 
ENDBRANCH   4  13
ENDBRANCH   1   9
BRANCH   1  14
ATOM     14  C   UNL     1      44.898   6.147  11.939  0.00  0.00    +0.000 A 
ATOM     15  C   UNL     1      44.525   7.448  11.579  0.00  0.00    +0.000 A 
ATOM     16  C   UNL     1      45.386   8.521  11.788  0.00  0.00    +0.000 A 
ATOM     17  C   UNL     1      46.637   8.299  12.357  0.00  0.00    +0.000 A 
ATOM     18  F   UNL     1      47.419   9.370  12.575  0.00  0.00    +0.000 F 
ATOM     19  C   UNL     1      47.090   7.010  12.680  0.00  0.00    +0.000 A 
ATOM     20  C   UNL     1      46.205   5.950  12.426  0.00  0.00    +0.000 A 
BRANCH  19  21
ATOM     21  N   UNL     1      48.301   6.742  13.294  0.00  0.00    +0.000 N 
ATOM     22  C   UNL     1      48.418   6.589  14.750  0.00  0.00    +0.000 C 
ATOM     23  C   UNL     1      49.281   7.701  15.356  0.00  0.00    +0.000 C 
ATOM     24  O   UNL     1      50.550   7.811  14.687  0.00  0.00    +0.000 OA
ATOM     25  C   UNL     1      50.347   8.115  13.298  0.00  0.00    +0.000 C 
ATOM     26  C   UNL     1      49.561   7.004  12.584  0.00  0.00    +0.000 C 
ENDBRANCH  19  21
ENDBRANCH   1  14
TORSDOF 4
ENDMDL
MODEL 2
REMARK VINA RESULT:    -6.776      1.881      2.587
REMARK INTER + INTRA:          -8.961
REMARK INTER:                  -8.190
REMARK INTRA:                  -0.771
REMARK UNBOUND:                -0.601
REMARK  Name = 
REMARK  4 active torsions:
REMARK  status: ('A' for Active; 'I' for Inactive)
REMARK    1  A    between atoms: C_2  and  C_3
REMARK    2  A    between atoms: N_8  and  C_9
REMARK    3  A    between atoms: C_9  and  C_10
REMARK    4  A    between atoms: C_15  and  N_16
REMARK                            x       y       z     vdW  Elec       q    Type
REMARK                         _______ _______ _______ _____ _____    ______ ____
ROOT
ATOM      1  C   UNL     1      44.422   3.473  11.345  0.00  0.00    +0.000 C 
ATOM      2  C   UNL     1      43.094   2.993  11.932  0.00  0.00    +0.000 C 
ATOM      3  C   UNL     1      43.123   4.211  11.073  0.00  0.00    +0.000 C 
ENDROOT
BRANCH   1   9
ATOM      4  C   UNL     1      46.731   2.325   7.127  0.00  0.00    +0.000 A 
ATOM      5  C   UNL     1      46.731   3.654   6.734  0.00  0.00    +0.000 A 
ATOM      6  C   UNL     1      46.185   4.576   7.609  0.00  0.00    +0.000 A 
ATOM      7  N   UNL     1      45.648   4.256   8.810  0.00  0.00    +0.000 NA
ATOM      8  C   UNL     1      45.654   2.961   9.189  0.00  0.00    +0.000 A 
ATOM      9  N   UNL     1      45.053   2.530  10.397  0.00  0.00    +0.000 N 
ATOM     10  C   UNL     1      46.190   1.972   8.363  0.00  0.00    +0.000 A 
ATOM     11  H   UNL     1      45.695   1.894  10.863  0.00  0.00    +0.000 HD
BRANCH   4  13
ATOM     12  N   UNL     1      47.689   0.494   5.562  0.00  0.00    +0.000 NA
ATOM     13  C   UNL     1      47.263   1.311   6.260  0.00  0.00    +0.000 C 
ENDBRANCH   4  13
ENDBRANCH   1   9
BRANCH   1  14
ATOM     14  C   UNL     1      45.403   4.164  12.282  0.00  0.00    +0.000 A 
ATOM     15  C   UNL     1      46.062   3.445  13.287  0.00  0.00    +0.000 A 
ATOM     16  C   UNL     1      47.088   4.025  14.026  0.00  0.00    +0.000 A 
ATOM     17  C   UNL     1      47.462   5.341  13.768  0.00  0.00    +0.000 A 
ATOM     18  F   UNL     1      48.483   5.847  14.480  0.00  0.00    +0.000 F 
ATOM     19  C   UNL     1      46.797   6.132  12.817  0.00  0.00    +0.000 A 
ATOM     20  C   UNL     1      45.747   5.520  12.114  0.00  0.00    +0.000 A 
BRANCH  19  21
ATOM     21  N   UNL     1      47.163   7.425  12.488  0.00  0.00    +0.000 N 
ATOM     22  C   UNL     1      48.276   7.709  11.571  0.00  0.00    +0.000 C 
ATOM     23  C   UNL     1      49.416   8.435  12.292  0.00  0.00    +0.000 C 
ATOM     24  O   UNL     1      48.943   9.597  12.998  0.00  0.00    +0.000 OA
ATOM     25  C   UNL     1      47.970   9.210  13.982  0.00  0.00    +0.000 C 
ATOM     26  C   UNL     1      46.743   8.549  13.336  0.00  0.00    +0.000 C 
ENDBRANCH  19  21
ENDBRANCH   1  14
TORSDOF 4
ENDMDL
MODEL 3
REMARK VINA RESULT:    -6.392      1.990      2.955
REMARK INTER + INTRA:          -8.487
REMARK INTER:                  -8.287
REMARK INTRA:                  -0.200
REMARK UNBOUND:                -0.601
REMARK  Name = 
REMARK  4 active torsions:
REMARK  status: ('A' for Active; 'I' for Inactive)
REMARK    1  A    between atoms: C_2  and  C_3
REMARK    2  A    between atoms: N_8  and  C_9
REMARK    3  A    between atoms: C_9  and  C_10
REMARK    4  A    between atoms: C_15  and  N_16
REMARK                            x       y       z     vdW  Elec       q    Type
REMARK                         _______ _______ _______ _____ _____    ______ ____
ROOT
ATOM      1  C   UNL     1      44.070   5.072  11.895  0.00  0.00    +0.000 C 
ATOM      2  C   UNL     1      42.759   5.029  12.682  0.00  0.00    +0.000 C 
ATOM      3  C   UNL     1      42.834   5.812  11.415  0.00  0.00    +0.000 C 
ENDROOT
BRANCH   1   9
ATOM      4  C   UNL     1      45.997   2.136   8.415  0.00  0.00    +0.000 A 
ATOM      5  C   UNL     1      46.179   3.217   7.567  0.00  0.00    +0.000 A 
ATOM      6  C   UNL     1      45.816   4.466   8.039  0.00  0.00    +0.000 A 
ATOM      7  N   UNL     1      45.289   4.687   9.267  0.00  0.00    +0.000 NA
ATOM      8  C   UNL     1      45.118   3.633  10.090  0.00  0.00    +0.000 A 
ATOM      9  N   UNL     1      44.512   3.765  11.363  0.00  0.00    +0.000 N 
ATOM     10  C   UNL     1      45.463   2.342   9.686  0.00  0.00    +0.000 A 
ATOM     11  H   UNL     1      45.070   3.248  12.037  0.00  0.00    +0.000 HD
BRANCH   4  13
ATOM     12  N   UNL     1      46.604  -0.260   7.636  0.00  0.00    +0.000 NA
ATOM     13  C   UNL     1      46.333   0.809   7.983  0.00  0.00    +0.000 C 
ENDBRANCH   4  13
ENDBRANCH   1   9
BRANCH   1  14
ATOM     14  C   UNL     1      45.199   5.934  12.443  0.00  0.00    +0.000 A 
ATOM     15  C   UNL     1      46.388   5.352  12.901  0.00  0.00    +0.000 A 
ATOM     16  C   UNL     1      47.486   6.139  13.232  0.00  0.00    +0.000 A 
ATOM     17  C   UNL     1      47.403   7.523  13.114  0.00  0.00    +0.000 A 
ATOM     18  F   UNL     1      48.501   8.239  13.409  0.00  0.00    +0.000 F 
ATOM     19  C   UNL     1      46.219   8.167  12.721  0.00  0.00    +0.000 A 
ATOM     20  C   UNL     1      45.122   7.341  12.425  0.00  0.00    +0.000 A 
BRANCH  19  21
ATOM     21  N   UNL     1      46.099   9.533  12.539  0.00  0.00    +0.000 N 
ATOM     22  C   UNL     1      44.845  10.151  12.087  0.00  0.00    +0.000 C 
ATOM     23  C   UNL     1      45.013  10.801  10.709  0.00  0.00    +0.000 C 
ATOM     24  O   UNL     1      46.138  11.698  10.679  0.00  0.00    +0.000 OA
ATOM     25  C   UNL     1      47.346  10.981  10.982  0.00  0.00    +0.000 C 
ATOM     26  C   UNL     1      47.301  10.365  12.389  0.00  0.00    +0.000 C 
ENDBRANCH  19  21
ENDBRANCH   1  14
TORSDOF 4
ENDMDL
MODEL 4
REMARK VINA RESULT:    -6.323      1.882      2.509
REMARK INTER + INTRA:          -8.402
REMARK INTER:                  -8.666
REMARK INTRA:                   0.264
REMARK UNBOUND:                -0.601
REMARK  Name = 
REMARK  4 active torsions:
REMARK  status: ('A' for Active; 'I' for Inactive)
REMARK    1  A    between atoms: C_2  and  C_3
REMARK    2  A    between atoms: N_8  and  C_9
REMARK    3  A    between atoms: C_9  and  C_10
REMARK    4  A    between atoms: C_15  and  N_16
REMARK                            x       y       z     vdW  Elec       q    Type
REMARK                         _______ _______ _______ _____ _____    ______ ____
ROOT
ATOM      1  C   UNL     1      44.405   5.896  11.142  0.00  0.00    +0.000 C 
ATOM      2  C   UNL     1      43.001   5.307  11.280  0.00  0.00    +0.000 C 
ATOM      3  C   UNL     1      43.189   6.785  11.334  0.00  0.00    +0.000 C 
ENDROOT
BRANCH   1   9
ATOM      4  C   UNL     1      46.109   2.978   7.533  0.00  0.00    +0.000 A 
ATOM      5  C   UNL     1      45.702   1.846   8.220  0.00  0.00    +0.000 A 
ATOM      6  C   UNL     1      45.057   2.032   9.429  0.00  0.00    +0.000 A 
ATOM      7  N   UNL     1      44.812   3.246   9.978  0.00  0.00    +0.000 NA
ATOM      8  C   UNL     1      45.207   4.344   9.303  0.00  0.00    +0.000 A 
ATOM      9  N   UNL     1      45.051   5.648   9.836  0.00  0.00    +0.000 N 
ATOM     10  C   UNL     1      45.861   4.238   8.076  0.00  0.00    +0.000 A 
ATOM     11  H   UNL     1      44.677   6.248   9.105  0.00  0.00    +0.000 HD
BRANCH   4  13
ATOM     12  N   UNL     1      47.363   2.762   5.274  0.00  0.00    +0.000 NA
ATOM     13  C   UNL     1      46.803   2.858   6.281  0.00  0.00    +0.000 C 
ENDBRANCH   4  13
ENDBRANCH   1   9
BRANCH   1  14
ATOM     14  C   UNL     1      45.345   5.777  12.334  0.00  0.00    +0.000 A 
ATOM     15  C   UNL     1      45.217   4.720  13.244  0.00  0.00    +0.000 A 
ATOM     16  C   UNL     1      46.178   4.504  14.227  0.00  0.00    +0.000 A 
ATOM     17  C   UNL     1      47.277   5.353  14.313  0.00  0.00    +0.000 A 
ATOM     18  F   UNL     1      48.198   5.082  15.253  0.00  0.00    +0.000 F 
ATOM     19  C   UNL     1      47.428   6.465  13.469  0.00  0.00    +0.000 A 
ATOM     20  C   UNL     1      46.422   6.668  12.510  0.00  0.00    +0.000 A 
BRANCH  19  21
ATOM     21  N   UNL     1      48.526   7.307  13.480  0.00  0.00    +0.000 N 
ATOM     22  C   UNL     1      48.696   8.350  14.501  0.00  0.00    +0.000 C 
ATOM     23  C   UNL     1      48.649   9.748  13.876  0.00  0.00    +0.000 C 
ATOM     24  O   UNL     1      49.567   9.869  12.774  0.00  0.00    +0.000 OA
ATOM     25  C   UNL     1      49.233   8.915  11.752  0.00  0.00    +0.000 C 
ATOM     26  C   UNL     1      49.341   7.472  12.268  0.00  0.00    +0.000 C 
ENDBRANCH  19  21
ENDBRANCH   1  14
TORSDOF 4
ENDMDL
MODEL 5
REMARK VINA RESULT:    -6.166      4.535      8.132
REMARK INTER + INTRA:          -8.208
REMARK INTER:                  -7.928
REMARK INTRA:                  -0.281
REMARK UNBOUND:                -0.601
REMARK  Name = 
REMARK  4 active torsions:
REMARK  status: ('A' for Active; 'I' for Inactive)
REMARK    1  A    between atoms: C_2  and  C_3
REMARK    2  A    between atoms: N_8  and  C_9
REMARK    3  A    between atoms: C_9  and  C_10
REMARK    4  A    between atoms: C_15  and  N_16
REMARK                            x       y       z     vdW  Elec       q    Type
REMARK                         _______ _______ _______ _____ _____    ______ ____
ROOT
ATOM      1  C   UNL     1      48.105   4.570  16.892  0.00  0.00    +0.000 C 
ATOM      2  C   UNL     1      47.125   4.705  18.059  0.00  0.00    +0.000 C 
ATOM      3  C   UNL     1      47.307   3.380  17.398  0.00  0.00    +0.000 C 
ENDROOT
BRANCH   1   9
ATOM      4  C   UNL     1      52.746   3.176  17.869  0.00  0.00    +0.000 A 
ATOM      5  C   UNL     1      52.415   1.845  17.673  0.00  0.00    +0.000 A 
ATOM      6  C   UNL     1      51.113   1.559  17.306  0.00  0.00    +0.000 A 
ATOM      7  N   UNL     1      50.150   2.497  17.139  0.00  0.00    +0.000 NA
ATOM      8  C   UNL     1      50.478   3.791  17.328  0.00  0.00    +0.000 A 
ATOM      9  N   UNL     1      49.517   4.829  17.241  0.00  0.00    +0.000 N 
ATOM     10  C   UNL     1      51.772   4.159  17.697  0.00  0.00    +0.000 A 
ATOM     11  H   UNL     1      49.914   5.585  16.689  0.00  0.00    +0.000 HD
BRANCH   4  13
ATOM     12  N   UNL     1      55.144   3.839  18.597  0.00  0.00    +0.000 NA
ATOM     13  C   UNL     1      54.075   3.543  18.271  0.00  0.00    +0.000 C 
ENDBRANCH   4  13
ENDBRANCH   1   9
BRANCH   1  14
ATOM     14  C   UNL     1      47.683   5.136  15.543  0.00  0.00    +0.000 A 
ATOM     15  C   UNL     1      48.480   6.079  14.881  0.00  0.00    +0.000 A 
ATOM     16  C   UNL     1      48.195   6.464  13.575  0.00  0.00    +0.000 A 
ATOM     17  C   UNL     1      47.101   5.910  12.917  0.00  0.00    +0.000 A 
ATOM     18  F   UNL     1      46.888   6.282  11.644  0.00  0.00    +0.000 F 
ATOM     19  C   UNL     1      46.231   5.007  13.549  0.00  0.00    +0.000 A 
ATOM     20  C   UNL     1      46.533   4.667  14.878  0.00  0.00    +0.000 A 
BRANCH  19  21
ATOM     21  N   UNL     1      45.162   4.390  12.924  0.00  0.00    +0.000 N 
ATOM     22  C   UNL     1      45.349   3.280  11.980  0.00  0.00    +0.000 C 
ATOM     23  C   UNL     1      44.901   3.673  10.568  0.00  0.00    +0.000 C 
ATOM     24  O   UNL     1      43.565   4.210  10.565  0.00  0.00    +0.000 OA
ATOM     25  C   UNL     1      43.507   5.384  11.392  0.00  0.00    +0.000 C 
ATOM     26  C   UNL     1      43.858   5.064  12.854  0.00  0.00    +0.000 C 
ENDBRANCH  19  21
ENDBRANCH   1  14
TORSDOF 4
ENDMDL
MODEL 6
REMARK VINA RESULT:    -6.087      3.116      6.986
REMARK INTER + INTRA:          -8.111
REMARK INTER:                  -7.863
REMARK INTRA:                  -0.248
REMARK UNBOUND:                -0.601
REMARK  Name = 
REMARK  4 active torsions:
REMARK  status: ('A' for Active; 'I' for Inactive)
REMARK    1  A    between atoms: C_2  and  C_3
REMARK    2  A    between atoms: N_8  and  C_9
REMARK    3  A    between atoms: C_9  and  C_10
REMARK    4  A    between atoms: C_15  and  N_16
REMARK                            x       y       z     vdW  Elec       q    Type
REMARK                         _______ _______ _______ _____ _____    ______ ____
ROOT
ATOM      1  C   UNL     1      45.689   7.213  11.844  0.00  0.00    +0.000 C 
ATOM      2  C   UNL     1      44.735   8.354  11.489  0.00  0.00    +0.000 C 
ATOM      3  C   UNL     1      45.103   8.117  12.915  0.00  0.00    +0.000 C 
ENDROOT
BRANCH   1   9
ATOM      4  C   UNL     1      50.560   7.964  12.239  0.00  0.00    +0.000 A 
ATOM      5  C   UNL     1      50.458   8.068  13.617  0.00  0.00    +0.000 A 
ATOM      6  C   UNL     1      49.206   7.899  14.178  0.00  0.00    +0.000 A 
ATOM      7  N   UNL     1      48.082   7.652  13.463  0.00  0.00    +0.000 NA
ATOM      8  C   UNL     1      48.187   7.548  12.123  0.00  0.00    +0.000 A 
ATOM      9  N   UNL     1      47.054   7.358  11.294  0.00  0.00    +0.000 N 
ATOM     10  C   UNL     1      49.417   7.702  11.483  0.00  0.00    +0.000 A 
ATOM     11  H   UNL     1      47.272   6.631  10.618  0.00  0.00    +0.000 HD
BRANCH   4  13
ATOM     12  N   UNL     1      52.846   8.297  11.063  0.00  0.00    +0.000 NA
ATOM     13  C   UNL     1      51.826   8.148  11.587  0.00  0.00    +0.000 C 
ENDBRANCH   4  13
ENDBRANCH   1   9
BRANCH   1  14
ATOM     14  C   UNL     1      45.145   5.792  11.793  0.00  0.00    +0.000 A 
ATOM     15  C   UNL     1      44.459   5.249  12.886  0.00  0.00    +0.000 A 
ATOM     16  C   UNL     1      43.806   4.025  12.783  0.00  0.00    +0.000 A 
ATOM     17  C   UNL     1      43.840   3.326  11.580  0.00  0.00    +0.000 A 
ATOM     18  F   UNL     1      43.163   2.167  11.516  0.00  0.00    +0.000 F 
ATOM     19  C   UNL     1      44.563   3.790  10.469  0.00  0.00    +0.000 A 
ATOM     20  C   UNL     1      45.234   5.014  10.622  0.00  0.00    +0.000 A 
BRANCH  19  21
ATOM     21  N   UNL     1      44.585   3.160   9.237  0.00  0.00    +0.000 N 
ATOM     22  C   UNL     1      44.853   1.722   9.104  0.00  0.00    +0.000 C 
ATOM     23  C   UNL     1      46.162   1.470   8.348  0.00  0.00    +0.000 C 
ATOM     24  O   UNL     1      46.197   2.178   7.096  0.00  0.00    +0.000 OA
ATOM     25  C   UNL     1      46.085   3.592   7.330  0.00  0.00    +0.000 C 
ATOM     26  C   UNL     1      44.753   3.949   8.009  0.00  0.00    +0.000 C 
ENDBRANCH  19  21
ENDBRANCH   1  14
TORSDOF 4
ENDMDL
MODEL 7
REMARK VINA RESULT:    -6.062      1.949      2.363
REMARK INTER + INTRA:          -8.081
REMARK INTER:                  -8.129
REMARK INTRA:                   0.049
REMARK UNBOUND:                -0.601
REMARK  Name = 
REMARK  4 active torsions:
REMARK  status: ('A' for Active; 'I' for Inactive)
REMARK    1  A    between atoms: C_2  and  C_3
REMARK    2  A    between atoms: N_8  and  C_9
REMARK    3  A    between atoms: C_9  and  C_10
REMARK    4  A    between atoms: C_15  and  N_16
REMARK                            x       y       z     vdW  Elec       q    Type
REMARK                         _______ _______ _______ _____ _____    ______ ____
ROOT
ATOM      1  C   UNL     1      44.361   3.852  11.675  0.00  0.00    +0.000 C 
ATOM      2  C   UNL     1      43.258   3.358  12.612  0.00  0.00    +0.000 C 
ATOM      3  C   UNL     1      42.937   4.369  11.564  0.00  0.00    +0.000 C 
ENDROOT
BRANCH   1   9
ATOM      4  C   UNL     1      46.445   2.259   7.485  0.00  0.00    +0.000 A 
ATOM      5  C   UNL     1      46.437   3.542   6.962  0.00  0.00    +0.000 A 
ATOM      6  C   UNL     1      45.945   4.555   7.766  0.00  0.00    +0.000 A 
ATOM      7  N   UNL     1      45.465   4.362   9.018  0.00  0.00    +0.000 NA
ATOM      8  C   UNL     1      45.479   3.112   9.523  0.00  0.00    +0.000 A 
ATOM      9  N   UNL     1      44.935   2.812  10.797  0.00  0.00    +0.000 N 
ATOM     10  C   UNL     1      45.963   2.039   8.775  0.00  0.00    +0.000 A 
ATOM     11  H   UNL     1      45.593   2.215  11.291  0.00  0.00    +0.000 HD
BRANCH   4  13
ATOM     12  N   UNL     1      47.306   0.268   6.065  0.00  0.00    +0.000 NA
ATOM     13  C   UNL     1      46.922   1.156   6.699  0.00  0.00    +0.000 C 
ENDBRANCH   4  13
ENDBRANCH   1   9
BRANCH   1  14
ATOM     14  C   UNL     1      45.386   4.827  12.239  0.00  0.00    +0.000 A 
ATOM     15  C   UNL     1      45.412   6.162  11.818  0.00  0.00    +0.000 A 
ATOM     16  C   UNL     1      46.222   7.096  12.455  0.00  0.00    +0.000 A 
ATOM     17  C   UNL     1      47.023   6.699  13.521  0.00  0.00    +0.000 A 
ATOM     18  F   UNL     1      47.760   7.644  14.130  0.00  0.00    +0.000 F 
ATOM     19  C   UNL     1      47.087   5.363  13.948  0.00  0.00    +0.000 A 
ATOM     20  C   UNL     1      46.278   4.444  13.260  0.00  0.00    +0.000 A 
BRANCH  19  21
ATOM     21  N   UNL     1      47.826   4.927  15.034  0.00  0.00    +0.000 N 
ATOM     22  C   UNL     1      47.445   3.735  15.805  0.00  0.00    +0.000 C 
ATOM     23  C   UNL     1      47.065   4.105  17.243  0.00  0.00    +0.000 C 
ATOM     24  O   UNL     1      48.088   4.896  17.875  0.00  0.00    +0.000 OA
ATOM     25  C   UNL     1      48.288   6.115  17.142  0.00  0.00    +0.000 C 
ATOM     26  C   UNL     1      48.759   5.841  15.706  0.00  0.00    +0.000 C 
ENDBRANCH  19  21
ENDBRANCH   1  14
TORSDOF 4
ENDMDL
MODEL 8
REMARK VINA RESULT:    -6.048      3.010      7.726
REMARK INTER + INTRA:          -8.062
REMARK INTER:                  -7.295
REMARK INTRA:                  -0.768
REMARK UNBOUND:                -0.601
REMARK  Name = 
REMARK  4 active torsions:
REMARK  status: ('A' for Active; 'I' for Inactive)
REMARK    1  A    between atoms: C_2  and  C_3
REMARK    2  A    between atoms: N_8  and  C_9
REMARK    3  A    between atoms: C_9  and  C_10
REMARK    4  A    between atoms: C_15  and  N_16
REMARK                            x       y       z     vdW  Elec       q    Type
REMARK                         _______ _______ _______ _____ _____    ______ ____
ROOT
ATOM      1  C   UNL     1      49.210   7.949  12.647  0.00  0.00    +0.000 C 
ATOM      2  C   UNL     1      50.087   8.032  11.398  0.00  0.00    +0.000 C 
ATOM      3  C   UNL     1      49.753   9.276  12.148  0.00  0.00    +0.000 C 
ENDROOT
BRANCH   1   9
ATOM      4  C   UNL     1      49.943   6.964  17.437  0.00  0.00    +0.000 A 
ATOM      5  C   UNL     1      49.110   8.007  17.806  0.00  0.00    +0.000 A 
ATOM      6  C   UNL     1      48.505   8.729  16.793  0.00  0.00    +0.000 A 
ATOM      7  N   UNL     1      48.689   8.482  15.473  0.00  0.00    +0.000 NA
ATOM      8  C   UNL     1      49.498   7.464  15.119  0.00  0.00    +0.000 A 
ATOM      9  N   UNL     1      49.799   7.180  13.764  0.00  0.00    +0.000 N 
ATOM     10  C   UNL     1      50.142   6.688  16.084  0.00  0.00    +0.000 A 
ATOM     11  H   UNL     1      49.715   6.177  13.623  0.00  0.00    +0.000 HD
BRANCH   4  13
ATOM     12  N   UNL     1      51.165   5.560  19.241  0.00  0.00    +0.000 NA
ATOM     13  C   UNL     1      50.620   6.186  18.436  0.00  0.00    +0.000 C 
ENDBRANCH   4  13
ENDBRANCH   1   9
BRANCH   1  14
ATOM     14  C   UNL     1      47.717   7.718  12.452  0.00  0.00    +0.000 A 
ATOM     15  C   UNL     1      46.830   8.799  12.369  0.00  0.00    +0.000 A 
ATOM     16  C   UNL     1      45.500   8.606  12.013  0.00  0.00    +0.000 A 
ATOM     17  C   UNL     1      45.040   7.320  11.740  0.00  0.00    +0.000 A 
ATOM     18  F   UNL     1      43.758   7.187  11.362  0.00  0.00    +0.000 F 
ATOM     19  C   UNL     1      45.866   6.192  11.867  0.00  0.00    +0.000 A 
ATOM     20  C   UNL     1      47.194   6.424  12.259  0.00  0.00    +0.000 A 
BRANCH  19  21
ATOM     21  N   UNL     1      45.473   4.901  11.558  0.00  0.00    +0.000 N 
ATOM     22  C   UNL     1      45.192   4.483  10.178  0.00  0.00    +0.000 C 
ATOM     23  C   UNL     1      43.716   4.108  10.003  0.00  0.00    +0.000 C 
ATOM     24  O   UNL     1      43.292   3.151  10.990  0.00  0.00    +0.000 OA
ATOM     25  C   UNL     1      43.456   3.700  12.308  0.00  0.00    +0.000 C 
ATOM     26  C   UNL     1      44.928   4.026  12.605  0.00  0.00    +0.000 C 
ENDBRANCH  19  21
ENDBRANCH   1  14
TORSDOF 4
ENDMDL
MODEL 9
REMARK VINA RESULT:    -5.712      3.697      6.071
REMARK INTER + INTRA:          -7.649
REMARK INTER:                  -6.991
REMARK INTRA:                  -0.658
REMARK UNBOUND:                -0.601
REMARK  Name = 
REMARK  4 active torsions:
REMARK  status: ('A' for Active; 'I' for Inactive)
REMARK    1  A    between atoms: C_2  and  C_3
REMARK    2  A    between atoms: N_8  and  C_9
REMARK    3  A    between atoms: C_9  and  C_10
REMARK    4  A    between atoms: C_15  and  N_16
REMARK                            x       y       z     vdW  Elec       q    Type
REMARK                         _______ _______ _______ _____ _____    ______ ____
ROOT
ATOM      1  C   UNL     1      48.556   7.798  14.054  0.00  0.00    +0.000 C 
ATOM      2  C   UNL     1      49.402   8.853  13.342  0.00  0.00    +0.000 C 
ATOM      3  C   UNL     1      49.761   7.412  13.213  0.00  0.00    +0.000 C 
ENDROOT
BRANCH   1   9
ATOM      4  C   UNL     1      44.517   5.332  12.622  0.00  0.00    +0.000 A 
ATOM      5  C   UNL     1      45.160   4.119  12.810  0.00  0.00    +0.000 A 
ATOM      6  C   UNL     1      46.458   4.151  13.285  0.00  0.00    +0.000 A 
ATOM      7  N   UNL     1      47.134   5.292  13.564  0.00  0.00    +0.000 NA
ATOM      8  C   UNL     1      46.503   6.470  13.383  0.00  0.00    +0.000 A 
ATOM      9  N   UNL     1      47.157   7.710  13.586  0.00  0.00    +0.000 N 
ATOM     10  C   UNL     1      45.191   6.518  12.910  0.00  0.00    +0.000 A 
ATOM     11  H   UNL     1      46.537   8.313  14.121  0.00  0.00    +0.000 HD
BRANCH   4  13
ATOM     12  N   UNL     1      42.095   5.406  11.701  0.00  0.00    +0.000 NA
ATOM     13  C   UNL     1      43.176   5.373  12.111  0.00  0.00    +0.000 C 
ENDBRANCH   4  13
ENDBRANCH   1   9
BRANCH   1  14
ATOM     14  C   UNL     1      48.718   7.658  15.562  0.00  0.00    +0.000 A 
ATOM     15  C   UNL     1      48.464   8.741  16.413  0.00  0.00    +0.000 A 
ATOM     16  C   UNL     1      48.434   8.573  17.793  0.00  0.00    +0.000 A 
ATOM     17  C   UNL     1      48.667   7.314  18.339  0.00  0.00    +0.000 A 
ATOM     18  F   UNL     1      48.590   7.192  19.674  0.00  0.00    +0.000 F 
ATOM     19  C   UNL     1      48.987   6.204  17.540  0.00  0.00    +0.000 A 
ATOM     20  C   UNL     1      49.039   6.420  16.154  0.00  0.00    +0.000 A 
BRANCH  19  21
ATOM     21  N   UNL     1      49.176   4.923  18.028  0.00  0.00    +0.000 N 
ATOM     22  C   UNL     1      50.512   4.400  18.343  0.00  0.00    +0.000 C 
ATOM     23  C   UNL     1      50.879   3.230  17.423  0.00  0.00    +0.000 C 
ATOM     24  O   UNL     1      49.854   2.220  17.415  0.00  0.00    +0.000 OA
ATOM     25  C   UNL     1      48.617   2.780  16.947  0.00  0.00    +0.000 C 
ATOM     26  C   UNL     1      48.124   3.910  17.865  0.00  0.00    +0.000 C 
ENDBRANCH  19  21
ENDBRANCH   1  14
TORSDOF 4
ENDMDL
