MODEL 1
REMARK VINA RESULT:    -8.045      0.000      0.000
REMARK INTER + INTRA:         -10.542
REMARK INTER:                 -10.632
REMARK INTRA:                   0.090
REMARK UNBOUND:                 0.090
REMARK  Name = 
REMARK  6 active torsions:
REMARK  status: ('A' for Active; 'I' for Inactive)
REMARK    1  A    between atoms: C_2  and  C_19
REMARK    2  A    between atoms: N_3  and  C_4
REMARK    3  A    between atoms: C_4  and  C_5
REMARK    4  A    between atoms: C_8  and  C_9
REMARK    5  A    between atoms: C_9  and  N_10
REMARK    6  A    between atoms: C_13  and  O_14
REMARK                            x       y       z     vdW  Elec       q    Type
REMARK                         _______ _______ _______ _____ _____    ______ ____
ROOT
ATOM      1  C   UNL     1      46.462   7.177  12.651  0.00  0.00    +0.000 C 
ENDROOT
BRANCH   1   2
ATOM      2  C   UNL     1      45.957   6.046  11.791  0.00  0.00    +0.000 A 
ATOM      3  C   UNL     1      45.579   4.831  12.381  0.00  0.00    +0.000 A 
ATOM      4  C   UNL     1      45.107   3.776  11.598  0.00  0.00    +0.000 A 
ATOM      5  C   UNL     1      45.008   3.903  10.206  0.00  0.00    +0.000 A 
ATOM      6  C   UNL     1      45.413   5.111   9.616  0.00  0.00    +0.000 A 
ATOM      7  C   UNL     1      45.887   6.169  10.399  0.00  0.00    +0.000 A 
BRANCH   5   8
ATOM      8  C   UNL     1      44.527   2.751   9.349  0.00  0.00    +0.000 C 
BRANCH   8   9
ATOM      9  N   UNL     1      45.313   2.414   8.151  0.00  0.00    +0.000 NA
ATOM     10  C   UNL     1      46.357   1.417   8.387  0.00  0.00    +0.000 C 
ATOM     11  C   UNL     1      46.986   0.946   7.072  0.00  0.00    +0.000 C 
ATOM     12  C   UNL     1      47.468   2.112   6.214  0.00  0.00    +0.000 C 
ATOM     13  C   UNL     1      46.385   3.177   6.070  0.00  0.00    +0.000 C 
ATOM     14  C   UNL     1      45.800   3.586   7.425  0.00  0.00    +0.000 C 
BRANCH  12  15
ATOM     15  O   UNL     1      48.658   2.680   6.765  0.00  0.00    +0.000 OA
ATOM     16  H   UNL     1      49.410   2.112   6.529  0.00  0.00    +0.000 HD
ENDBRANCH  12  15
ENDBRANCH   8   9
ENDBRANCH   5   8
ENDBRANCH   1   2
BRANCH   1  19
ATOM     17  O   UNL     1      49.170   6.734  13.333  0.00  0.00    +0.000 OA
ATOM     18  C   UNL     1      48.300   6.572  14.184  0.00  0.00    +0.000 C 
ATOM     19  N   UNL     1      46.962   6.695  13.911  0.00  0.00    +0.000 N 
ATOM     20  H   UNL     1      46.309   6.737  14.684  0.00  0.00    +0.000 HD
BRANCH  18  21
ATOM     21  C   UNL     1      48.635   6.166  15.556  0.00  0.00    +0.000 A 
ATOM     22  C   UNL     1      49.427   6.986  16.351  0.00  0.00    +0.000 A 
ATOM     23  S   UNL     1      49.745   6.331  17.894  0.00  0.00    +0.000 S 
ATOM     24  C   UNL     1      48.794   4.957  17.573  0.00  0.00    +0.000 A 
ATOM     25  N   UNL     1      48.629   3.985  18.508  0.00  0.00    +0.000 NA
ATOM     26  C   UNL     1      47.847   3.020  18.141  0.00  0.00    +0.000 A 
ATOM     27  N   UNL     1      47.221   2.943  16.928  0.00  0.00    +0.000 N 
ATOM     28  C   UNL     1      47.414   3.865  15.928  0.00  0.00    +0.000 A 
ATOM     29  O   UNL     1      46.935   3.693  14.814  0.00  0.00    +0.000 OA
ATOM     30  C   UNL     1      48.256   4.987  16.299  0.00  0.00    +0.000 A 
ATOM     31  H   UNL     1      46.640   2.151  16.695  0.00  0.00    +0.000 HD
ENDBRANCH  18  21
ENDBRANCH   1  19
TORSDOF 6
ENDMDL
MODEL 2
REMARK VINA RESULT:    -7.507      2.976      4.090
REMARK INTER + INTRA:          -9.831
REMARK INTER:                  -8.713
REMARK INTRA:                  -1.118
REMARK UNBOUND:                 0.090
REMARK  Name = 
REMARK  6 active torsions:
REMARK  status: ('A' for Active; 'I' for Inactive)
REMARK    1  A    between atoms: C_2  and  C_19
REMARK    2  A    between atoms: N_3  and  C_4
REMARK    3  A    between atoms: C_4  and  C_5
REMARK    4  A    between atoms: C_8  and  C_9
REMARK    5  A    between atoms: C_9  and  N_10
REMARK    6  A    between atoms: C_13  and  O_14
REMARK                            x       y       z     vdW  Elec       q    Type
REMARK                         _______ _______ _______ _____ _____    ______ ____
ROOT
ATOM      1  C   UNL     1      49.382   8.636  14.321  0.00  0.00    +0.000 C 
ENDROOT
BRANCH   1   2
ATOM      2  C   UNL     1      48.191   8.250  13.481  0.00  0.00    +0.000 A 
ATOM      3  C   UNL     1      46.969   8.916  13.648  0.00  0.00    +0.000 A 
ATOM      4  C   UNL     1      45.858   8.571  12.875  0.00  0.00    +0.000 A 
ATOM      5  C   UNL     1      45.937   7.546  11.923  0.00  0.00    +0.000 A 
ATOM      6  C   UNL     1      47.154   6.862  11.778  0.00  0.00    +0.000 A 
ATOM      7  C   UNL     1      48.268   7.206  12.552  0.00  0.00    +0.000 A 
BRANCH   5   8
ATOM      8  C   UNL     1      44.726   7.146  11.105  0.00  0.00    +0.000 C 
BRANCH   8   9
ATOM      9  N   UNL     1      44.107   5.842  11.393  0.00  0.00    +0.000 NA
ATOM     10  C   UNL     1      44.131   5.473  12.809  0.00  0.00    +0.000 C 
ATOM     11  C   UNL     1      43.282   4.226  13.075  0.00  0.00    +0.000 C 
ATOM     12  C   UNL     1      43.658   3.066  12.157  0.00  0.00    +0.000 C 
ATOM     13  C   UNL     1      43.717   3.512  10.699  0.00  0.00    +0.000 C 
ATOM     14  C   UNL     1      44.574   4.767  10.518  0.00  0.00    +0.000 C 
BRANCH  12  15
ATOM     15  O   UNL     1      44.906   2.498  12.557  0.00  0.00    +0.000 OA
ATOM     16  H   UNL     1      45.522   2.544  11.808  0.00  0.00    +0.000 HD
ENDBRANCH  12  15
ENDBRANCH   8   9
ENDBRANCH   5   8
ENDBRANCH   1   2
BRANCH   1  19
ATOM     17  O   UNL     1      48.254   9.222  16.846  0.00  0.00    +0.000 OA
ATOM     18  C   UNL     1      48.835   8.154  16.680  0.00  0.00    +0.000 C 
ATOM     19  N   UNL     1      49.471   7.829  15.509  0.00  0.00    +0.000 N 
ATOM     20  H   UNL     1      49.766   6.872  15.364  0.00  0.00    +0.000 HD
BRANCH  18  21
ATOM     21  C   UNL     1      48.948   7.165  17.760  0.00  0.00    +0.000 A 
ATOM     22  C   UNL     1      49.346   7.563  19.030  0.00  0.00    +0.000 A 
ATOM     23  S   UNL     1      49.462   6.272  20.141  0.00  0.00    +0.000 S 
ATOM     24  C   UNL     1      48.934   5.147  18.978  0.00  0.00    +0.000 A 
ATOM     25  N   UNL     1      48.792   3.831  19.289  0.00  0.00    +0.000 NA
ATOM     26  C   UNL     1      48.345   3.100  18.319  0.00  0.00    +0.000 A 
ATOM     27  N   UNL     1      48.028   3.565  17.074  0.00  0.00    +0.000 N 
ATOM     28  C   UNL     1      48.222   4.871  16.693  0.00  0.00    +0.000 A 
ATOM     29  O   UNL     1      48.045   5.220  15.533  0.00  0.00    +0.000 OA
ATOM     30  C   UNL     1      48.691   5.744  17.754  0.00  0.00    +0.000 A 
ATOM     31  H   UNL     1      47.704   2.937  16.353  0.00  0.00    +0.000 HD
ENDBRANCH  18  21
ENDBRANCH   1  19
TORSDOF 6
ENDMDL
MODEL 3
REMARK VINA RESULT:    -7.413      3.124      8.889
REMARK INTER + INTRA:          -9.707
REMARK INTER:                  -8.865
REMARK INTRA:                  -0.842
REMARK UNBOUND:                 0.090
REMARK  Name = 
REMARK  6 active torsions:
REMARK  status: ('A' for Active; 'I' for Inactive)
REMARK    1  A    between atoms: C_2  and  C_19
REMARK    2  A    between atoms: N_3  and  C_4
REMARK    3  A    between atoms: C_4  and  C_5
REMARK    4  A    between atoms: C_8  and  C_9
REMARK    5  A    between atoms: C_9  and  N_10
REMARK    6  A    between atoms: C_13  and  O_14
REMARK                            x       y       z     vdW  Elec       q    Type
REMARK                         _______ _______ _______ _____ _____    ______ ____
ROOT
ATOM      1  C   UNL     1      47.782   7.740  11.798  0.00  0.00    +0.000 C 
ENDROOT
BRANCH   1   2
ATOM      2  C   UNL     1      48.305   7.943  13.196  0.00  0.00    +0.000 A 
ATOM      3  C   UNL     1      49.441   7.244  13.629  0.00  0.00    +0.000 A 
ATOM      4  C   UNL     1      49.939   7.423  14.921  0.00  0.00    +0.000 A 
ATOM      5  C   UNL     1      49.310   8.297  15.818  0.00  0.00    +0.000 A 
ATOM      6  C   UNL     1      48.156   8.974  15.392  0.00  0.00    +0.000 A 
ATOM      7  C   UNL     1      47.655   8.795  14.097  0.00  0.00    +0.000 A 
BRANCH   5   8
ATOM      8  C   UNL     1      49.827   8.472  17.231  0.00  0.00    +0.000 C 
BRANCH   8   9
ATOM      9  N   UNL     1      49.232   7.633  18.285  0.00  0.00    +0.000 NA
ATOM     10  C   UNL     1      49.220   6.204  17.970  0.00  0.00    +0.000 C 
ATOM     11  C   UNL     1      48.800   5.369  19.184  0.00  0.00    +0.000 C 
ATOM     12  C   UNL     1      47.484   5.851  19.787  0.00  0.00    +0.000 C 
ATOM     13  C   UNL     1      47.499   7.360  20.012  0.00  0.00    +0.000 C 
ATOM     14  C   UNL     1      47.937   8.122  18.758  0.00  0.00    +0.000 C 
BRANCH  12  15
ATOM     15  O   UNL     1      46.386   5.480  18.952  0.00  0.00    +0.000 OA
ATOM     16  H   UNL     1      45.980   6.288  18.598  0.00  0.00    +0.000 HD
ENDBRANCH  12  15
ENDBRANCH   8   9
ENDBRANCH   5   8
ENDBRANCH   1   2
BRANCH   1  19
ATOM     17  O   UNL     1      44.985   7.505  12.139  0.00  0.00    +0.000 OA
ATOM     18  C   UNL     1      45.637   6.517  11.811  0.00  0.00    +0.000 C 
ATOM     19  N   UNL     1      47.003   6.534  11.697  0.00  0.00    +0.000 N 
ATOM     20  H   UNL     1      47.464   5.755  11.245  0.00  0.00    +0.000 HD
BRANCH  18  21
ATOM     21  C   UNL     1      44.995   5.217  11.577  0.00  0.00    +0.000 A 
ATOM     22  C   UNL     1      44.271   4.605  12.593  0.00  0.00    +0.000 A 
ATOM     23  S   UNL     1      43.636   3.083  12.152  0.00  0.00    +0.000 S 
ATOM     24  C   UNL     1      44.263   3.214  10.575  0.00  0.00    +0.000 A 
ATOM     25  N   UNL     1      44.058   2.232   9.657  0.00  0.00    +0.000 NA
ATOM     26  C   UNL     1      44.556   2.484   8.489  0.00  0.00    +0.000 A 
ATOM     27  N   UNL     1      45.236   3.624   8.160  0.00  0.00    +0.000 N 
ATOM     28  C   UNL     1      45.527   4.609   9.073  0.00  0.00    +0.000 A 
ATOM     29  O   UNL     1      46.245   5.553   8.770  0.00  0.00    +0.000 OA
ATOM     30  C   UNL     1      44.962   4.393  10.392  0.00  0.00    +0.000 A 
ATOM     31  H   UNL     1      45.618   3.750   7.235  0.00  0.00    +0.000 HD
ENDBRANCH  18  21
ENDBRANCH   1  19
TORSDOF 6
ENDMDL
MODEL 4
REMARK VINA RESULT:    -7.275      3.841      8.509
REMARK INTER + INTRA:          -9.524
REMARK INTER:                  -8.746
REMARK INTRA:                  -0.779
REMARK UNBOUND:                 0.090
REMARK  Name = 
REMARK  6 active torsions:
REMARK  status: ('A' for Active; 'I' for Inactive)
REMARK    1  A    between atoms: C_2  and  C_19
REMARK    2  A    between atoms: N_3  and  C_4
REMARK    3  A    between atoms: C_4  and  C_5
REMARK    4  A    between atoms: C_8  and  C_9
REMARK    5  A    between atoms: C_9  and  N_10
REMARK    6  A    between atoms: C_13  and  O_14
REMARK                            x       y       z     vdW  Elec       q    Type
REMARK                         _______ _______ _______ _____ _____    ______ ____
ROOT
ATOM      1  C   UNL     1      48.916   7.857  15.133  0.00  0.00    +0.000 C 
ENDROOT
BRANCH   1   2
ATOM      2  C   UNL     1      49.388   6.700  15.976  0.00  0.00    +0.000 A 
ATOM      3  C   UNL     1      50.748   6.571  16.292  0.00  0.00    +0.000 A 
ATOM      4  C   UNL     1      51.201   5.507  17.074  0.00  0.00    +0.000 A 
ATOM      5  C   UNL     1      50.308   4.539  17.554  0.00  0.00    +0.000 A 
ATOM      6  C   UNL     1      48.951   4.655  17.213  0.00  0.00    +0.000 A 
ATOM      7  C   UNL     1      48.497   5.721  16.428  0.00  0.00    +0.000 A 
BRANCH   5   8
ATOM      8  C   UNL     1      50.798   3.366  18.376  0.00  0.00    +0.000 C 
BRANCH   8   9
ATOM      9  N   UNL     1      52.120   2.806  18.050  0.00  0.00    +0.000 NA
ATOM     10  C   UNL     1      52.097   1.378  17.731  0.00  0.00    +0.000 C 
ATOM     11  C   UNL     1      53.449   0.906  17.186  0.00  0.00    +0.000 C 
ATOM     12  C   UNL     1      54.605   1.285  18.108  0.00  0.00    +0.000 C 
ATOM     13  C   UNL     1      54.541   2.759  18.497  0.00  0.00    +0.000 C 
ATOM     14  C   UNL     1      53.157   3.154  19.020  0.00  0.00    +0.000 C 
BRANCH  12  15
ATOM     15  O   UNL     1      54.606   0.460  19.273  0.00  0.00    +0.000 OA
ATOM     16  H   UNL     1      53.840  -0.135  19.232  0.00  0.00    +0.000 HD
ENDBRANCH  12  15
ENDBRANCH   8   9
ENDBRANCH   5   8
ENDBRANCH   1   2
BRANCH   1  19
ATOM     17  O   UNL     1      48.889   6.336  12.749  0.00  0.00    +0.000 OA
ATOM     18  C   UNL     1      47.825   6.700  13.243  0.00  0.00    +0.000 C 
ATOM     19  N   UNL     1      47.759   7.501  14.354  0.00  0.00    +0.000 N 
ATOM     20  H   UNL     1      46.868   7.611  14.822  0.00  0.00    +0.000 HD
BRANCH  18  21
ATOM     21  C   UNL     1      46.536   6.353  12.632  0.00  0.00    +0.000 A 
ATOM     22  C   UNL     1      45.775   7.332  12.006  0.00  0.00    +0.000 A 
ATOM     23  S   UNL     1      44.291   6.753  11.394  0.00  0.00    +0.000 S 
ATOM     24  C   UNL     1      44.637   5.164  11.898  0.00  0.00    +0.000 A 
ATOM     25  N   UNL     1      43.766   4.148  11.661  0.00  0.00    +0.000 NA
ATOM     26  C   UNL     1      44.178   2.989  12.062  0.00  0.00    +0.000 A 
ATOM     27  N   UNL     1      45.378   2.757  12.676  0.00  0.00    +0.000 N 
ATOM     28  C   UNL     1      46.257   3.762  12.998  0.00  0.00    +0.000 A 
ATOM     29  O   UNL     1      47.261   3.529  13.659  0.00  0.00    +0.000 OA
ATOM     30  C   UNL     1      45.859   5.080  12.540  0.00  0.00    +0.000 A 
ATOM     31  H   UNL     1      45.630   1.830  12.985  0.00  0.00    +0.000 HD
ENDBRANCH  18  21
ENDBRANCH   1  19
TORSDOF 6
ENDMDL
MODEL 5
REMARK VINA RESULT:    -7.142      3.545      8.815
REMARK INTER + INTRA:          -9.349
REMARK INTER:                  -8.514
REMARK INTRA:                  -0.835
REMARK UNBOUND:                 0.090
REMARK  Name = 
REMARK  6 active torsions:
REMARK  status: ('A' for Active; 'I' for Inactive)
REMARK    1  A    between atoms: C_2  and  C_19
REMARK    2  A    between atoms: N_3  and  C_4
REMARK    3  A    between atoms: C_4  and  C_5
REMARK    4  A    between atoms: C_8  and  C_9
REMARK    5  A    between atoms: C_9  and  N_10
REMARK    6  A    between atoms: C_13  and  O_14
REMARK                            x       y       z     vdW  Elec       q    Type
REMARK                         _______ _______ _______ _____ _____    ______ ____
ROOT
ATOM      1  C   UNL     1      48.508   7.909  11.982  0.00  0.00    +0.000 C 
ENDROOT
BRANCH   1   2
ATOM      2  C   UNL     1      49.083   7.599  13.340  0.00  0.00    +0.000 A 
ATOM      3  C   UNL     1      48.330   6.870  14.272  0.00  0.00    +0.000 A 
ATOM      4  C   UNL     1      48.850   6.572  15.533  0.00  0.00    +0.000 A 
ATOM      5  C   UNL     1      50.133   7.002  15.899  0.00  0.00    +0.000 A 
ATOM      6  C   UNL     1      50.874   7.756  14.976  0.00  0.00    +0.000 A 
ATOM      7  C   UNL     1      50.353   8.056  13.712  0.00  0.00    +0.000 A 
BRANCH   5   8
ATOM      8  C   UNL     1      50.690   6.710  17.277  0.00  0.00    +0.000 C 
BRANCH   8   9
ATOM      9  N   UNL     1      49.776   6.131  18.276  0.00  0.00    +0.000 NA
ATOM     10  C   UNL     1      49.766   6.844  19.554  0.00  0.00    +0.000 C 
ATOM     11  C   UNL     1      48.643   6.337  20.466  0.00  0.00    +0.000 C 
ATOM     12  C   UNL     1      48.680   4.821  20.637  0.00  0.00    +0.000 C 
ATOM     13  C   UNL     1      48.788   4.116  19.288  0.00  0.00    +0.000 C 
ATOM     14  C   UNL     1      49.924   4.684  18.433  0.00  0.00    +0.000 C 
BRANCH  12  15
ATOM     15  O   UNL     1      49.761   4.440  21.488  0.00  0.00    +0.000 OA
ATOM     16  H   UNL     1      49.726   3.479  21.622  0.00  0.00    +0.000 HD
ENDBRANCH  12  15
ENDBRANCH   8   9
ENDBRANCH   5   8
ENDBRANCH   1   2
BRANCH   1  19
ATOM     17  O   UNL     1      45.684   7.826  11.869  0.00  0.00    +0.000 OA
ATOM     18  C   UNL     1      46.332   6.890  11.411  0.00  0.00    +0.000 C 
ATOM     19  N   UNL     1      47.699   6.823  11.494  0.00  0.00    +0.000 N 
ATOM     20  H   UNL     1      48.188   6.133  10.938  0.00  0.00    +0.000 HD
BRANCH  18  21
ATOM     21  C   UNL     1      45.676   5.732  10.790  0.00  0.00    +0.000 A 
ATOM     22  C   UNL     1      45.800   5.510   9.424  0.00  0.00    +0.000 A 
ATOM     23  S   UNL     1      44.935   4.145   8.876  0.00  0.00    +0.000 S 
ATOM     24  C   UNL     1      44.409   3.774  10.452  0.00  0.00    +0.000 A 
ATOM     25  N   UNL     1      43.627   2.688  10.692  0.00  0.00    +0.000 NA
ATOM     26  C   UNL     1      43.337   2.506  11.940  0.00  0.00    +0.000 A 
ATOM     27  N   UNL     1      43.757   3.309  12.963  0.00  0.00    +0.000 N 
ATOM     28  C   UNL     1      44.488   4.454  12.761  0.00  0.00    +0.000 A 
ATOM     29  O   UNL     1      44.737   5.213  13.689  0.00  0.00    +0.000 OA
ATOM     30  C   UNL     1      44.870   4.689  11.380  0.00  0.00    +0.000 A 
ATOM     31  H   UNL     1      43.478   3.124  13.915  0.00  0.00    +0.000 HD
ENDBRANCH  18  21
ENDBRANCH   1  19
TORSDOF 6
ENDMDL
MODEL 6
REMARK VINA RESULT:    -7.016      3.238      4.658
REMARK INTER + INTRA:          -9.182
REMARK INTER:                  -8.499
REMARK INTRA:                  -0.683
REMARK UNBOUND:                 0.090
REMARK  Name = 
REMARK  6 active torsions:
REMARK  status: ('A' for Active; 'I' for Inactive)
REMARK    1  A    between atoms: C_2  and  C_19
REMARK    2  A    between atoms: N_3  and  C_4
REMARK    3  A    between atoms: C_4  and  C_5
REMARK    4  A    between atoms: C_8  and  C_9
REMARK    5  A    between atoms: C_9  and  N_10
REMARK    6  A    between atoms: C_13  and  O_14
REMARK                            x       y       z     vdW  Elec       q    Type
REMARK                         _______ _______ _______ _____ _____    ______ ____
ROOT
ATOM      1  C   UNL     1      48.975   7.803  16.211  0.00  0.00    +0.000 C 
ENDROOT
BRANCH   1   2
ATOM      2  C   UNL     1      48.274   7.455  14.923  0.00  0.00    +0.000 A 
ATOM      3  C   UNL     1      48.193   6.119  14.506  0.00  0.00    +0.000 A 
ATOM      4  C   UNL     1      47.545   5.780  13.317  0.00  0.00    +0.000 A 
ATOM      5  C   UNL     1      46.969   6.769  12.508  0.00  0.00    +0.000 A 
ATOM      6  C   UNL     1      47.075   8.109  12.913  0.00  0.00    +0.000 A 
ATOM      7  C   UNL     1      47.725   8.449  14.104  0.00  0.00    +0.000 A 
BRANCH   5   8
ATOM      8  C   UNL     1      46.292   6.411  11.201  0.00  0.00    +0.000 C 
BRANCH   8   9
ATOM      9  N   UNL     1      45.089   5.565  11.262  0.00  0.00    +0.000 NA
ATOM     10  C   UNL     1      44.522   5.436  12.606  0.00  0.00    +0.000 C 
ATOM     11  C   UNL     1      43.160   4.736  12.571  0.00  0.00    +0.000 C 
ATOM     12  C   UNL     1      43.214   3.406  11.824  0.00  0.00    +0.000 C 
ATOM     13  C   UNL     1      43.898   3.561  10.469  0.00  0.00    +0.000 C 
ATOM     14  C   UNL     1      45.246   4.277  10.586  0.00  0.00    +0.000 C 
BRANCH  12  15
ATOM     15  O   UNL     1      43.880   2.418  12.611  0.00  0.00    +0.000 OA
ATOM     16  H   UNL     1      44.323   1.793  12.013  0.00  0.00    +0.000 HD
ENDBRANCH  12  15
ENDBRANCH   8   9
ENDBRANCH   5   8
ENDBRANCH   1   2
BRANCH   1  19
ATOM     17  O   UNL     1      49.779   7.024  18.807  0.00  0.00    +0.000 OA
ATOM     18  C   UNL     1      50.263   6.457  17.832  0.00  0.00    +0.000 C 
ATOM     19  N   UNL     1      49.979   6.827  16.542  0.00  0.00    +0.000 N 
ATOM     20  H   UNL     1      50.253   6.210  15.788  0.00  0.00    +0.000 HD
BRANCH  18  21
ATOM     21  C   UNL     1      51.241   5.372  17.982  0.00  0.00    +0.000 A 
ATOM     22  C   UNL     1      52.505   5.639  18.494  0.00  0.00    +0.000 A 
ATOM     23  S   UNL     1      53.518   4.268  18.554  0.00  0.00    +0.000 S 
ATOM     24  C   UNL     1      52.288   3.261  17.946  0.00  0.00    +0.000 A 
ATOM     25  N   UNL     1      52.497   1.929  17.766  0.00  0.00    +0.000 NA
ATOM     26  C   UNL     1      51.461   1.281  17.337  0.00  0.00    +0.000 A 
ATOM     27  N   UNL     1      50.243   1.843  17.074  0.00  0.00    +0.000 N 
ATOM     28  C   UNL     1      50.007   3.193  17.174  0.00  0.00    +0.000 A 
ATOM     29  O   UNL     1      48.941   3.673  16.808  0.00  0.00    +0.000 OA
ATOM     30  C   UNL     1      51.126   3.964  17.684  0.00  0.00    +0.000 A 
ATOM     31  H   UNL     1      49.481   1.285  16.720  0.00  0.00    +0.000 HD
ENDBRANCH  18  21
ENDBRANCH   1  19
TORSDOF 6
ENDMDL
MODEL 7
REMARK VINA RESULT:    -6.515      4.219      6.366
REMARK INTER + INTRA:          -8.520
REMARK INTER:                  -7.965
REMARK INTRA:                  -0.555
REMARK UNBOUND:                 0.090
REMARK  Name = 
REMARK  6 active torsions:
REMARK  status: ('A' for Active; 'I' for Inactive)
REMARK    1  A    between atoms: C_2  and  C_19
REMARK    2  A    between atoms: N_3  and  C_4
REMARK    3  A    between atoms: C_4  and  C_5
REMARK    4  A    between atoms: C_8  and  C_9
REMARK    5  A    between atoms: C_9  and  N_10
REMARK    6  A    between atoms: C_13  and  O_14
REMARK                            x       y       z     vdW  Elec       q    Type
REMARK                         _______ _______ _______ _____ _____    ______ ____
ROOT
ATOM      1  C   UNL     1      45.821   6.008  12.819  0.00  0.00    +0.000 C 
ENDROOT
BRANCH   1   2
ATOM      2  C   UNL     1      45.398   7.383  12.371  0.00  0.00    +0.000 A 
ATOM      3  C   UNL     1      44.470   7.528  11.330  0.00  0.00    +0.000 A 
ATOM      4  C   UNL     1      44.067   8.796  10.905  0.00  0.00    +0.000 A 
ATOM      5  C   UNL     1      44.587   9.951  11.503  0.00  0.00    +0.000 A 
ATOM      6  C   UNL     1      45.536   9.805  12.527  0.00  0.00    +0.000 A 
ATOM      7  C   UNL     1      45.942   8.535  12.952  0.00  0.00    +0.000 A 
BRANCH   5   8
ATOM      8  C   UNL     1      44.177  11.329  11.025  0.00  0.00    +0.000 C 
BRANCH   8   9
ATOM      9  N   UNL     1      42.737  11.626  10.947  0.00  0.00    +0.000 NA
ATOM     10  C   UNL     1      41.962  11.107  12.075  0.00  0.00    +0.000 C 
ATOM     11  C   UNL     1      40.524  11.634  12.052  0.00  0.00    +0.000 C 
ATOM     12  C   UNL     1      39.842  11.393  10.708  0.00  0.00    +0.000 C 
ATOM     13  C   UNL     1      40.722  11.858   9.552  0.00  0.00    +0.000 C 
ATOM     14  C   UNL     1      42.143  11.298   9.651  0.00  0.00    +0.000 C 
BRANCH  12  15
ATOM     15  O   UNL     1      39.508  10.012  10.559  0.00  0.00    +0.000 OA
ATOM     16  H   UNL     1      39.738   9.547  11.380  0.00  0.00    +0.000 HD
ENDBRANCH  12  15
ENDBRANCH   8   9
ENDBRANCH   5   8
ENDBRANCH   1   2
BRANCH   1  19
ATOM     17  O   UNL     1      48.634   5.956  13.098  0.00  0.00    +0.000 OA
ATOM     18  C   UNL     1      47.932   6.100  14.096  0.00  0.00    +0.000 C 
ATOM     19  N   UNL     1      46.562   6.062  14.051  0.00  0.00    +0.000 N 
ATOM     20  H   UNL     1      46.040   6.373  14.861  0.00  0.00    +0.000 HD
BRANCH  18  21
ATOM     21  C   UNL     1      48.521   6.260  15.432  0.00  0.00    +0.000 A 
ATOM     22  C   UNL     1      49.379   7.322  15.692  0.00  0.00    +0.000 A 
ATOM     23  S   UNL     1      49.998   7.321  17.282  0.00  0.00    +0.000 S 
ATOM     24  C   UNL     1      49.102   5.934  17.693  0.00  0.00    +0.000 A 
ATOM     25  N   UNL     1      49.164   5.404  18.943  0.00  0.00    +0.000 NA
ATOM     26  C   UNL     1      48.398   4.376  19.124  0.00  0.00    +0.000 A 
ATOM     27  N   UNL     1      47.582   3.834  18.171  0.00  0.00    +0.000 N 
ATOM     28  C   UNL     1      47.540   4.292  16.876  0.00  0.00    +0.000 A 
ATOM     29  O   UNL     1      46.892   3.701  16.022  0.00  0.00    +0.000 OA
ATOM     30  C   UNL     1      48.355   5.467  16.627  0.00  0.00    +0.000 A 
ATOM     31  H   UNL     1      47.025   3.016  18.371  0.00  0.00    +0.000 HD
ENDBRANCH  18  21
ENDBRANCH   1  19
TORSDOF 6
ENDMDL
MODEL 8
REMARK VINA RESULT:    -6.407      4.036      5.833
REMARK INTER + INTRA:          -8.378
REMARK INTER:                  -7.692
REMARK INTRA:                  -0.686
REMARK UNBOUND:                 0.090
REMARK  Name = 
REMARK  6 active torsions:
REMARK  status: ('A' for Active; 'I' for Inactive)
REMARK    1  A    between atoms: C_2  and  C_19
REMARK    2  A    between atoms: N_3  and  C_4
REMARK    3  A    between atoms: C_4  and  C_5
REMARK    4  A    between atoms: C_8  and  C_9
REMARK    5  A    between atoms: C_9  and  N_10
REMARK    6  A    between atoms: C_13  and  O_14
REMARK                            x       y       z     vdW  Elec       q    Type
REMARK                         _______ _______ _______ _____ _____    ______ ____
ROOT
ATOM      1  C   UNL     1      46.215   6.382  12.259  0.00  0.00    +0.000 C 
ENDROOT
BRANCH   1   2
ATOM      2  C   UNL     1      45.688   7.768  11.990  0.00  0.00    +0.000 A 
ATOM      3  C   UNL     1      44.454   7.937  11.345  0.00  0.00    +0.000 A 
ATOM      4  C   UNL     1      43.951   9.214  11.091  0.00  0.00    +0.000 A 
ATOM      5  C   UNL     1      44.671  10.356  11.466  0.00  0.00    +0.000 A 
ATOM      6  C   UNL     1      45.919  10.185  12.086  0.00  0.00    +0.000 A 
ATOM      7  C   UNL     1      46.424   8.905  12.340  0.00  0.00    +0.000 A 
BRANCH   5   8
ATOM      8  C   UNL     1      44.145  11.744  11.164  0.00  0.00    +0.000 C 
BRANCH   8   9
ATOM      9  N   UNL     1      44.120  12.176   9.757  0.00  0.00    +0.000 NA
ATOM     10  C   UNL     1      42.972  11.672   9.002  0.00  0.00    +0.000 C 
ATOM     11  C   UNL     1      42.881  12.329   7.621  0.00  0.00    +0.000 C 
ATOM     12  C   UNL     1      44.189  12.222   6.844  0.00  0.00    +0.000 C 
ATOM     13  C   UNL     1      45.375  12.664   7.696  0.00  0.00    +0.000 C 
ATOM     14  C   UNL     1      45.391  11.972   9.061  0.00  0.00    +0.000 C 
BRANCH  12  15
ATOM     15  O   UNL     1      44.382  10.887   6.373  0.00  0.00    +0.000 OA
ATOM     16  H   UNL     1      44.552  10.311   7.136  0.00  0.00    +0.000 HD
ENDBRANCH  12  15
ENDBRANCH   8   9
ENDBRANCH   5   8
ENDBRANCH   1   2
BRANCH   1  19
ATOM     17  O   UNL     1      48.926   6.270  13.054  0.00  0.00    +0.000 OA
ATOM     18  C   UNL     1      48.047   6.282  13.911  0.00  0.00    +0.000 C 
ATOM     19  N   UNL     1      46.711   6.262  13.605  0.00  0.00    +0.000 N 
ATOM     20  H   UNL     1      46.040   6.463  14.336  0.00  0.00    +0.000 HD
BRANCH  18  21
ATOM     21  C   UNL     1      48.371   6.254  15.344  0.00  0.00    +0.000 A 
ATOM     22  C   UNL     1      48.883   7.387  15.964  0.00  0.00    +0.000 A 
ATOM     23  S   UNL     1      49.240   7.154  17.616  0.00  0.00    +0.000 S 
ATOM     24  C   UNL     1      48.675   5.549  17.572  0.00  0.00    +0.000 A 
ATOM     25  N   UNL     1      48.684   4.772  18.688  0.00  0.00    +0.000 NA
ATOM     26  C   UNL     1      48.187   3.589  18.516  0.00  0.00    +0.000 A 
ATOM     27  N   UNL     1      47.685   3.118  17.335  0.00  0.00    +0.000 N 
ATOM     28  C   UNL     1      47.720   3.841  16.168  0.00  0.00    +0.000 A 
ATOM     29  O   UNL     1      47.377   3.337  15.106  0.00  0.00    +0.000 OA
ATOM     30  C   UNL     1      48.237   5.190  16.311  0.00  0.00    +0.000 A 
ATOM     31  H   UNL     1      47.332   2.175  17.262  0.00  0.00    +0.000 HD
ENDBRANCH  18  21
ENDBRANCH   1  19
TORSDOF 6
ENDMDL
MODEL 9
REMARK VINA RESULT:    -6.369      3.102      4.208
REMARK INTER + INTRA:          -8.327
REMARK INTER:                  -7.446
REMARK INTRA:                  -0.880
REMARK UNBOUND:                 0.090
REMARK  Name = 
REMARK  6 active torsions:
REMARK  status: ('A' for Active; 'I' for Inactive)
REMARK    1  A    between atoms: C_2  and  C_19
REMARK    2  A    between atoms: N_3  and  C_4
REMARK    3  A    between atoms: C_4  and  C_5
REMARK    4  A    between atoms: C_8  and  C_9
REMARK    5  A    between atoms: C_9  and  N_10
REMARK    6  A    between atoms: C_13  and  O_14
REMARK                            x       y       z     vdW  Elec       q    Type
REMARK                         _______ _______ _______ _____ _____    ______ ____
ROOT
ATOM      1  C   UNL     1      49.019   9.867  13.279  0.00  0.00    +0.000 C 
ENDROOT
BRANCH   1   2
ATOM      2  C   UNL     1      47.849   9.060  12.779  0.00  0.00    +0.000 A 
ATOM      3  C   UNL     1      46.544   9.557  12.913  0.00  0.00    +0.000 A 
ATOM      4  C   UNL     1      45.450   8.823  12.452  0.00  0.00    +0.000 A 
ATOM      5  C   UNL     1      45.629   7.569  11.852  0.00  0.00    +0.000 A 
ATOM      6  C   UNL     1      46.933   7.061  11.744  0.00  0.00    +0.000 A 
ATOM      7  C   UNL     1      48.031   7.795  12.207  0.00  0.00    +0.000 A 
BRANCH   5   8
ATOM      8  C   UNL     1      44.443   6.754  11.379  0.00  0.00    +0.000 C 
BRANCH   8   9
ATOM      9  N   UNL     1      44.634   5.304  11.211  0.00  0.00    +0.000 NA
ATOM     10  C   UNL     1      43.820   4.719  10.144  0.00  0.00    +0.000 C 
ATOM     11  C   UNL     1      44.222   3.266   9.870  0.00  0.00    +0.000 C 
ATOM     12  C   UNL     1      44.226   2.419  11.139  0.00  0.00    +0.000 C 
ATOM     13  C   UNL     1      45.003   3.107  12.259  0.00  0.00    +0.000 C 
ATOM     14  C   UNL     1      44.551   4.555  12.465  0.00  0.00    +0.000 C 
BRANCH  12  15
ATOM     15  O   UNL     1      42.890   2.138  11.557  0.00  0.00    +0.000 OA
ATOM     16  H   UNL     1      42.291   2.305  10.811  0.00  0.00    +0.000 HD
ENDBRANCH  12  15
ENDBRANCH   8   9
ENDBRANCH   5   8
ENDBRANCH   1   2
BRANCH   1  19
ATOM     17  O   UNL     1      49.015   9.238  16.035  0.00  0.00    +0.000 OA
ATOM     18  C   UNL     1      49.857   8.727  15.303  0.00  0.00    +0.000 C 
ATOM     19  N   UNL     1      49.970   9.038  13.972  0.00  0.00    +0.000 N 
ATOM     20  H   UNL     1      50.549   8.454  13.383  0.00  0.00    +0.000 HD
BRANCH  18  21
ATOM     21  C   UNL     1      50.857   7.784  15.822  0.00  0.00    +0.000 A 
ATOM     22  C   UNL     1      52.211   8.077  15.717  0.00  0.00    +0.000 A 
ATOM     23  S   UNL     1      53.221   6.848  16.334  0.00  0.00    +0.000 S 
ATOM     24  C   UNL     1      51.885   5.907  16.809  0.00  0.00    +0.000 A 
ATOM     25  N   UNL     1      52.056   4.710  17.430  0.00  0.00    +0.000 NA
ATOM     26  C   UNL     1      50.953   4.125  17.770  0.00  0.00    +0.000 A 
ATOM     27  N   UNL     1      49.702   4.627  17.546  0.00  0.00    +0.000 N 
ATOM     28  C   UNL     1      49.479   5.797  16.861  0.00  0.00    +0.000 A 
ATOM     29  O   UNL     1      48.343   6.149  16.571  0.00  0.00    +0.000 OA
ATOM     30  C   UNL     1      50.685   6.513  16.485  0.00  0.00    +0.000 A 
ATOM     31  H   UNL     1      48.879   4.109  17.818  0.00  0.00    +0.000 HD
ENDBRANCH  18  21
ENDBRANCH   1  19
TORSDOF 6
ENDMDL
