MODEL 1
REMARK VINA RESULT:    -8.280      0.000      0.000
REMARK INTER + INTRA:         -13.107
REMARK INTER:                 -11.668
REMARK INTRA:                  -1.439
REMARK UNBOUND:                -1.439
REMARK  Name = 
REMARK  7 active torsions:
REMARK  status: ('A' for Active; 'I' for Inactive)
REMARK    1  A    between atoms: C_2  and  C_20
REMARK    2  A    between atoms: N_3  and  C_4
REMARK    3  A    between atoms: C_4  and  C_5
REMARK    4  A    between atoms: C_8  and  C_9
REMARK    5  A    between atoms: C_9  and  N_10
REMARK    6  A    between atoms: N_10  and  C_11
REMARK    7  A    between atoms: C_11  and  C_12
REMARK                            x       y       z     vdW  Elec       q    Type
REMARK                         _______ _______ _______ _____ _____    ______ ____
ROOT
ATOM      1  C   UNL     1      45.938   6.810  12.347  0.00  0.00    +0.000 A 
ATOM      2  C   UNL     1      46.196   6.314  11.063  0.00  0.00    +0.000 A 
ATOM      3  C   UNL     1      45.445   5.253  10.545  0.00  0.00    +0.000 A 
ATOM      4  C   UNL     1      44.417   4.668  11.300  0.00  0.00    +0.000 A 
ATOM      5  C   UNL     1      44.154   5.179  12.579  0.00  0.00    +0.000 A 
ATOM      6  C   UNL     1      44.899   6.241  13.094  0.00  0.00    +0.000 A 
ENDROOT
BRANCH   1   7
ATOM      7  C   UNL     1      46.744   7.955  12.898  0.00  0.00    +0.000 C 
BRANCH   7  10
ATOM      8  O   UNL     1      49.117   6.579  13.231  0.00  0.00    +0.000 OA
ATOM      9  C   UNL     1      48.527   6.945  14.240  0.00  0.00    +0.000 C 
ATOM     10  N   UNL     1      47.329   7.626  14.173  0.00  0.00    +0.000 N 
ATOM     11  H   UNL     1      46.926   8.034  15.003  0.00  0.00    +0.000 HD
BRANCH   9  12
ATOM     12  C   UNL     1      48.990   6.632  15.596  0.00  0.00    +0.000 A 
ATOM     13  C   UNL     1      49.874   7.467  16.262  0.00  0.00    +0.000 A 
ATOM     14  S   UNL     1      50.162   7.014  17.865  0.00  0.00    +0.000 S 
ATOM     15  C   UNL     1      49.109   5.669  17.739  0.00  0.00    +0.000 A 
ATOM     16  C   UNL     1      48.817   4.774  18.787  0.00  0.00    +0.000 A 
ATOM     17  N   UNL     1      47.996   3.725  18.580  0.00  0.00    +0.000 NA
ATOM     18  C   UNL     1      47.486   3.544  17.350  0.00  0.00    +0.000 A 
ATOM     19  C   UNL     1      47.737   4.382  16.277  0.00  0.00    +0.000 A 
ATOM     20 CL   UNL     1      47.131   3.971  14.738  0.00  0.00    +0.000 Cl
ATOM     21  C   UNL     1      48.558   5.523  16.452  0.00  0.00    +0.000 A 
ENDBRANCH   9  12
ENDBRANCH   7  10
ENDBRANCH   1   7
BRANCH   4  22
ATOM     22  C   UNL     1      43.582   3.529  10.748  0.00  0.00    +0.000 C 
BRANCH  22  23
ATOM     23  N   UNL     1      43.956   3.219   9.379  0.00  0.00    +0.000 NA
ATOM     24  H   UNL     1      44.498   3.995   8.994  0.00  0.00    +0.000 HD
BRANCH  23  25
ATOM     25  C   UNL     1      44.750   1.999   9.256  0.00  0.00    +0.000 C 
BRANCH  25  26
ATOM     26  C   UNL     1      45.772   2.146   8.147  0.00  0.00    +0.000 A 
ATOM     27  C   UNL     1      46.646   1.099   7.823  0.00  0.00    +0.000 A 
ATOM     28  C   UNL     1      47.558   1.236   6.770  0.00  0.00    +0.000 A 
ATOM     29  C   UNL     1      47.614   2.423   6.041  0.00  0.00    +0.000 A 
ATOM     30  C   UNL     1      46.769   3.481   6.372  0.00  0.00    +0.000 A 
ATOM     31  C   UNL     1      45.853   3.343   7.417  0.00  0.00    +0.000 A 
ENDBRANCH  25  26
ENDBRANCH  23  25
ENDBRANCH  22  23
ENDBRANCH   4  22
TORSDOF 7
ENDMDL
MODEL 2
REMARK VINA RESULT:    -7.853      2.138      2.835
REMARK INTER + INTRA:         -12.506
REMARK INTER:                 -11.427
REMARK INTRA:                  -1.079
REMARK UNBOUND:                -1.439
REMARK  Name = 
REMARK  7 active torsions:
REMARK  status: ('A' for Active; 'I' for Inactive)
REMARK    1  A    between atoms: C_2  and  C_20
REMARK    2  A    between atoms: N_3  and  C_4
REMARK    3  A    between atoms: C_4  and  C_5
REMARK    4  A    between atoms: C_8  and  C_9
REMARK    5  A    between atoms: C_9  and  N_10
REMARK    6  A    between atoms: N_10  and  C_11
REMARK    7  A    between atoms: C_11  and  C_12
REMARK                            x       y       z     vdW  Elec       q    Type
REMARK                         _______ _______ _______ _____ _____    ______ ____
ROOT
ATOM      1  C   UNL     1      46.915   6.160  12.960  0.00  0.00    +0.000 A 
ATOM      2  C   UNL     1      45.928   5.351  13.539  0.00  0.00    +0.000 A 
ATOM      3  C   UNL     1      44.804   4.962  12.802  0.00  0.00    +0.000 A 
ATOM      4  C   UNL     1      44.646   5.370  11.468  0.00  0.00    +0.000 A 
ATOM      5  C   UNL     1      45.644   6.166  10.890  0.00  0.00    +0.000 A 
ATOM      6  C   UNL     1      46.769   6.551  11.623  0.00  0.00    +0.000 A 
ENDROOT
BRANCH   1   7
ATOM      7  C   UNL     1      48.125   6.572  13.754  0.00  0.00    +0.000 C 
BRANCH   7  10
ATOM      8  O   UNL     1      50.177   6.572  15.606  0.00  0.00    +0.000 OA
ATOM      9  C   UNL     1      49.049   6.310  16.007  0.00  0.00    +0.000 C 
ATOM     10  N   UNL     1      47.966   6.273  15.155  0.00  0.00    +0.000 N 
ATOM     11  H   UNL     1      47.030   6.186  15.521  0.00  0.00    +0.000 HD
BRANCH   9  12
ATOM     12  C   UNL     1      48.761   5.941  17.398  0.00  0.00    +0.000 A 
ATOM     13  C   UNL     1      48.917   4.637  17.841  0.00  0.00    +0.000 A 
ATOM     14  S   UNL     1      48.685   4.451  19.504  0.00  0.00    +0.000 S 
ATOM     15  C   UNL     1      48.363   6.120  19.709  0.00  0.00    +0.000 A 
ATOM     16  C   UNL     1      48.085   6.742  20.943  0.00  0.00    +0.000 A 
ATOM     17  N   UNL     1      47.815   8.062  20.997  0.00  0.00    +0.000 NA
ATOM     18  C   UNL     1      47.794   8.758  19.848  0.00  0.00    +0.000 A 
ATOM     19  C   UNL     1      48.051   8.208  18.604  0.00  0.00    +0.000 A 
ATOM     20 CL   UNL     1      47.868   9.172  17.211  0.00  0.00    +0.000 Cl
ATOM     21  C   UNL     1      48.384   6.835  18.497  0.00  0.00    +0.000 A 
ENDBRANCH   9  12
ENDBRANCH   7  10
ENDBRANCH   1   7
BRANCH   4  22
ATOM     22  C   UNL     1      43.443   4.942  10.650  0.00  0.00    +0.000 C 
BRANCH  22  23
ATOM     23  N   UNL     1      43.850   4.353   9.386  0.00  0.00    +0.000 NA
ATOM     24  H   UNL     1      44.577   4.932   8.963  0.00  0.00    +0.000 HD
BRANCH  23  25
ATOM     25  C   UNL     1      44.368   2.993   9.519  0.00  0.00    +0.000 C 
BRANCH  25  26
ATOM     26  C   UNL     1      45.459   2.743   8.499  0.00  0.00    +0.000 A 
ATOM     27  C   UNL     1      45.953   3.781   7.695  0.00  0.00    +0.000 A 
ATOM     28  C   UNL     1      46.988   3.542   6.785  0.00  0.00    +0.000 A 
ATOM     29  C   UNL     1      47.531   2.264   6.659  0.00  0.00    +0.000 A 
ATOM     30  C   UNL     1      47.029   1.219   7.433  0.00  0.00    +0.000 A 
ATOM     31  C   UNL     1      46.001   1.457   8.347  0.00  0.00    +0.000 A 
ENDBRANCH  25  26
ENDBRANCH  23  25
ENDBRANCH  22  23
ENDBRANCH   4  22
TORSDOF 7
ENDMDL
MODEL 3
REMARK VINA RESULT:    -7.678      1.645      2.242
REMARK INTER + INTRA:         -12.259
REMARK INTER:                 -11.218
REMARK INTRA:                  -1.042
REMARK UNBOUND:                -1.439
REMARK  Name = 
REMARK  7 active torsions:
REMARK  status: ('A' for Active; 'I' for Inactive)
REMARK    1  A    between atoms: C_2  and  C_20
REMARK    2  A    between atoms: N_3  and  C_4
REMARK    3  A    between atoms: C_4  and  C_5
REMARK    4  A    between atoms: C_8  and  C_9
REMARK    5  A    between atoms: C_9  and  N_10
REMARK    6  A    between atoms: N_10  and  C_11
REMARK    7  A    between atoms: C_11  and  C_12
REMARK                            x       y       z     vdW  Elec       q    Type
REMARK                         _______ _______ _______ _____ _____    ______ ____
ROOT
ATOM      1  C   UNL     1      47.021   6.062  12.873  0.00  0.00    +0.000 A 
ATOM      2  C   UNL     1      46.230   5.114  13.535  0.00  0.00    +0.000 A 
ATOM      3  C   UNL     1      45.047   4.643  12.955  0.00  0.00    +0.000 A 
ATOM      4  C   UNL     1      44.633   5.107  11.697  0.00  0.00    +0.000 A 
ATOM      5  C   UNL     1      45.437   6.044  11.032  0.00  0.00    +0.000 A 
ATOM      6  C   UNL     1      46.620   6.510  11.608  0.00  0.00    +0.000 A 
ENDROOT
BRANCH   1   7
ATOM      7  C   UNL     1      48.296   6.562  13.498  0.00  0.00    +0.000 C 
BRANCH   7  10
ATOM      8  O   UNL     1      50.255   6.588  15.446  0.00  0.00    +0.000 OA
ATOM      9  C   UNL     1      49.133   6.965  15.764  0.00  0.00    +0.000 C 
ATOM     10  N   UNL     1      48.089   6.975  14.863  0.00  0.00    +0.000 N 
ATOM     11  H   UNL     1      47.211   7.411  15.102  0.00  0.00    +0.000 HD
BRANCH   9  12
ATOM     12  C   UNL     1      48.780   7.365  17.131  0.00  0.00    +0.000 A 
ATOM     13  C   UNL     1      48.403   8.667  17.422  0.00  0.00    +0.000 A 
ATOM     14  S   UNL     1      47.888   8.886  19.016  0.00  0.00    +0.000 S 
ATOM     15  C   UNL     1      48.148   7.235  19.393  0.00  0.00    +0.000 A 
ATOM     16  C   UNL     1      47.888   6.643  20.644  0.00  0.00    +0.000 A 
ATOM     17  N   UNL     1      48.155   5.338  20.851  0.00  0.00    +0.000 NA
ATOM     18  C   UNL     1      48.694   4.628  19.846  0.00  0.00    +0.000 A 
ATOM     19  C   UNL     1      48.980   5.150  18.595  0.00  0.00    +0.000 A 
ATOM     20 CL   UNL     1      49.779   4.176  17.449  0.00  0.00    +0.000 Cl
ATOM     21  C   UNL     1      48.678   6.504  18.312  0.00  0.00    +0.000 A 
ENDBRANCH   9  12
ENDBRANCH   7  10
ENDBRANCH   1   7
BRANCH   4  22
ATOM     22  C   UNL     1      43.363   4.594  11.045  0.00  0.00    +0.000 C 
BRANCH  22  23
ATOM     23  N   UNL     1      43.642   3.996   9.751  0.00  0.00    +0.000 NA
ATOM     24  H   UNL     1      44.187   4.651   9.187  0.00  0.00    +0.000 HD
BRANCH  23  25
ATOM     25  C   UNL     1      44.383   2.740   9.839  0.00  0.00    +0.000 C 
BRANCH  25  26
ATOM     26  C   UNL     1      45.406   2.654   8.726  0.00  0.00    +0.000 A 
ATOM     27  C   UNL     1      45.776   3.788   7.990  0.00  0.00    +0.000 A 
ATOM     28  C   UNL     1      46.751   3.700   6.991  0.00  0.00    +0.000 A 
ATOM     29  C   UNL     1      47.356   2.476   6.707  0.00  0.00    +0.000 A 
ATOM     30  C   UNL     1      46.976   1.336   7.413  0.00  0.00    +0.000 A 
ATOM     31  C   UNL     1      46.009   1.424   8.417  0.00  0.00    +0.000 A 
ENDBRANCH  25  26
ENDBRANCH  23  25
ENDBRANCH  22  23
ENDBRANCH   4  22
TORSDOF 7
ENDMDL
MODEL 4
REMARK VINA RESULT:    -7.287      1.618      2.118
REMARK INTER + INTRA:         -11.708
REMARK INTER:                 -10.507
REMARK INTRA:                  -1.201
REMARK UNBOUND:                -1.439
REMARK  Name = 
REMARK  7 active torsions:
REMARK  status: ('A' for Active; 'I' for Inactive)
REMARK    1  A    between atoms: C_2  and  C_20
REMARK    2  A    between atoms: N_3  and  C_4
REMARK    3  A    between atoms: C_4  and  C_5
REMARK    4  A    between atoms: C_8  and  C_9
REMARK    5  A    between atoms: C_9  and  N_10
REMARK    6  A    between atoms: N_10  and  C_11
REMARK    7  A    between atoms: C_11  and  C_12
REMARK                            x       y       z     vdW  Elec       q    Type
REMARK                         _______ _______ _______ _____ _____    ______ ____
ROOT
ATOM      1  C   UNL     1      46.816   6.602  12.464  0.00  0.00    +0.000 A 
ATOM      2  C   UNL     1      46.535   5.586  13.386  0.00  0.00    +0.000 A 
ATOM      3  C   UNL     1      45.664   4.543  13.054  0.00  0.00    +0.000 A 
ATOM      4  C   UNL     1      45.057   4.493  11.790  0.00  0.00    +0.000 A 
ATOM      5  C   UNL     1      45.354   5.504  10.865  0.00  0.00    +0.000 A 
ATOM      6  C   UNL     1      46.228   6.542  11.194  0.00  0.00    +0.000 A 
ENDROOT
BRANCH   1   7
ATOM      7  C   UNL     1      47.759   7.719  12.823  0.00  0.00    +0.000 C 
BRANCH   7  10
ATOM      8  O   UNL     1      48.384   8.528  15.390  0.00  0.00    +0.000 OA
ATOM      9  C   UNL     1      49.109   7.691  14.866  0.00  0.00    +0.000 C 
ATOM     10  N   UNL     1      48.884   7.237  13.584  0.00  0.00    +0.000 N 
ATOM     11  H   UNL     1      49.408   6.456  13.219  0.00  0.00    +0.000 HD
BRANCH   9  12
ATOM     12  C   UNL     1      50.312   7.157  15.515  0.00  0.00    +0.000 A 
ATOM     13  C   UNL     1      51.560   7.714  15.281  0.00  0.00    +0.000 A 
ATOM     14  S   UNL     1      52.788   7.058  16.238  0.00  0.00    +0.000 S 
ATOM     15  C   UNL     1      51.697   5.990  17.016  0.00  0.00    +0.000 A 
ATOM     16  C   UNL     1      52.046   5.083  18.035  0.00  0.00    +0.000 A 
ATOM     17  N   UNL     1      51.119   4.261  18.566  0.00  0.00    +0.000 NA
ATOM     18  C   UNL     1      49.866   4.314  18.082  0.00  0.00    +0.000 A 
ATOM     19  C   UNL     1      49.459   5.177  17.078  0.00  0.00    +0.000 A 
ATOM     20 CL   UNL     1      47.873   5.056  16.468  0.00  0.00    +0.000 Cl
ATOM     21  C   UNL     1      50.384   6.091  16.518  0.00  0.00    +0.000 A 
ENDBRANCH   9  12
ENDBRANCH   7  10
ENDBRANCH   1   7
BRANCH   4  22
ATOM     22  C   UNL     1      44.123   3.361  11.407  0.00  0.00    +0.000 C 
BRANCH  22  23
ATOM     23  N   UNL     1      44.811   2.360  10.610  0.00  0.00    +0.000 NA
ATOM     24  H   UNL     1      44.673   1.440  11.031  0.00  0.00    +0.000 HD
BRANCH  23  25
ATOM     25  C   UNL     1      44.350   2.304   9.225  0.00  0.00    +0.000 C 
BRANCH  25  26
ATOM     26  C   UNL     1      45.529   2.362   8.275  0.00  0.00    +0.000 A 
ATOM     27  C   UNL     1      45.868   3.549   7.611  0.00  0.00    +0.000 A 
ATOM     28  C   UNL     1      46.983   3.597   6.768  0.00  0.00    +0.000 A 
ATOM     29  C   UNL     1      47.761   2.458   6.568  0.00  0.00    +0.000 A 
ATOM     30  C   UNL     1      47.418   1.264   7.201  0.00  0.00    +0.000 A 
ATOM     31  C   UNL     1      46.310   1.217   8.050  0.00  0.00    +0.000 A 
ENDBRANCH  25  26
ENDBRANCH  23  25
ENDBRANCH  22  23
ENDBRANCH   4  22
TORSDOF 7
ENDMDL
MODEL 5
REMARK VINA RESULT:    -7.134      1.853      2.639
REMARK INTER + INTRA:         -11.493
REMARK INTER:                 -10.452
REMARK INTRA:                  -1.040
REMARK UNBOUND:                -1.439
REMARK  Name = 
REMARK  7 active torsions:
REMARK  status: ('A' for Active; 'I' for Inactive)
REMARK    1  A    between atoms: C_2  and  C_20
REMARK    2  A    between atoms: N_3  and  C_4
REMARK    3  A    between atoms: C_4  and  C_5
REMARK    4  A    between atoms: C_8  and  C_9
REMARK    5  A    between atoms: C_9  and  N_10
REMARK    6  A    between atoms: N_10  and  C_11
REMARK    7  A    between atoms: C_11  and  C_12
REMARK                            x       y       z     vdW  Elec       q    Type
REMARK                         _______ _______ _______ _____ _____    ______ ____
ROOT
ATOM      1  C   UNL     1      46.016   6.865  12.332  0.00  0.00    +0.000 A 
ATOM      2  C   UNL     1      46.232   6.365  11.041  0.00  0.00    +0.000 A 
ATOM      3  C   UNL     1      45.448   5.319  10.541  0.00  0.00    +0.000 A 
ATOM      4  C   UNL     1      44.427   4.754  11.321  0.00  0.00    +0.000 A 
ATOM      5  C   UNL     1      44.205   5.269  12.606  0.00  0.00    +0.000 A 
ATOM      6  C   UNL     1      44.984   6.317  13.103  0.00  0.00    +0.000 A 
ENDROOT
BRANCH   1   7
ATOM      7  C   UNL     1      46.857   7.994  12.863  0.00  0.00    +0.000 C 
BRANCH   7  10
ATOM      8  O   UNL     1      49.127   6.509  13.392  0.00  0.00    +0.000 OA
ATOM      9  C   UNL     1      48.510   6.963  14.348  0.00  0.00    +0.000 C 
ATOM     10  N   UNL     1      47.359   7.704  14.183  0.00  0.00    +0.000 N 
ATOM     11  H   UNL     1      46.939   8.179  14.967  0.00  0.00    +0.000 HD
BRANCH   9  12
ATOM     12  C   UNL     1      48.887   6.701  15.741  0.00  0.00    +0.000 A 
ATOM     13  C   UNL     1      48.457   5.559  16.398  0.00  0.00    +0.000 A 
ATOM     14  S   UNL     1      49.126   5.366  17.938  0.00  0.00    +0.000 S 
ATOM     15  C   UNL     1      50.028   6.814  17.795  0.00  0.00    +0.000 A 
ATOM     16  C   UNL     1      50.908   7.316  18.775  0.00  0.00    +0.000 A 
ATOM     17  N   UNL     1      51.553   8.483  18.580  0.00  0.00    +0.000 NA
ATOM     18  C   UNL     1      51.317   9.163  17.445  0.00  0.00    +0.000 A 
ATOM     19  C   UNL     1      50.462   8.730  16.447  0.00  0.00    +0.000 A 
ATOM     20 CL   UNL     1      50.154   9.746  15.114  0.00  0.00    +0.000 Cl
ATOM     21  C   UNL     1      49.794   7.489  16.582  0.00  0.00    +0.000 A 
ENDBRANCH   9  12
ENDBRANCH   7  10
ENDBRANCH   1   7
BRANCH   4  22
ATOM     22  C   UNL     1      43.557   3.632  10.789  0.00  0.00    +0.000 C 
BRANCH  22  23
ATOM     23  N   UNL     1      43.921   3.286   9.426  0.00  0.00    +0.000 NA
ATOM     24  H   UNL     1      44.449   4.057   9.012  0.00  0.00    +0.000 HD
BRANCH  23  25
ATOM     25  C   UNL     1      44.731   2.074   9.332  0.00  0.00    +0.000 C 
BRANCH  25  26
ATOM     26  C   UNL     1      45.740   2.201   8.209  0.00  0.00    +0.000 A 
ATOM     27  C   UNL     1      45.873   3.393   7.484  0.00  0.00    +0.000 A 
ATOM     28  C   UNL     1      46.836   3.507   6.476  0.00  0.00    +0.000 A 
ATOM     29  C   UNL     1      47.667   2.429   6.174  0.00  0.00    +0.000 A 
ATOM     30  C   UNL     1      47.526   1.230   6.870  0.00  0.00    +0.000 A 
ATOM     31  C   UNL     1      46.570   1.116   7.882  0.00  0.00    +0.000 A 
ENDBRANCH  25  26
ENDBRANCH  23  25
ENDBRANCH  22  23
ENDBRANCH   4  22
TORSDOF 7
ENDMDL
MODEL 6
REMARK VINA RESULT:    -7.069      2.179      2.735
REMARK INTER + INTRA:         -11.401
REMARK INTER:                 -10.660
REMARK INTRA:                  -0.741
REMARK UNBOUND:                -1.439
REMARK  Name = 
REMARK  7 active torsions:
REMARK  status: ('A' for Active; 'I' for Inactive)
REMARK    1  A    between atoms: C_2  and  C_20
REMARK    2  A    between atoms: N_3  and  C_4
REMARK    3  A    between atoms: C_4  and  C_5
REMARK    4  A    between atoms: C_8  and  C_9
REMARK    5  A    between atoms: C_9  and  N_10
REMARK    6  A    between atoms: N_10  and  C_11
REMARK    7  A    between atoms: C_11  and  C_12
REMARK                            x       y       z     vdW  Elec       q    Type
REMARK                         _______ _______ _______ _____ _____    ______ ____
ROOT
ATOM      1  C   UNL     1      46.540   6.203  12.955  0.00  0.00    +0.000 A 
ATOM      2  C   UNL     1      46.354   4.836  13.195  0.00  0.00    +0.000 A 
ATOM      3  C   UNL     1      45.362   4.122  12.515  0.00  0.00    +0.000 A 
ATOM      4  C   UNL     1      44.536   4.760  11.576  0.00  0.00    +0.000 A 
ATOM      5  C   UNL     1      44.738   6.126  11.328  0.00  0.00    +0.000 A 
ATOM      6  C   UNL     1      45.733   6.837  12.003  0.00  0.00    +0.000 A 
ENDROOT
BRANCH   1   7
ATOM      7  C   UNL     1      47.613   6.966  13.684  0.00  0.00    +0.000 C 
BRANCH   7  10
ATOM      8  O   UNL     1      48.933   8.103  15.829  0.00  0.00    +0.000 OA
ATOM      9  C   UNL     1      48.733   6.895  15.862  0.00  0.00    +0.000 C 
ATOM     10  N   UNL     1      48.094   6.237  14.831  0.00  0.00    +0.000 N 
ATOM     11  H   UNL     1      47.820   5.272  14.932  0.00  0.00    +0.000 HD
BRANCH   9  12
ATOM     12  C   UNL     1      49.212   6.033  16.948  0.00  0.00    +0.000 A 
ATOM     13  C   UNL     1      48.326   5.402  17.807  0.00  0.00    +0.000 A 
ATOM     14  S   UNL     1      49.068   4.335  18.887  0.00  0.00    +0.000 S 
ATOM     15  C   UNL     1      50.621   4.671  18.248  0.00  0.00    +0.000 A 
ATOM     16  C   UNL     1      51.819   4.071  18.686  0.00  0.00    +0.000 A 
ATOM     17  N   UNL     1      52.999   4.424  18.138  0.00  0.00    +0.000 NA
ATOM     18  C   UNL     1      53.005   5.375  17.188  0.00  0.00    +0.000 A 
ATOM     19  C   UNL     1      51.866   6.007  16.718  0.00  0.00    +0.000 A 
ATOM     20 CL   UNL     1      52.022   7.284  15.602  0.00  0.00    +0.000 Cl
ATOM     21  C   UNL     1      50.596   5.641  17.228  0.00  0.00    +0.000 A 
ENDBRANCH   9  12
ENDBRANCH   7  10
ENDBRANCH   1   7
BRANCH   4  22
ATOM     22  C   UNL     1      43.468   3.998  10.816  0.00  0.00    +0.000 C 
BRANCH  22  23
ATOM     23  N   UNL     1      44.056   3.135   9.807  0.00  0.00    +0.000 NA
ATOM     24  H   UNL     1      43.330   2.534   9.412  0.00  0.00    +0.000 HD
BRANCH  23  25
ATOM     25  C   UNL     1      44.689   3.868   8.713  0.00  0.00    +0.000 C 
BRANCH  25  26
ATOM     26  C   UNL     1      45.691   2.985   7.999  0.00  0.00    +0.000 A 
ATOM     27  C   UNL     1      46.451   3.471   6.925  0.00  0.00    +0.000 A 
ATOM     28  C   UNL     1      47.400   2.655   6.301  0.00  0.00    +0.000 A 
ATOM     29  C   UNL     1      47.591   1.343   6.734  0.00  0.00    +0.000 A 
ATOM     30  C   UNL     1      46.822   0.840   7.782  0.00  0.00    +0.000 A 
ATOM     31  C   UNL     1      45.879   1.656   8.411  0.00  0.00    +0.000 A 
ENDBRANCH  25  26
ENDBRANCH  23  25
ENDBRANCH  22  23
ENDBRANCH   4  22
TORSDOF 7
ENDMDL
MODEL 7
REMARK VINA RESULT:    -6.529      2.195      2.808
REMARK INTER + INTRA:         -10.640
REMARK INTER:                  -9.665
REMARK INTRA:                  -0.975
REMARK UNBOUND:                -1.439
REMARK  Name = 
REMARK  7 active torsions:
REMARK  status: ('A' for Active; 'I' for Inactive)
REMARK    1  A    between atoms: C_2  and  C_20
REMARK    2  A    between atoms: N_3  and  C_4
REMARK    3  A    between atoms: C_4  and  C_5
REMARK    4  A    between atoms: C_8  and  C_9
REMARK    5  A    between atoms: C_9  and  N_10
REMARK    6  A    between atoms: N_10  and  C_11
REMARK    7  A    between atoms: C_11  and  C_12
REMARK                            x       y       z     vdW  Elec       q    Type
REMARK                         _______ _______ _______ _____ _____    ______ ____
ROOT
ATOM      1  C   UNL     1      46.063   7.195  12.065  0.00  0.00    +0.000 A 
ATOM      2  C   UNL     1      46.305   6.541  10.850  0.00  0.00    +0.000 A 
ATOM      3  C   UNL     1      45.579   5.398  10.498  0.00  0.00    +0.000 A 
ATOM      4  C   UNL     1      44.592   4.886  11.354  0.00  0.00    +0.000 A 
ATOM      5  C   UNL     1      44.343   5.554  12.562  0.00  0.00    +0.000 A 
ATOM      6  C   UNL     1      45.063   6.698  12.910  0.00  0.00    +0.000 A 
ENDROOT
BRANCH   1   7
ATOM      7  C   UNL     1      46.841   8.428  12.436  0.00  0.00    +0.000 C 
BRANCH   7  10
ATOM      8  O   UNL     1      48.544  10.136  13.786  0.00  0.00    +0.000 OA
ATOM      9  C   UNL     1      48.965   9.020  13.504  0.00  0.00    +0.000 C 
ATOM     10  N   UNL     1      48.193   8.105  12.820  0.00  0.00    +0.000 N 
ATOM     11  H   UNL     1      48.504   7.152  12.713  0.00  0.00    +0.000 HD
BRANCH   9  12
ATOM     12  C   UNL     1      50.335   8.585  13.795  0.00  0.00    +0.000 A 
ATOM     13  C   UNL     1      51.414   9.090  13.087  0.00  0.00    +0.000 A 
ATOM     14  S   UNL     1      52.914   8.583  13.675  0.00  0.00    +0.000 S 
ATOM     15  C   UNL     1      52.183   7.656  14.916  0.00  0.00    +0.000 A 
ATOM     16  C   UNL     1      52.883   6.914  15.888  0.00  0.00    +0.000 A 
ATOM     17  N   UNL     1      52.215   6.191  16.808  0.00  0.00    +0.000 NA
ATOM     18  C   UNL     1      50.872   6.176  16.758  0.00  0.00    +0.000 A 
ATOM     19  C   UNL     1      50.124   6.876  15.827  0.00  0.00    +0.000 A 
ATOM     20 CL   UNL     1      48.433   6.672  15.793  0.00  0.00    +0.000 Cl
ATOM     21  C   UNL     1      50.776   7.687  14.866  0.00  0.00    +0.000 A 
ENDBRANCH   9  12
ENDBRANCH   7  10
ENDBRANCH   1   7
BRANCH   4  22
ATOM     22  C   UNL     1      43.783   3.659  10.981  0.00  0.00    +0.000 C 
BRANCH  22  23
ATOM     23  N   UNL     1      43.973   3.310   9.584  0.00  0.00    +0.000 NA
ATOM     24  H   UNL     1      44.496   4.054   9.118  0.00  0.00    +0.000 HD
BRANCH  23  25
ATOM     25  C   UNL     1      44.693   2.054   9.391  0.00  0.00    +0.000 C 
BRANCH  25  26
ATOM     26  C   UNL     1      45.690   2.187   8.258  0.00  0.00    +0.000 A 
ATOM     27  C   UNL     1      45.806   3.380   7.530  0.00  0.00    +0.000 A 
ATOM     28  C   UNL     1      46.758   3.500   6.512  0.00  0.00    +0.000 A 
ATOM     29  C   UNL     1      47.594   2.428   6.202  0.00  0.00    +0.000 A 
ATOM     30  C   UNL     1      47.468   1.228   6.900  0.00  0.00    +0.000 A 
ATOM     31  C   UNL     1      46.524   1.108   7.922  0.00  0.00    +0.000 A 
ENDBRANCH  25  26
ENDBRANCH  23  25
ENDBRANCH  22  23
ENDBRANCH   4  22
TORSDOF 7
ENDMDL
MODEL 8
REMARK VINA RESULT:    -6.139      4.367      5.980
REMARK INTER + INTRA:         -10.091
REMARK INTER:                  -8.896
REMARK INTRA:                  -1.195
REMARK UNBOUND:                -1.439
REMARK  Name = 
REMARK  7 active torsions:
REMARK  status: ('A' for Active; 'I' for Inactive)
REMARK    1  A    between atoms: C_2  and  C_20
REMARK    2  A    between atoms: N_3  and  C_4
REMARK    3  A    between atoms: C_4  and  C_5
REMARK    4  A    between atoms: C_8  and  C_9
REMARK    5  A    between atoms: C_9  and  N_10
REMARK    6  A    between atoms: N_10  and  C_11
REMARK    7  A    between atoms: C_11  and  C_12
REMARK                            x       y       z     vdW  Elec       q    Type
REMARK                         _______ _______ _______ _____ _____    ______ ____
ROOT
ATOM      1  C   UNL     1      46.517   7.782  12.263  0.00  0.00    +0.000 A 
ATOM      2  C   UNL     1      45.153   7.684  11.961  0.00  0.00    +0.000 A 
ATOM      3  C   UNL     1      44.484   6.460  12.074  0.00  0.00    +0.000 A 
ATOM      4  C   UNL     1      45.166   5.308  12.495  0.00  0.00    +0.000 A 
ATOM      5  C   UNL     1      46.528   5.416  12.811  0.00  0.00    +0.000 A 
ATOM      6  C   UNL     1      47.194   6.638  12.704  0.00  0.00    +0.000 A 
ENDROOT
BRANCH   1   7
ATOM      7  C   UNL     1      47.231   9.102  12.146  0.00  0.00    +0.000 C 
BRANCH   7  10
ATOM      8  O   UNL     1      49.381  10.519  13.148  0.00  0.00    +0.000 OA
ATOM      9  C   UNL     1      49.607   9.676  12.289  0.00  0.00    +0.000 C 
ATOM     10  N   UNL     1      48.597   8.929  11.721  0.00  0.00    +0.000 N 
ATOM     11  H   UNL     1      48.814   8.152  11.116  0.00  0.00    +0.000 HD
BRANCH   9  12
ATOM     12  C   UNL     1      50.945   9.436  11.736  0.00  0.00    +0.000 A 
ATOM     13  C   UNL     1      51.786   8.479  12.283  0.00  0.00    +0.000 A 
ATOM     14  S   UNL     1      53.214   8.249  11.410  0.00  0.00    +0.000 S 
ATOM     15  C   UNL     1      52.769   9.429  10.251  0.00  0.00    +0.000 A 
ATOM     16  C   UNL     1      53.536   9.780   9.123  0.00  0.00    +0.000 A 
ATOM     17  N   UNL     1      53.113  10.746   8.282  0.00  0.00    +0.000 NA
ATOM     18  C   UNL     1      51.959  11.376   8.561  0.00  0.00    +0.000 A 
ATOM     19  C   UNL     1      51.162  11.084   9.655  0.00  0.00    +0.000 A 
ATOM     20 CL   UNL     1      49.788  12.042   9.965  0.00  0.00    +0.000 Cl
ATOM     21  C   UNL     1      51.539  10.048  10.544  0.00  0.00    +0.000 A 
ENDBRANCH   9  12
ENDBRANCH   7  10
ENDBRANCH   1   7
BRANCH   4  22
ATOM     22  C   UNL     1      44.454   3.977  12.640  0.00  0.00    +0.000 C 
BRANCH  22  23
ATOM     23  N   UNL     1      45.005   2.985  11.733  0.00  0.00    +0.000 NA
ATOM     24  H   UNL     1      45.042   2.080  12.205  0.00  0.00    +0.000 HD
BRANCH  23  25
ATOM     25  C   UNL     1      44.232   2.829  10.503  0.00  0.00    +0.000 C 
BRANCH  25  26
ATOM     26  C   UNL     1      45.134   2.966   9.294  0.00  0.00    +0.000 A 
ATOM     27  C   UNL     1      45.461   4.226   8.772  0.00  0.00    +0.000 A 
ATOM     28  C   UNL     1      46.327   4.338   7.679  0.00  0.00    +0.000 A 
ATOM     29  C   UNL     1      46.863   3.194   7.088  0.00  0.00    +0.000 A 
ATOM     30  C   UNL     1      46.524   1.936   7.581  0.00  0.00    +0.000 A 
ATOM     31  C   UNL     1      45.666   1.822   8.678  0.00  0.00    +0.000 A 
ENDBRANCH  25  26
ENDBRANCH  23  25
ENDBRANCH  22  23
ENDBRANCH   4  22
TORSDOF 7
ENDMDL
MODEL 9
REMARK VINA RESULT:    -6.042      3.601      8.158
REMARK INTER + INTRA:          -9.954
REMARK INTER:                  -7.656
REMARK INTRA:                  -2.298
REMARK UNBOUND:                -1.439
REMARK  Name = 
REMARK  7 active torsions:
REMARK  status: ('A' for Active; 'I' for Inactive)
REMARK    1  A    between atoms: C_2  and  C_20
REMARK    2  A    between atoms: N_3  and  C_4
REMARK    3  A    between atoms: C_4  and  C_5
REMARK    4  A    between atoms: C_8  and  C_9
REMARK    5  A    between atoms: C_9  and  N_10
REMARK    6  A    between atoms: N_10  and  C_11
REMARK    7  A    between atoms: C_11  and  C_12
REMARK                            x       y       z     vdW  Elec       q    Type
REMARK                         _______ _______ _______ _____ _____    ______ ____
ROOT
ATOM      1  C   UNL     1      49.203   8.900  16.344  0.00  0.00    +0.000 A 
ATOM      2  C   UNL     1      48.889   8.712  17.696  0.00  0.00    +0.000 A 
ATOM      3  C   UNL     1      49.767   8.027  18.543  0.00  0.00    +0.000 A 
ATOM      4  C   UNL     1      50.981   7.518  18.055  0.00  0.00    +0.000 A 
ATOM      5  C   UNL     1      51.297   7.723  16.705  0.00  0.00    +0.000 A 
ATOM      6  C   UNL     1      50.424   8.412  15.860  0.00  0.00    +0.000 A 
ENDROOT
BRANCH   1   7
ATOM      7  C   UNL     1      48.259   9.643  15.437  0.00  0.00    +0.000 C 
BRANCH   7  10
ATOM      8  O   UNL     1      48.367   8.908  12.776  0.00  0.00    +0.000 OA
ATOM      9  C   UNL     1      47.470   8.431  13.461  0.00  0.00    +0.000 C 
ATOM     10  N   UNL     1      47.328   8.750  14.795  0.00  0.00    +0.000 N 
ATOM     11  H   UNL     1      46.671   8.250  15.373  0.00  0.00    +0.000 HD
BRANCH   9  12
ATOM     12  C   UNL     1      46.432   7.548  12.918  0.00  0.00    +0.000 A 
ATOM     13  C   UNL     1      45.447   8.035  12.073  0.00  0.00    +0.000 A 
ATOM     14  S   UNL     1      44.443   6.835  11.435  0.00  0.00    +0.000 S 
ATOM     15  C   UNL     1      45.288   5.599  12.267  0.00  0.00    +0.000 A 
ATOM     16  C   UNL     1      44.994   4.224  12.182  0.00  0.00    +0.000 A 
ATOM     17  N   UNL     1      45.700   3.328  12.900  0.00  0.00    +0.000 NA
ATOM     18  C   UNL     1      46.670   3.782  13.713  0.00  0.00    +0.000 A 
ATOM     19  C   UNL     1      47.005   5.119  13.848  0.00  0.00    +0.000 A 
ATOM     20 CL   UNL     1      48.168   5.574  15.006  0.00  0.00    +0.000 Cl
ATOM     21  C   UNL     1      46.323   6.096  13.082  0.00  0.00    +0.000 A 
ENDBRANCH   9  12
ENDBRANCH   7  10
ENDBRANCH   1   7
BRANCH   4  22
ATOM     22  C   UNL     1      51.952   6.788  18.963  0.00  0.00    +0.000 C 
BRANCH  22  23
ATOM     23  N   UNL     1      51.346   5.595  19.528  0.00  0.00    +0.000 NA
ATOM     24  H   UNL     1      50.342   5.745  19.636  0.00  0.00    +0.000 HD
BRANCH  23  25
ATOM     25  C   UNL     1      51.547   4.399  18.713  0.00  0.00    +0.000 C 
BRANCH  25  26
ATOM     26  C   UNL     1      50.216   3.869  18.221  0.00  0.00    +0.000 A 
ATOM     27  C   UNL     1      49.006   4.410  18.676  0.00  0.00    +0.000 A 
ATOM     28  C   UNL     1      47.786   3.935  18.183  0.00  0.00    +0.000 A 
ATOM     29  C   UNL     1      47.762   2.907  17.241  0.00  0.00    +0.000 A 
ATOM     30  C   UNL     1      48.958   2.343  16.801  0.00  0.00    +0.000 A 
ATOM     31  C   UNL     1      50.177   2.821  17.287  0.00  0.00    +0.000 A 
ENDBRANCH  25  26
ENDBRANCH  23  25
ENDBRANCH  22  23
ENDBRANCH   4  22
TORSDOF 7
ENDMDL
