MODEL 1
REMARK VINA RESULT:    -8.313      0.000      0.000
REMARK INTER + INTRA:         -12.387
REMARK INTER:                 -11.714
REMARK INTRA:                  -0.673
REMARK UNBOUND:                -0.673
REMARK  Name = 
REMARK  7 active torsions:
REMARK  status: ('A' for Active; 'I' for Inactive)
REMARK    1  A    between atoms: C_2  and  C_20
REMARK    2  A    between atoms: N_3  and  C_4
REMARK    3  A    between atoms: C_4  and  C_5
REMARK    4  A    between atoms: C_8  and  C_9
REMARK    5  A    between atoms: C_9  and  N_10
REMARK    6  A    between atoms: N_10  and  C_11
REMARK    7  A    between atoms: C_11  and  C_12
REMARK                            x       y       z     vdW  Elec       q    Type
REMARK                         _______ _______ _______ _____ _____    ______ ____
ROOT
ATOM      1  C   UNL     1      46.853   5.152  13.697  0.00  0.00    +0.000 A 
ATOM      2  C   UNL     1      46.727   3.779  13.695  0.00  0.00    +0.000 A 
ATOM      3  N   UNL     1      45.875   3.106  12.898  0.00  0.00    +0.000 NA
ATOM      4  C   UNL     1      45.119   3.849  12.061  0.00  0.00    +0.000 A 
ATOM      5  N   UNL     1      45.167   5.194  11.984  0.00  0.00    +0.000 NA
ATOM      6  C   UNL     1      46.039   5.814  12.802  0.00  0.00    +0.000 A 
ENDROOT
BRANCH   1   7
ATOM      7  C   UNL     1      47.779   5.871  14.610  0.00  0.00    +0.000 C 
BRANCH   7  10
ATOM      8  O   UNL     1      49.867   5.609  16.302  0.00  0.00    +0.000 OA
ATOM      9  C   UNL     1      48.753   5.395  16.775  0.00  0.00    +0.000 C 
ATOM     10  N   UNL     1      47.621   5.500  15.995  0.00  0.00    +0.000 N 
ATOM     11  H   UNL     1      46.707   5.407  16.408  0.00  0.00    +0.000 HD
BRANCH   9  12
ATOM     12  C   UNL     1      48.557   5.015  18.172  0.00  0.00    +0.000 A 
ATOM     13  C   UNL     1      48.721   3.771  18.758  0.00  0.00    +0.000 A 
ATOM     14  N   UNL     1      48.479   3.888  20.103  0.00  0.00    +0.000 N 
ATOM     15  C   UNL     1      48.135   5.179  20.419  0.00  0.00    +0.000 A 
ATOM     16  C   UNL     1      47.810   5.754  21.653  0.00  0.00    +0.000 A 
ATOM     17  C   UNL     1      47.485   7.116  21.671  0.00  0.00    +0.000 A 
ATOM     18  C   UNL     1      47.487   7.869  20.501  0.00  0.00    +0.000 A 
ATOM     19  C   UNL     1      47.827   7.279  19.280  0.00  0.00    +0.000 A 
ATOM     20  C   UNL     1      48.160   5.907  19.229  0.00  0.00    +0.000 A 
ATOM     21  H   UNL     1      48.545   3.135  20.777  0.00  0.00    +0.000 HD
ENDBRANCH   9  12
ENDBRANCH   7  10
ENDBRANCH   1   7
BRANCH   4  22
ATOM     22  C   UNL     1      44.094   3.128  11.199  0.00  0.00    +0.000 C 
BRANCH  22  23
ATOM     23  N   UNL     1      44.643   2.405  10.031  0.00  0.00    +0.000 NA
ATOM     24  H   UNL     1      43.923   1.754   9.716  0.00  0.00    +0.000 HD
BRANCH  23  25
ATOM     25  C   UNL     1      44.949   3.320   8.929  0.00  0.00    +0.000 C 
BRANCH  25  26
ATOM     26  C   UNL     1      45.863   2.673   7.922  0.00  0.00    +0.000 A 
ATOM     27  C   UNL     1      46.277   3.338   6.765  0.00  0.00    +0.000 A 
ATOM     28  C   UNL     1      47.124   2.698   5.865  0.00  0.00    +0.000 A 
ATOM     29  C   UNL     1      47.528   1.404   6.149  0.00  0.00    +0.000 A 
ATOM     30  N   UNL     1      47.143   0.723   7.249  0.00  0.00    +0.000 NA
ATOM     31  C   UNL     1      46.322   1.371   8.106  0.00  0.00    +0.000 A 
ENDBRANCH  25  26
ENDBRANCH  23  25
ENDBRANCH  22  23
ENDBRANCH   4  22
TORSDOF 7
ENDMDL
MODEL 2
REMARK VINA RESULT:    -7.828      2.110      2.699
REMARK INTER + INTRA:         -11.704
REMARK INTER:                 -10.979
REMARK INTRA:                  -0.724
REMARK UNBOUND:                -0.673
REMARK  Name = 
REMARK  7 active torsions:
REMARK  status: ('A' for Active; 'I' for Inactive)
REMARK    1  A    between atoms: C_2  and  C_20
REMARK    2  A    between atoms: N_3  and  C_4
REMARK    3  A    between atoms: C_4  and  C_5
REMARK    4  A    between atoms: C_8  and  C_9
REMARK    5  A    between atoms: C_9  and  N_10
REMARK    6  A    between atoms: N_10  and  C_11
REMARK    7  A    between atoms: C_11  and  C_12
REMARK                            x       y       z     vdW  Elec       q    Type
REMARK                         _______ _______ _______ _____ _____    ______ ____
ROOT
ATOM      1  C   UNL     1      46.323   7.182  12.672  0.00  0.00    +0.000 A 
ATOM      2  C   UNL     1      46.475   5.818  12.539  0.00  0.00    +0.000 A 
ATOM      3  N   UNL     1      45.612   5.030  11.870  0.00  0.00    +0.000 NA
ATOM      4  C   UNL     1      44.551   5.644  11.303  0.00  0.00    +0.000 A 
ATOM      5  N   UNL     1      44.311   6.969  11.374  0.00  0.00    +0.000 NA
ATOM      6  C   UNL     1      45.209   7.708  12.053  0.00  0.00    +0.000 A 
ENDROOT
BRANCH   1   7
ATOM      7  C   UNL     1      47.275   8.024  13.444  0.00  0.00    +0.000 C 
BRANCH   7  10
ATOM      8  O   UNL     1      49.816   7.269  13.954  0.00  0.00    +0.000 OA
ATOM      9  C   UNL     1      49.002   7.083  14.856  0.00  0.00    +0.000 C 
ATOM     10  N   UNL     1      47.677   7.431  14.696  0.00  0.00    +0.000 N 
ATOM     11  H   UNL     1      47.033   7.355  15.468  0.00  0.00    +0.000 HD
BRANCH   9  12
ATOM     12  C   UNL     1      49.375   6.483  16.135  0.00  0.00    +0.000 A 
ATOM     13  C   UNL     1      50.332   6.912  17.040  0.00  0.00    +0.000 A 
ATOM     14  N   UNL     1      50.307   6.075  18.128  0.00  0.00    +0.000 N 
ATOM     15  C   UNL     1      49.369   5.088  17.953  0.00  0.00    +0.000 A 
ATOM     16  C   UNL     1      48.999   4.030  18.793  0.00  0.00    +0.000 A 
ATOM     17  C   UNL     1      48.002   3.158  18.339  0.00  0.00    +0.000 A 
ATOM     18  C   UNL     1      47.402   3.339  17.098  0.00  0.00    +0.000 A 
ATOM     19  C   UNL     1      47.777   4.408  16.279  0.00  0.00    +0.000 A 
ATOM     20  C   UNL     1      48.779   5.306  16.708  0.00  0.00    +0.000 A 
ATOM     21  H   UNL     1      50.891   6.167  18.950  0.00  0.00    +0.000 HD
ENDBRANCH   9  12
ENDBRANCH   7  10
ENDBRANCH   1   7
BRANCH   4  22
ATOM     22  C   UNL     1      43.517   4.775  10.602  0.00  0.00    +0.000 C 
BRANCH  22  23
ATOM     23  N   UNL     1      44.065   3.662   9.798  0.00  0.00    +0.000 NA
ATOM     24  H   UNL     1      43.274   3.090   9.498  0.00  0.00    +0.000 HD
BRANCH  23  25
ATOM     25  C   UNL     1      44.757   4.152   8.603  0.00  0.00    +0.000 C 
BRANCH  25  26
ATOM     26  C   UNL     1      45.691   3.109   8.049  0.00  0.00    +0.000 A 
ATOM     27  C   UNL     1      46.602   3.400   7.029  0.00  0.00    +0.000 A 
ATOM     28  C   UNL     1      47.446   2.402   6.551  0.00  0.00    +0.000 A 
ATOM     29  C   UNL     1      47.348   1.137   7.105  0.00  0.00    +0.000 A 
ATOM     30  N   UNL     1      46.476   0.812   8.083  0.00  0.00    +0.000 NA
ATOM     31  C   UNL     1      45.670   1.803   8.529  0.00  0.00    +0.000 A 
ENDBRANCH  25  26
ENDBRANCH  23  25
ENDBRANCH  22  23
ENDBRANCH   4  22
TORSDOF 7
ENDMDL
MODEL 3
REMARK VINA RESULT:    -7.318      1.571      2.126
REMARK INTER + INTRA:         -10.985
REMARK INTER:                 -10.502
REMARK INTRA:                  -0.483
REMARK UNBOUND:                -0.673
REMARK  Name = 
REMARK  7 active torsions:
REMARK  status: ('A' for Active; 'I' for Inactive)
REMARK    1  A    between atoms: C_2  and  C_20
REMARK    2  A    between atoms: N_3  and  C_4
REMARK    3  A    between atoms: C_4  and  C_5
REMARK    4  A    between atoms: C_8  and  C_9
REMARK    5  A    between atoms: C_9  and  N_10
REMARK    6  A    between atoms: N_10  and  C_11
REMARK    7  A    between atoms: C_11  and  C_12
REMARK                            x       y       z     vdW  Elec       q    Type
REMARK                         _______ _______ _______ _____ _____    ______ ____
ROOT
ATOM      1  C   UNL     1      48.015   6.558  13.393  0.00  0.00    +0.000 A 
ATOM      2  C   UNL     1      47.260   5.467  13.770  0.00  0.00    +0.000 A 
ATOM      3  N   UNL     1      46.293   4.924  13.005  0.00  0.00    +0.000 NA
ATOM      4  C   UNL     1      46.081   5.503  11.803  0.00  0.00    +0.000 A 
ATOM      5  N   UNL     1      46.763   6.570  11.341  0.00  0.00    +0.000 NA
ATOM      6  C   UNL     1      47.719   7.069  12.147  0.00  0.00    +0.000 A 
ENDROOT
BRANCH   1   7
ATOM      7  C   UNL     1      49.054   7.157  14.272  0.00  0.00    +0.000 C 
BRANCH   7  10
ATOM      8  O   UNL     1      49.710   5.793  16.507  0.00  0.00    +0.000 OA
ATOM      9  C   UNL     1      48.959   6.754  16.656  0.00  0.00    +0.000 C 
ATOM     10  N   UNL     1      48.561   7.516  15.579  0.00  0.00    +0.000 N 
ATOM     11  H   UNL     1      48.016   8.351  15.718  0.00  0.00    +0.000 HD
BRANCH   9  12
ATOM     12  C   UNL     1      48.440   7.144  17.966  0.00  0.00    +0.000 A 
ATOM     13  C   UNL     1      47.856   8.343  18.338  0.00  0.00    +0.000 A 
ATOM     14  N   UNL     1      47.471   8.250  19.652  0.00  0.00    +0.000 N 
ATOM     15  C   UNL     1      47.807   7.022  20.165  0.00  0.00    +0.000 A 
ATOM     16  C   UNL     1      47.609   6.489  21.445  0.00  0.00    +0.000 A 
ATOM     17  C   UNL     1      48.075   5.191  21.688  0.00  0.00    +0.000 A 
ATOM     18  C   UNL     1      48.712   4.459  20.691  0.00  0.00    +0.000 A 
ATOM     19  C   UNL     1      48.890   5.005  19.416  0.00  0.00    +0.000 A 
ATOM     20  C   UNL     1      48.430   6.311  19.139  0.00  0.00    +0.000 A 
ATOM     21  H   UNL     1      47.000   8.977  20.176  0.00  0.00    +0.000 HD
ENDBRANCH   9  12
ENDBRANCH   7  10
ENDBRANCH   1   7
BRANCH   4  22
ATOM     22  C   UNL     1      44.948   4.962  10.944  0.00  0.00    +0.000 C 
BRANCH  22  23
ATOM     23  N   UNL     1      45.112   5.151   9.486  0.00  0.00    +0.000 NA
ATOM     24  H   UNL     1      46.114   5.142   9.294  0.00  0.00    +0.000 HD
BRANCH  23  25
ATOM     25  C   UNL     1      44.489   4.061   8.731  0.00  0.00    +0.000 C 
BRANCH  25  26
ATOM     26  C   UNL     1      45.527   3.125   8.172  0.00  0.00    +0.000 A 
ATOM     27  C   UNL     1      46.498   3.556   7.263  0.00  0.00    +0.000 A 
ATOM     28  C   UNL     1      47.438   2.652   6.776  0.00  0.00    +0.000 A 
ATOM     29  C   UNL     1      47.375   1.339   7.210  0.00  0.00    +0.000 A 
ATOM     30  N   UNL     1      46.449   0.880   8.079  0.00  0.00    +0.000 NA
ATOM     31  C   UNL     1      45.549   1.782   8.537  0.00  0.00    +0.000 A 
ENDBRANCH  25  26
ENDBRANCH  23  25
ENDBRANCH  22  23
ENDBRANCH   4  22
TORSDOF 7
ENDMDL
MODEL 4
REMARK VINA RESULT:    -7.318      2.084      2.847
REMARK INTER + INTRA:         -10.985
REMARK INTER:                 -10.216
REMARK INTRA:                  -0.769
REMARK UNBOUND:                -0.673
REMARK  Name = 
REMARK  7 active torsions:
REMARK  status: ('A' for Active; 'I' for Inactive)
REMARK    1  A    between atoms: C_2  and  C_20
REMARK    2  A    between atoms: N_3  and  C_4
REMARK    3  A    between atoms: C_4  and  C_5
REMARK    4  A    between atoms: C_8  and  C_9
REMARK    5  A    between atoms: C_9  and  N_10
REMARK    6  A    between atoms: N_10  and  C_11
REMARK    7  A    between atoms: C_11  and  C_12
REMARK                            x       y       z     vdW  Elec       q    Type
REMARK                         _______ _______ _______ _____ _____    ______ ____
ROOT
ATOM      1  C   UNL     1      46.912   5.935  12.857  0.00  0.00    +0.000 A 
ATOM      2  C   UNL     1      46.006   4.987  13.285  0.00  0.00    +0.000 A 
ATOM      3  N   UNL     1      44.907   4.634  12.591  0.00  0.00    +0.000 NA
ATOM      4  C   UNL     1      44.715   5.260  11.409  0.00  0.00    +0.000 A 
ATOM      5  N   UNL     1      45.539   6.198  10.902  0.00  0.00    +0.000 NA
ATOM      6  C   UNL     1      46.623   6.509  11.637  0.00  0.00    +0.000 A 
ENDROOT
BRANCH   1   7
ATOM      7  C   UNL     1      48.101   6.328  13.659  0.00  0.00    +0.000 C 
BRANCH   7  10
ATOM      8  O   UNL     1      49.918   7.167  15.470  0.00  0.00    +0.000 OA
ATOM      9  C   UNL     1      48.824   7.727  15.497  0.00  0.00    +0.000 C 
ATOM     10  N   UNL     1      47.826   7.371  14.616  0.00  0.00    +0.000 N 
ATOM     11  H   UNL     1      46.963   7.891  14.586  0.00  0.00    +0.000 HD
BRANCH   9  12
ATOM     12  C   UNL     1      48.512   8.786  16.454  0.00  0.00    +0.000 A 
ATOM     13  C   UNL     1      48.492  10.156  16.247  0.00  0.00    +0.000 A 
ATOM     14  N   UNL     1      48.094  10.766  17.410  0.00  0.00    +0.000 N 
ATOM     15  C   UNL     1      47.871   9.831  18.390  0.00  0.00    +0.000 A 
ATOM     16  C   UNL     1      47.455   9.991  19.718  0.00  0.00    +0.000 A 
ATOM     17  C   UNL     1      47.321   8.839  20.501  0.00  0.00    +0.000 A 
ATOM     18  C   UNL     1      47.592   7.580  19.976  0.00  0.00    +0.000 A 
ATOM     19  C   UNL     1      47.996   7.439  18.645  0.00  0.00    +0.000 A 
ATOM     20  C   UNL     1      48.139   8.583  17.828  0.00  0.00    +0.000 A 
ATOM     21  H   UNL     1      47.975  11.763  17.536  0.00  0.00    +0.000 HD
ENDBRANCH   9  12
ENDBRANCH   7  10
ENDBRANCH   1   7
BRANCH   4  22
ATOM     22  C   UNL     1      43.445   4.939  10.634  0.00  0.00    +0.000 C 
BRANCH  22  23
ATOM     23  N   UNL     1      43.648   4.224   9.355  0.00  0.00    +0.000 NA
ATOM     24  H   UNL     1      44.247   4.812   8.774  0.00  0.00    +0.000 HD
BRANCH  23  25
ATOM     25  C   UNL     1      44.323   2.940   9.560  0.00  0.00    +0.000 C 
BRANCH  25  26
ATOM     26  C   UNL     1      45.430   2.742   8.558  0.00  0.00    +0.000 A 
ATOM     27  C   UNL     1      45.923   3.797   7.784  0.00  0.00    +0.000 A 
ATOM     28  C   UNL     1      46.949   3.565   6.873  0.00  0.00    +0.000 A 
ATOM     29  C   UNL     1      47.449   2.279   6.759  0.00  0.00    +0.000 A 
ATOM     30  N   UNL     1      46.994   1.231   7.479  0.00  0.00    +0.000 NA
ATOM     31  C   UNL     1      45.998   1.487   8.358  0.00  0.00    +0.000 A 
ENDBRANCH  25  26
ENDBRANCH  23  25
ENDBRANCH  22  23
ENDBRANCH   4  22
TORSDOF 7
ENDMDL
MODEL 5
REMARK VINA RESULT:    -7.080      4.835     12.029
REMARK INTER + INTRA:         -10.650
REMARK INTER:                  -9.875
REMARK INTRA:                  -0.775
REMARK UNBOUND:                -0.673
REMARK  Name = 
REMARK  7 active torsions:
REMARK  status: ('A' for Active; 'I' for Inactive)
REMARK    1  A    between atoms: C_2  and  C_20
REMARK    2  A    between atoms: N_3  and  C_4
REMARK    3  A    between atoms: C_4  and  C_5
REMARK    4  A    between atoms: C_8  and  C_9
REMARK    5  A    between atoms: C_9  and  N_10
REMARK    6  A    between atoms: N_10  and  C_11
REMARK    7  A    between atoms: C_11  and  C_12
REMARK                            x       y       z     vdW  Elec       q    Type
REMARK                         _______ _______ _______ _____ _____    ______ ____
ROOT
ATOM      1  C   UNL     1      46.124   3.370   7.924  0.00  0.00    +0.000 A 
ATOM      2  C   UNL     1      45.795   4.541   8.575  0.00  0.00    +0.000 A 
ATOM      3  N   UNL     1      44.935   4.607   9.609  0.00  0.00    +0.000 NA
ATOM      4  C   UNL     1      44.384   3.441  10.009  0.00  0.00    +0.000 A 
ATOM      5  N   UNL     1      44.638   2.245   9.443  0.00  0.00    +0.000 NA
ATOM      6  C   UNL     1      45.509   2.237   8.415  0.00  0.00    +0.000 A 
ENDROOT
BRANCH   1   7
ATOM      7  C   UNL     1      47.053   3.330   6.765  0.00  0.00    +0.000 C 
BRANCH   7  10
ATOM      8  O   UNL     1      48.215   1.121   5.735  0.00  0.00    +0.000 OA
ATOM      9  C   UNL     1      47.188   1.505   5.180  0.00  0.00    +0.000 C 
ATOM     10  N   UNL     1      46.519   2.624   5.626  0.00  0.00    +0.000 N 
ATOM     11  H   UNL     1      45.633   2.884   5.221  0.00  0.00    +0.000 HD
BRANCH   9  12
ATOM     12  C   UNL     1      46.620   0.815   4.024  0.00  0.00    +0.000 A 
ATOM     13  C   UNL     1      46.070   1.365   2.878  0.00  0.00    +0.000 A 
ATOM     14  N   UNL     1      45.710   0.344   2.035  0.00  0.00    +0.000 N 
ATOM     15  C   UNL     1      45.989  -0.873   2.608  0.00  0.00    +0.000 A 
ATOM     16  C   UNL     1      45.796  -2.171   2.119  0.00  0.00    +0.000 A 
ATOM     17  C   UNL     1      46.172  -3.238   2.943  0.00  0.00    +0.000 A 
ATOM     18  C   UNL     1      46.718  -3.015   4.202  0.00  0.00    +0.000 A 
ATOM     19  C   UNL     1      46.913  -1.711   4.668  0.00  0.00    +0.000 A 
ATOM     20  C   UNL     1      46.545  -0.612   3.860  0.00  0.00    +0.000 A 
ATOM     21  H   UNL     1      45.299   0.460   1.117  0.00  0.00    +0.000 HD
ENDBRANCH   9  12
ENDBRANCH   7  10
ENDBRANCH   1   7
BRANCH   4  22
ATOM     22  C   UNL     1      43.351   3.489  11.126  0.00  0.00    +0.000 C 
BRANCH  22  23
ATOM     23  N   UNL     1      42.888   4.842  11.503  0.00  0.00    +0.000 NA
ATOM     24  H   UNL     1      41.868   4.837  11.445  0.00  0.00    +0.000 HD
BRANCH  23  25
ATOM     25  C   UNL     1      43.269   5.176  12.878  0.00  0.00    +0.000 C 
BRANCH  25  26
ATOM     26  C   UNL     1      44.674   5.713  12.937  0.00  0.00    +0.000 A 
ATOM     27  C   UNL     1      45.724   4.977  13.493  0.00  0.00    +0.000 A 
ATOM     28  C   UNL     1      47.007   5.516  13.522  0.00  0.00    +0.000 A 
ATOM     29  C   UNL     1      47.200   6.783  12.999  0.00  0.00    +0.000 A 
ATOM     30  N   UNL     1      46.212   7.532  12.463  0.00  0.00    +0.000 NA
ATOM     31  C   UNL     1      44.976   6.981  12.446  0.00  0.00    +0.000 A 
ENDBRANCH  25  26
ENDBRANCH  23  25
ENDBRANCH  22  23
ENDBRANCH   4  22
TORSDOF 7
ENDMDL
MODEL 6
REMARK VINA RESULT:    -6.955      2.775      9.471
REMARK INTER + INTRA:         -10.474
REMARK INTER:                  -9.494
REMARK INTRA:                  -0.980
REMARK UNBOUND:                -0.673
REMARK  Name = 
REMARK  7 active torsions:
REMARK  status: ('A' for Active; 'I' for Inactive)
REMARK    1  A    between atoms: C_2  and  C_20
REMARK    2  A    between atoms: N_3  and  C_4
REMARK    3  A    between atoms: C_4  and  C_5
REMARK    4  A    between atoms: C_8  and  C_9
REMARK    5  A    between atoms: C_9  and  N_10
REMARK    6  A    between atoms: N_10  and  C_11
REMARK    7  A    between atoms: C_11  and  C_12
REMARK                            x       y       z     vdW  Elec       q    Type
REMARK                         _______ _______ _______ _____ _____    ______ ____
ROOT
ATOM      1  C   UNL     1      47.601   7.746  13.651  0.00  0.00    +0.000 A 
ATOM      2  C   UNL     1      47.738   8.839  14.480  0.00  0.00    +0.000 A 
ATOM      3  N   UNL     1      48.568   8.876  15.540  0.00  0.00    +0.000 NA
ATOM      4  C   UNL     1      49.298   7.764  15.772  0.00  0.00    +0.000 A 
ATOM      5  N   UNL     1      49.239   6.645  15.023  0.00  0.00    +0.000 NA
ATOM      6  C   UNL     1      48.394   6.665  13.975  0.00  0.00    +0.000 A 
ENDROOT
BRANCH   1   7
ATOM      7  C   UNL     1      46.653   7.721  12.506  0.00  0.00    +0.000 C 
BRANCH   7  10
ATOM      8  O   UNL     1      44.197   7.047  11.609  0.00  0.00    +0.000 OA
ATOM      9  C   UNL     1      45.036   6.149  11.626  0.00  0.00    +0.000 C 
ATOM     10  N   UNL     1      46.320   6.388  12.067  0.00  0.00    +0.000 N 
ATOM     11  H   UNL     1      47.025   5.670  11.999  0.00  0.00    +0.000 HD
BRANCH   9  12
ATOM     12  C   UNL     1      44.732   4.787  11.191  0.00  0.00    +0.000 A 
ATOM     13  C   UNL     1      44.041   3.799  11.873  0.00  0.00    +0.000 A 
ATOM     14  N   UNL     1      43.948   2.696  11.063  0.00  0.00    +0.000 N 
ATOM     15  C   UNL     1      44.582   2.923   9.866  0.00  0.00    +0.000 A 
ATOM     16  C   UNL     1      44.736   2.092   8.750  0.00  0.00    +0.000 A 
ATOM     17  C   UNL     1      45.452   2.596   7.658  0.00  0.00    +0.000 A 
ATOM     18  C   UNL     1      45.990   3.878   7.684  0.00  0.00    +0.000 A 
ATOM     19  C   UNL     1      45.815   4.698   8.803  0.00  0.00    +0.000 A 
ATOM     20  C   UNL     1      45.097   4.218   9.921  0.00  0.00    +0.000 A 
ATOM     21  H   UNL     1      43.477   1.832  11.303  0.00  0.00    +0.000 HD
ENDBRANCH   9  12
ENDBRANCH   7  10
ENDBRANCH   1   7
BRANCH   4  22
ATOM     22  C   UNL     1      50.191   7.744  17.004  0.00  0.00    +0.000 C 
BRANCH  22  23
ATOM     23  N   UNL     1      49.518   7.375  18.269  0.00  0.00    +0.000 NA
ATOM     24  H   UNL     1      48.519   7.307  18.068  0.00  0.00    +0.000 HD
BRANCH  23  25
ATOM     25  C   UNL     1      49.978   6.075  18.762  0.00  0.00    +0.000 C 
BRANCH  25  26
ATOM     26  C   UNL     1      49.264   4.946  18.066  0.00  0.00    +0.000 A 
ATOM     27  C   UNL     1      47.872   4.917  17.942  0.00  0.00    +0.000 A 
ATOM     28  C   UNL     1      47.259   3.853  17.288  0.00  0.00    +0.000 A 
ATOM     29  C   UNL     1      48.059   2.844  16.780  0.00  0.00    +0.000 A 
ATOM     30  N   UNL     1      49.405   2.828  16.886  0.00  0.00    +0.000 NA
ATOM     31  C   UNL     1      49.973   3.877  17.526  0.00  0.00    +0.000 A 
ENDBRANCH  25  26
ENDBRANCH  23  25
ENDBRANCH  22  23
ENDBRANCH   4  22
TORSDOF 7
ENDMDL
MODEL 7
REMARK VINA RESULT:    -6.432      4.213     10.305
REMARK INTER + INTRA:          -9.737
REMARK INTER:                  -8.870
REMARK INTRA:                  -0.867
REMARK UNBOUND:                -0.673
REMARK  Name = 
REMARK  7 active torsions:
REMARK  status: ('A' for Active; 'I' for Inactive)
REMARK    1  A    between atoms: C_2  and  C_20
REMARK    2  A    between atoms: N_3  and  C_4
REMARK    3  A    between atoms: C_4  and  C_5
REMARK    4  A    between atoms: C_8  and  C_9
REMARK    5  A    between atoms: C_9  and  N_10
REMARK    6  A    between atoms: N_10  and  C_11
REMARK    7  A    between atoms: C_11  and  C_12
REMARK                            x       y       z     vdW  Elec       q    Type
REMARK                         _______ _______ _______ _____ _____    ______ ____
ROOT
ATOM      1  C   UNL     1      48.730   3.258  17.284  0.00  0.00    +0.000 A 
ATOM      2  C   UNL     1      49.491   2.147  16.984  0.00  0.00    +0.000 A 
ATOM      3  N   UNL     1      50.813   2.059  17.223  0.00  0.00    +0.000 NA
ATOM      4  C   UNL     1      51.395   3.134  17.796  0.00  0.00    +0.000 A 
ATOM      5  N   UNL     1      50.742   4.266  18.129  0.00  0.00    +0.000 NA
ATOM      6  C   UNL     1      49.421   4.297  17.870  0.00  0.00    +0.000 A 
ENDROOT
BRANCH   1   7
ATOM      7  C   UNL     1      47.277   3.341  16.980  0.00  0.00    +0.000 C 
BRANCH   7  10
ATOM      8  O   UNL     1      47.364   3.002  14.303  0.00  0.00    +0.000 OA
ATOM      9  C   UNL     1      47.022   4.113  14.700  0.00  0.00    +0.000 C 
ATOM     10  N   UNL     1      46.947   4.391  16.048  0.00  0.00    +0.000 N 
ATOM     11  H   UNL     1      46.584   5.276  16.367  0.00  0.00    +0.000 HD
BRANCH   9  12
ATOM     12  C   UNL     1      46.682   5.200  13.784  0.00  0.00    +0.000 A 
ATOM     13  C   UNL     1      47.467   6.270  13.388  0.00  0.00    +0.000 A 
ATOM     14  N   UNL     1      46.761   7.014  12.477  0.00  0.00    +0.000 N 
ATOM     15  C   UNL     1      45.515   6.473  12.277  0.00  0.00    +0.000 A 
ATOM     16  C   UNL     1      44.469   6.889  11.444  0.00  0.00    +0.000 A 
ATOM     17  C   UNL     1      43.290   6.134  11.455  0.00  0.00    +0.000 A 
ATOM     18  C   UNL     1      43.165   5.011  12.266  0.00  0.00    +0.000 A 
ATOM     19  C   UNL     1      44.225   4.605  13.082  0.00  0.00    +0.000 A 
ATOM     20  C   UNL     1      45.429   5.344  13.093  0.00  0.00    +0.000 A 
ATOM     21  H   UNL     1      47.103   7.845  12.010  0.00  0.00    +0.000 HD
ENDBRANCH   9  12
ENDBRANCH   7  10
ENDBRANCH   1   7
BRANCH   4  22
ATOM     22  C   UNL     1      52.901   3.097  18.013  0.00  0.00    +0.000 C 
BRANCH  22  23
ATOM     23  N   UNL     1      53.341   2.527  19.305  0.00  0.00    +0.000 NA
ATOM     24  H   UNL     1      53.897   1.698  19.093  0.00  0.00    +0.000 HD
BRANCH  23  25
ATOM     25  C   UNL     1      54.183   3.468  20.048  0.00  0.00    +0.000 C 
BRANCH  25  26
ATOM     26  C   UNL     1      53.364   4.592  20.625  0.00  0.00    +0.000 A 
ATOM     27  C   UNL     1      52.392   4.371  21.605  0.00  0.00    +0.000 A 
ATOM     28  C   UNL     1      51.662   5.443  22.109  0.00  0.00    +0.000 A 
ATOM     29  C   UNL     1      51.923   6.708  21.610  0.00  0.00    +0.000 A 
ATOM     30  N   UNL     1      52.845   6.964  20.657  0.00  0.00    +0.000 NA
ATOM     31  C   UNL     1      53.540   5.902  20.188  0.00  0.00    +0.000 A 
ENDBRANCH  25  26
ENDBRANCH  23  25
ENDBRANCH  22  23
ENDBRANCH   4  22
TORSDOF 7
ENDMDL
MODEL 8
REMARK VINA RESULT:    -6.420      1.738      2.393
REMARK INTER + INTRA:          -9.720
REMARK INTER:                  -9.158
REMARK INTRA:                  -0.562
REMARK UNBOUND:                -0.673
REMARK  Name = 
REMARK  7 active torsions:
REMARK  status: ('A' for Active; 'I' for Inactive)
REMARK    1  A    between atoms: C_2  and  C_20
REMARK    2  A    between atoms: N_3  and  C_4
REMARK    3  A    between atoms: C_4  and  C_5
REMARK    4  A    between atoms: C_8  and  C_9
REMARK    5  A    between atoms: C_9  and  N_10
REMARK    6  A    between atoms: N_10  and  C_11
REMARK    7  A    between atoms: C_11  and  C_12
REMARK                            x       y       z     vdW  Elec       q    Type
REMARK                         _______ _______ _______ _____ _____    ______ ____
ROOT
ATOM      1  C   UNL     1      48.348   7.354  13.955  0.00  0.00    +0.000 A 
ATOM      2  C   UNL     1      47.943   6.102  13.540  0.00  0.00    +0.000 A 
ATOM      3  N   UNL     1      46.814   5.872  12.843  0.00  0.00    +0.000 NA
ATOM      4  C   UNL     1      46.060   6.953  12.545  0.00  0.00    +0.000 A 
ATOM      5  N   UNL     1      46.366   8.216  12.903  0.00  0.00    +0.000 NA
ATOM      6  C   UNL     1      47.508   8.387  13.595  0.00  0.00    +0.000 A 
ENDROOT
BRANCH   1   7
ATOM      7  C   UNL     1      49.583   7.575  14.752  0.00  0.00    +0.000 C 
BRANCH   7  10
ATOM      8  O   UNL     1      48.922   8.123  17.311  0.00  0.00    +0.000 OA
ATOM      9  C   UNL     1      49.381   7.004  17.095  0.00  0.00    +0.000 C 
ATOM     10  N   UNL     1      49.752   6.624  15.823  0.00  0.00    +0.000 N 
ATOM     11  H   UNL     1      50.046   5.678  15.639  0.00  0.00    +0.000 HD
BRANCH   9  12
ATOM     12  C   UNL     1      49.566   6.017  18.157  0.00  0.00    +0.000 A 
ATOM     13  C   UNL     1      50.463   4.962  18.206  0.00  0.00    +0.000 A 
ATOM     14  N   UNL     1      50.323   4.328  19.414  0.00  0.00    +0.000 N 
ATOM     15  C   UNL     1      49.337   4.927  20.160  0.00  0.00    +0.000 A 
ATOM     16  C   UNL     1      48.858   4.623  21.440  0.00  0.00    +0.000 A 
ATOM     17  C   UNL     1      47.820   5.412  21.950  0.00  0.00    +0.000 A 
ATOM     18  C   UNL     1      47.285   6.460  21.209  0.00  0.00    +0.000 A 
ATOM     19  C   UNL     1      47.785   6.755  19.936  0.00  0.00    +0.000 A 
ATOM     20  C   UNL     1      48.833   5.978  19.394  0.00  0.00    +0.000 A 
ATOM     21  H   UNL     1      50.867   3.533  19.724  0.00  0.00    +0.000 HD
ENDBRANCH   9  12
ENDBRANCH   7  10
ENDBRANCH   1   7
BRANCH   4  22
ATOM     22  C   UNL     1      44.741   6.722  11.823  0.00  0.00    +0.000 C 
BRANCH  22  23
ATOM     23  N   UNL     1      44.852   6.117  10.478  0.00  0.00    +0.000 NA
ATOM     24  H   UNL     1      45.848   6.019  10.275  0.00  0.00    +0.000 HD
BRANCH  23  25
ATOM     25  C   UNL     1      44.242   4.786  10.436  0.00  0.00    +0.000 C 
BRANCH  25  26
ATOM     26  C   UNL     1      44.964   3.888   9.466  0.00  0.00    +0.000 A 
ATOM     27  C   UNL     1      45.578   4.386   8.314  0.00  0.00    +0.000 A 
ATOM     28  C   UNL     1      46.235   3.516   7.449  0.00  0.00    +0.000 A 
ATOM     29  C   UNL     1      46.252   2.167   7.762  0.00  0.00    +0.000 A 
ATOM     30  N   UNL     1      45.664   1.644   8.858  0.00  0.00    +0.000 NA
ATOM     31  C   UNL     1      45.035   2.514   9.681  0.00  0.00    +0.000 A 
ENDBRANCH  25  26
ENDBRANCH  23  25
ENDBRANCH  22  23
ENDBRANCH   4  22
TORSDOF 7
ENDMDL
MODEL 9
REMARK VINA RESULT:    -6.409      3.850      8.622
REMARK INTER + INTRA:          -9.704
REMARK INTER:                  -8.409
REMARK INTRA:                  -1.295
REMARK UNBOUND:                -0.673
REMARK  Name = 
REMARK  7 active torsions:
REMARK  status: ('A' for Active; 'I' for Inactive)
REMARK    1  A    between atoms: C_2  and  C_20
REMARK    2  A    between atoms: N_3  and  C_4
REMARK    3  A    between atoms: C_4  and  C_5
REMARK    4  A    between atoms: C_8  and  C_9
REMARK    5  A    between atoms: C_9  and  N_10
REMARK    6  A    between atoms: N_10  and  C_11
REMARK    7  A    between atoms: C_11  and  C_12
REMARK                            x       y       z     vdW  Elec       q    Type
REMARK                         _______ _______ _______ _____ _____    ______ ____
ROOT
ATOM      1  C   UNL     1      48.769   8.433  15.848  0.00  0.00    +0.000 A 
ATOM      2  C   UNL     1      48.370   8.623  17.154  0.00  0.00    +0.000 A 
ATOM      3  N   UNL     1      48.810   7.880  18.188  0.00  0.00    +0.000 NA
ATOM      4  C   UNL     1      49.698   6.905  17.893  0.00  0.00    +0.000 A 
ATOM      5  N   UNL     1      50.152   6.639  16.652  0.00  0.00    +0.000 NA
ATOM      6  C   UNL     1      49.679   7.415  15.658  0.00  0.00    +0.000 A 
ENDROOT
BRANCH   1   7
ATOM      7  C   UNL     1      48.242   9.248  14.721  0.00  0.00    +0.000 C 
BRANCH   7  10
ATOM      8  O   UNL     1      48.120   8.094  12.284  0.00  0.00    +0.000 OA
ATOM      9  C   UNL     1      47.065   8.157  12.910  0.00  0.00    +0.000 C 
ATOM     10  N   UNL     1      47.018   8.729  14.163  0.00  0.00    +0.000 N 
ATOM     11  H   UNL     1      46.168   8.701  14.705  0.00  0.00    +0.000 HD
BRANCH   9  12
ATOM     12  C   UNL     1      45.806   7.642  12.374  0.00  0.00    +0.000 A 
ATOM     13  C   UNL     1      44.761   8.349  11.801  0.00  0.00    +0.000 A 
ATOM     14  N   UNL     1      43.805   7.455  11.391  0.00  0.00    +0.000 N 
ATOM     15  C   UNL     1      44.184   6.171  11.699  0.00  0.00    +0.000 A 
ATOM     16  C   UNL     1      43.531   4.954  11.470  0.00  0.00    +0.000 A 
ATOM     17  C   UNL     1      44.162   3.785  11.911  0.00  0.00    +0.000 A 
ATOM     18  C   UNL     1      45.393   3.834  12.555  0.00  0.00    +0.000 A 
ATOM     19  C   UNL     1      46.035   5.058  12.765  0.00  0.00    +0.000 A 
ATOM     20  C   UNL     1      45.425   6.256  12.330  0.00  0.00    +0.000 A 
ATOM     21  H   UNL     1      42.941   7.696  10.922  0.00  0.00    +0.000 HD
ENDBRANCH   9  12
ENDBRANCH   7  10
ENDBRANCH   1   7
BRANCH   4  22
ATOM     22  C   UNL     1      50.160   5.999  19.024  0.00  0.00    +0.000 C 
BRANCH  22  23
ATOM     23  N   UNL     1      49.082   5.439  19.869  0.00  0.00    +0.000 NA
ATOM     24  H   UNL     1      48.217   5.911  19.602  0.00  0.00    +0.000 HD
BRANCH  23  25
ATOM     25  C   UNL     1      48.912   4.002  19.639  0.00  0.00    +0.000 C 
BRANCH  25  26
ATOM     26  C   UNL     1      48.462   3.727  18.228  0.00  0.00    +0.000 A 
ATOM     27  C   UNL     1      47.355   4.371  17.667  0.00  0.00    +0.000 A 
ATOM     28  C   UNL     1      46.979   4.084  16.358  0.00  0.00    +0.000 A 
ATOM     29  C   UNL     1      47.721   3.155  15.650  0.00  0.00    +0.000 A 
ATOM     30  N   UNL     1      48.790   2.504  16.157  0.00  0.00    +0.000 NA
ATOM     31  C   UNL     1      49.133   2.804  17.431  0.00  0.00    +0.000 A 
ENDBRANCH  25  26
ENDBRANCH  23  25
ENDBRANCH  22  23
ENDBRANCH   4  22
TORSDOF 7
ENDMDL
