MODEL 1
REMARK VINA RESULT:    -7.878      0.000      0.000
REMARK INTER + INTRA:         -11.147
REMARK INTER:                 -10.181
REMARK INTRA:                  -0.966
REMARK UNBOUND:                -0.966
REMARK  Name = 
REMARK  5 active torsions:
REMARK  status: ('A' for Active; 'I' for Inactive)
REMARK    1  A    between atoms: C_2  and  C_18
REMARK    2  A    between atoms: N_3  and  C_4
REMARK    3  A    between atoms: C_4  and  C_5
REMARK    4  A    between atoms: C_8  and  C_9
REMARK    5  A    between atoms: C_9  and  C_10
REMARK                            x       y       z     vdW  Elec       q    Type
REMARK                         _______ _______ _______ _____ _____    ______ ____
ROOT
ATOM      1  O   UNL     1      49.307   6.904  13.473  0.00  0.00    +0.000 OA
ATOM      2  C   UNL     1      48.509   6.888  14.413  0.00  0.00    +0.000 C 
ATOM      3  N   UNL     1      47.248   7.398  14.336  0.00  0.00    +0.000 N 
ATOM      4  H   UNL     1      46.637   7.361  15.141  0.00  0.00    +0.000 HD
ENDROOT
BRANCH   2   5
ATOM      5  C   UNL     1      48.872   6.338  15.727  0.00  0.00    +0.000 A 
ATOM      6  C   UNL     1      49.850   6.942  16.502  0.00  0.00    +0.000 A 
ATOM      7  S   UNL     1      50.083   6.176  18.010  0.00  0.00    +0.000 S 
ATOM      8  C   UNL     1      48.915   4.989  17.657  0.00  0.00    +0.000 A 
ATOM      9  N   UNL     1      48.622   4.001  18.547  0.00  0.00    +0.000 NA
ATOM     10  C   UNL     1      47.739   3.157  18.141  0.00  0.00    +0.000 A 
ATOM     11  N   UNL     1      47.115   3.204  16.922  0.00  0.00    +0.000 N 
ATOM     12  C   UNL     1      47.348   4.204  16.006  0.00  0.00    +0.000 A 
ATOM     13  O   UNL     1      46.698   4.259  14.964  0.00  0.00    +0.000 OA
ATOM     14  C   UNL     1      48.343   5.176  16.415  0.00  0.00    +0.000 A 
ATOM     15  H   UNL     1      46.416   2.521  16.670  0.00  0.00    +0.000 HD
ENDBRANCH   2   5
BRANCH   3  16
ATOM     16  C   UNL     1      46.650   7.933  13.143  0.00  0.00    +0.000 C 
BRANCH  16  17
ATOM     17  C   UNL     1      45.952   6.836  12.390  0.00  0.00    +0.000 A 
ATOM     18  C   UNL     1      46.404   6.508  11.111  0.00  0.00    +0.000 A 
ATOM     19  C   UNL     1      45.768   5.515  10.376  0.00  0.00    +0.000 A 
ATOM     20  C   UNL     1      44.698   4.781  10.914  0.00  0.00    +0.000 A 
ATOM     21  C   UNL     1      44.208   5.144  12.174  0.00  0.00    +0.000 A 
ATOM     22  C   UNL     1      44.826   6.172  12.902  0.00  0.00    +0.000 A 
BRANCH  20  23
ATOM     23  C   UNL     1      44.195   3.542  10.180  0.00  0.00    +0.000 C 
BRANCH  23  24
ATOM     24  C   UNL     1      45.190   3.205   9.055  0.00  0.00    +0.000 C 
ATOM     25  C   UNL     1      45.300   1.701   8.785  0.00  0.00    +0.000 C 
ATOM     26  C   UNL     1      46.600   1.483   8.023  0.00  0.00    +0.000 C 
ATOM     27  C   UNL     1      46.680   2.368   6.773  0.00  0.00    +0.000 C 
ATOM     28  N   UNL     1      46.260   3.761   6.962  0.00  0.00    +0.000 NA
ATOM     29  C   UNL     1      44.998   3.905   7.707  0.00  0.00    +0.000 C 
ATOM     30  H   UNL     1      46.199   4.233   6.062  0.00  0.00    +0.000 HD
ENDBRANCH  23  24
ENDBRANCH  20  23
ENDBRANCH  16  17
ENDBRANCH   3  16
TORSDOF 5
ENDMDL
MODEL 2
REMARK VINA RESULT:    -7.527      2.947      5.316
REMARK INTER + INTRA:         -10.693
REMARK INTER:                  -9.969
REMARK INTRA:                  -0.724
REMARK UNBOUND:                -0.966
REMARK  Name = 
REMARK  5 active torsions:
REMARK  status: ('A' for Active; 'I' for Inactive)
REMARK    1  A    between atoms: C_2  and  C_18
REMARK    2  A    between atoms: N_3  and  C_4
REMARK    3  A    between atoms: C_4  and  C_5
REMARK    4  A    between atoms: C_8  and  C_9
REMARK    5  A    between atoms: C_9  and  C_10
REMARK                            x       y       z     vdW  Elec       q    Type
REMARK                         _______ _______ _______ _____ _____    ______ ____
ROOT
ATOM      1  O   UNL     1      42.805   6.114  11.312  0.00  0.00    +0.000 OA
ATOM      2  C   UNL     1      44.034   6.070  11.229  0.00  0.00    +0.000 C 
ATOM      3  N   UNL     1      44.710   5.042  10.644  0.00  0.00    +0.000 N 
ATOM      4  H   UNL     1      45.721   5.056  10.608  0.00  0.00    +0.000 HD
ENDROOT
BRANCH   2   5
ATOM      5  C   UNL     1      44.887   7.126  11.795  0.00  0.00    +0.000 A 
ATOM      6  C   UNL     1      44.701   8.452  11.438  0.00  0.00    +0.000 A 
ATOM      7  S   UNL     1      45.761   9.521  12.244  0.00  0.00    +0.000 S 
ATOM      8  C   UNL     1      46.528   8.241  13.062  0.00  0.00    +0.000 A 
ATOM      9  N   UNL     1      47.553   8.471  13.928  0.00  0.00    +0.000 NA
ATOM     10  C   UNL     1      48.058   7.412  14.458  0.00  0.00    +0.000 A 
ATOM     11  N   UNL     1      47.634   6.133  14.204  0.00  0.00    +0.000 N 
ATOM     12  C   UNL     1      46.577   5.853  13.368  0.00  0.00    +0.000 A 
ATOM     13  O   UNL     1      46.172   4.700  13.242  0.00  0.00    +0.000 OA
ATOM     14  C   UNL     1      45.981   7.016  12.740  0.00  0.00    +0.000 A 
ATOM     15  H   UNL     1      48.060   5.344  14.666  0.00  0.00    +0.000 HD
ENDBRANCH   2   5
BRANCH   3  16
ATOM     16  C   UNL     1      44.094   3.930   9.972  0.00  0.00    +0.000 C 
BRANCH  16  17
ATOM     17  C   UNL     1      45.068   3.320   9.003  0.00  0.00    +0.000 A 
ATOM     18  C   UNL     1      45.700   4.150   8.077  0.00  0.00    +0.000 A 
ATOM     19  C   UNL     1      46.588   3.618   7.151  0.00  0.00    +0.000 A 
ATOM     20  C   UNL     1      46.914   2.250   7.155  0.00  0.00    +0.000 A 
ATOM     21  C   UNL     1      46.240   1.408   8.046  0.00  0.00    +0.000 A 
ATOM     22  C   UNL     1      45.315   1.939   8.957  0.00  0.00    +0.000 A 
BRANCH  20  23
ATOM     23  C   UNL     1      48.072   1.754   6.295  0.00  0.00    +0.000 C 
BRANCH  23  24
ATOM     24  C   UNL     1      47.492   1.098   5.029  0.00  0.00    +0.000 C 
ATOM     25  C   UNL     1      47.051  -0.352   5.257  0.00  0.00    +0.000 C 
ATOM     26  C   UNL     1      46.948  -1.003   3.884  0.00  0.00    +0.000 C 
ATOM     27  C   UNL     1      46.046  -0.198   2.940  0.00  0.00    +0.000 C 
ATOM     28  N   UNL     1      46.256   1.255   2.961  0.00  0.00    +0.000 NA
ATOM     29  C   UNL     1      46.349   1.823   4.315  0.00  0.00    +0.000 C 
ATOM     30  H   UNL     1      45.523   1.720   2.427  0.00  0.00    +0.000 HD
ENDBRANCH  23  24
ENDBRANCH  20  23
ENDBRANCH  16  17
ENDBRANCH   3  16
TORSDOF 5
ENDMDL
MODEL 3
REMARK VINA RESULT:    -7.409      3.989      8.781
REMARK INTER + INTRA:         -10.541
REMARK INTER:                  -9.576
REMARK INTRA:                  -0.965
REMARK UNBOUND:                -0.966
REMARK  Name = 
REMARK  5 active torsions:
REMARK  status: ('A' for Active; 'I' for Inactive)
REMARK    1  A    between atoms: C_2  and  C_18
REMARK    2  A    between atoms: N_3  and  C_4
REMARK    3  A    between atoms: C_4  and  C_5
REMARK    4  A    between atoms: C_8  and  C_9
REMARK    5  A    between atoms: C_9  and  C_10
REMARK                            x       y       z     vdW  Elec       q    Type
REMARK                         _______ _______ _______ _____ _____    ______ ____
ROOT
ATOM      1  O   UNL     1      47.341   3.112  14.135  0.00  0.00    +0.000 OA
ATOM      2  C   UNL     1      46.958   4.195  14.581  0.00  0.00    +0.000 C 
ATOM      3  N   UNL     1      46.841   4.461  15.912  0.00  0.00    +0.000 N 
ATOM      4  H   UNL     1      46.517   5.368  16.221  0.00  0.00    +0.000 HD
ENDROOT
BRANCH   2   5
ATOM      5  C   UNL     1      46.557   5.298  13.695  0.00  0.00    +0.000 A 
ATOM      6  C   UNL     1      47.410   6.365  13.462  0.00  0.00    +0.000 A 
ATOM      7  S   UNL     1      46.774   7.510  12.367  0.00  0.00    +0.000 S 
ATOM      8  C   UNL     1      45.322   6.637  12.202  0.00  0.00    +0.000 A 
ATOM      9  N   UNL     1      44.320   7.080  11.394  0.00  0.00    +0.000 NA
ATOM     10  C   UNL     1      43.270   6.336  11.383  0.00  0.00    +0.000 A 
ATOM     11  N   UNL     1      43.121   5.182  12.107  0.00  0.00    +0.000 N 
ATOM     12  C   UNL     1      44.119   4.673  12.906  0.00  0.00    +0.000 A 
ATOM     13  O   UNL     1      43.977   3.588  13.465  0.00  0.00    +0.000 OA
ATOM     14  C   UNL     1      45.321   5.482  12.958  0.00  0.00    +0.000 A 
ATOM     15  H   UNL     1      42.277   4.632  12.040  0.00  0.00    +0.000 HD
ENDBRANCH   2   5
BRANCH   3  16
ATOM     16  C   UNL     1      47.229   3.563  16.966  0.00  0.00    +0.000 C 
BRANCH  16  17
ATOM     17  C   UNL     1      48.714   3.645  17.181  0.00  0.00    +0.000 A 
ATOM     18  C   UNL     1      49.302   4.903  17.324  0.00  0.00    +0.000 A 
ATOM     19  C   UNL     1      50.675   5.018  17.501  0.00  0.00    +0.000 A 
ATOM     20  C   UNL     1      51.497   3.882  17.594  0.00  0.00    +0.000 A 
ATOM     21  C   UNL     1      50.918   2.623  17.395  0.00  0.00    +0.000 A 
ATOM     22  C   UNL     1      49.537   2.508  17.180  0.00  0.00    +0.000 A 
BRANCH  20  23
ATOM     23  C   UNL     1      52.949   4.042  18.035  0.00  0.00    +0.000 C 
BRANCH  23  24
ATOM     24  C   UNL     1      53.607   2.650  18.058  0.00  0.00    +0.000 C 
ATOM     25  C   UNL     1      54.748   2.513  17.045  0.00  0.00    +0.000 C 
ATOM     26  C   UNL     1      54.983   1.022  16.843  0.00  0.00    +0.000 C 
ATOM     27  C   UNL     1      55.217   0.300  18.176  0.00  0.00    +0.000 C 
ATOM     28  N   UNL     1      54.305   0.677  19.263  0.00  0.00    +0.000 NA
ATOM     29  C   UNL     1      54.118   2.130  19.404  0.00  0.00    +0.000 C 
ATOM     30  H   UNL     1      54.621   0.271  20.141  0.00  0.00    +0.000 HD
ENDBRANCH  23  24
ENDBRANCH  20  23
ENDBRANCH  16  17
ENDBRANCH   3  16
TORSDOF 5
ENDMDL
MODEL 4
REMARK VINA RESULT:    -7.400      3.923      8.891
REMARK INTER + INTRA:         -10.529
REMARK INTER:                  -9.557
REMARK INTRA:                  -0.972
REMARK UNBOUND:                -0.966
REMARK  Name = 
REMARK  5 active torsions:
REMARK  status: ('A' for Active; 'I' for Inactive)
REMARK    1  A    between atoms: C_2  and  C_18
REMARK    2  A    between atoms: N_3  and  C_4
REMARK    3  A    between atoms: C_4  and  C_5
REMARK    4  A    between atoms: C_8  and  C_9
REMARK    5  A    between atoms: C_9  and  C_10
REMARK                            x       y       z     vdW  Elec       q    Type
REMARK                         _______ _______ _______ _____ _____    ______ ____
ROOT
ATOM      1  O   UNL     1      47.274   3.125  13.942  0.00  0.00    +0.000 OA
ATOM      2  C   UNL     1      46.840   4.177  14.416  0.00  0.00    +0.000 C 
ATOM      3  N   UNL     1      46.747   4.416  15.754  0.00  0.00    +0.000 N 
ATOM      4  H   UNL     1      46.379   5.297  16.087  0.00  0.00    +0.000 HD
ENDROOT
BRANCH   2   5
ATOM      5  C   UNL     1      46.348   5.267  13.560  0.00  0.00    +0.000 A 
ATOM      6  C   UNL     1      47.137   6.377  13.303  0.00  0.00    +0.000 A 
ATOM      7  S   UNL     1      46.399   7.499  12.249  0.00  0.00    +0.000 S 
ATOM      8  C   UNL     1      44.986   6.556  12.137  0.00  0.00    +0.000 A 
ATOM      9  N   UNL     1      43.929   6.957  11.376  0.00  0.00    +0.000 NA
ATOM     10  C   UNL     1      42.917   6.162  11.401  0.00  0.00    +0.000 A 
ATOM     11  N   UNL     1      42.857   4.995  12.118  0.00  0.00    +0.000 N 
ATOM     12  C   UNL     1      43.912   4.529  12.869  0.00  0.00    +0.000 A 
ATOM     13  O   UNL     1      43.847   3.433  13.421  0.00  0.00    +0.000 OA
ATOM     14  C   UNL     1      45.074   5.397  12.879  0.00  0.00    +0.000 A 
ATOM     15  H   UNL     1      42.039   4.405  12.082  0.00  0.00    +0.000 HD
ENDBRANCH   2   5
BRANCH   3  16
ATOM     16  C   UNL     1      47.219   3.528  16.782  0.00  0.00    +0.000 C 
BRANCH  16  17
ATOM     17  C   UNL     1      48.671   3.799  17.059  0.00  0.00    +0.000 A 
ATOM     18  C   UNL     1      49.508   2.724  17.362  0.00  0.00    +0.000 A 
ATOM     19  C   UNL     1      50.850   2.940  17.646  0.00  0.00    +0.000 A 
ATOM     20  C   UNL     1      51.412   4.227  17.585  0.00  0.00    +0.000 A 
ATOM     21  C   UNL     1      50.564   5.312  17.335  0.00  0.00    +0.000 A 
ATOM     22  C   UNL     1      49.200   5.099  17.085  0.00  0.00    +0.000 A 
BRANCH  20  23
ATOM     23  C   UNL     1      52.927   4.387  17.656  0.00  0.00    +0.000 C 
BRANCH  23  24
ATOM     24  C   UNL     1      53.530   3.081  18.203  0.00  0.00    +0.000 C 
ATOM     25  C   UNL     1      54.493   2.410  17.219  0.00  0.00    +0.000 C 
ATOM     26  C   UNL     1      54.640   0.961  17.663  0.00  0.00    +0.000 C 
ATOM     27  C   UNL     1      55.052   0.858  19.137  0.00  0.00    +0.000 C 
ATOM     28  N   UNL     1      54.335   1.753  20.053  0.00  0.00    +0.000 NA
ATOM     29  C   UNL     1      54.225   3.138  19.566  0.00  0.00    +0.000 C 
ATOM     30  H   UNL     1      54.770   1.732  20.974  0.00  0.00    +0.000 HD
ENDBRANCH  23  24
ENDBRANCH  20  23
ENDBRANCH  16  17
ENDBRANCH   3  16
TORSDOF 5
ENDMDL
MODEL 5
REMARK VINA RESULT:    -7.145      2.294      2.774
REMARK INTER + INTRA:         -10.200
REMARK INTER:                  -9.321
REMARK INTRA:                  -0.878
REMARK UNBOUND:                -0.966
REMARK  Name = 
REMARK  5 active torsions:
REMARK  status: ('A' for Active; 'I' for Inactive)
REMARK    1  A    between atoms: C_2  and  C_18
REMARK    2  A    between atoms: N_3  and  C_4
REMARK    3  A    between atoms: C_4  and  C_5
REMARK    4  A    between atoms: C_8  and  C_9
REMARK    5  A    between atoms: C_9  and  C_10
REMARK                            x       y       z     vdW  Elec       q    Type
REMARK                         _______ _______ _______ _____ _____    ______ ____
ROOT
ATOM      1  O   UNL     1      50.327   6.328  15.890  0.00  0.00    +0.000 OA
ATOM      2  C   UNL     1      49.165   6.174  16.271  0.00  0.00    +0.000 C 
ATOM      3  N   UNL     1      48.080   6.377  15.472  0.00  0.00    +0.000 N 
ATOM      4  H   UNL     1      47.148   6.239  15.840  0.00  0.00    +0.000 HD
ENDROOT
BRANCH   2   5
ATOM      5  C   UNL     1      48.849   5.783  17.652  0.00  0.00    +0.000 A 
ATOM      6  C   UNL     1      49.049   4.481  18.083  0.00  0.00    +0.000 A 
ATOM      7  S   UNL     1      48.667   4.250  19.731  0.00  0.00    +0.000 S 
ATOM      8  C   UNL     1      48.183   5.872  19.909  0.00  0.00    +0.000 A 
ATOM      9  N   UNL     1      47.729   6.345  21.102  0.00  0.00    +0.000 NA
ATOM     10  C   UNL     1      47.373   7.582  21.089  0.00  0.00    +0.000 A 
ATOM     11  N   UNL     1      47.427   8.400  19.990  0.00  0.00    +0.000 N 
ATOM     12  C   UNL     1      47.914   7.979  18.774  0.00  0.00    +0.000 A 
ATOM     13  O   UNL     1      48.030   8.771  17.842  0.00  0.00    +0.000 OA
ATOM     14  C   UNL     1      48.320   6.587  18.737  0.00  0.00    +0.000 A 
ATOM     15  H   UNL     1      47.149   9.368  20.050  0.00  0.00    +0.000 HD
ENDBRANCH   2   5
BRANCH   3  16
ATOM     16  C   UNL     1      48.139   6.705  14.073  0.00  0.00    +0.000 C 
BRANCH  16  17
ATOM     17  C   UNL     1      47.138   5.879  13.316  0.00  0.00    +0.000 A 
ATOM     18  C   UNL     1      46.436   6.472  12.266  0.00  0.00    +0.000 A 
ATOM     19  C   UNL     1      45.486   5.745  11.560  0.00  0.00    +0.000 A 
ATOM     20  C   UNL     1      45.244   4.390  11.844  0.00  0.00    +0.000 A 
ATOM     21  C   UNL     1      45.906   3.809  12.931  0.00  0.00    +0.000 A 
ATOM     22  C   UNL     1      46.839   4.553  13.669  0.00  0.00    +0.000 A 
BRANCH  20  23
ATOM     23  C   UNL     1      44.383   3.568  10.890  0.00  0.00    +0.000 C 
BRANCH  23  24
ATOM     24  C   UNL     1      45.189   3.312   9.604  0.00  0.00    +0.000 C 
ATOM     25  C   UNL     1      45.044   1.877   9.085  0.00  0.00    +0.000 C 
ATOM     26  C   UNL     1      46.207   1.633   8.133  0.00  0.00    +0.000 C 
ATOM     27  C   UNL     1      46.281   2.707   7.040  0.00  0.00    +0.000 C 
ATOM     28  N   UNL     1      46.095   4.087   7.504  0.00  0.00    +0.000 NA
ATOM     29  C   UNL     1      44.957   4.257   8.423  0.00  0.00    +0.000 C 
ATOM     30  H   UNL     1      46.007   4.715   6.706  0.00  0.00    +0.000 HD
ENDBRANCH  23  24
ENDBRANCH  20  23
ENDBRANCH  16  17
ENDBRANCH   3  16
TORSDOF 5
ENDMDL
MODEL 6
REMARK VINA RESULT:    -7.127      3.150      7.629
REMARK INTER + INTRA:         -10.176
REMARK INTER:                  -9.314
REMARK INTRA:                  -0.862
REMARK UNBOUND:                -0.966
REMARK  Name = 
REMARK  5 active torsions:
REMARK  status: ('A' for Active; 'I' for Inactive)
REMARK    1  A    between atoms: C_2  and  C_18
REMARK    2  A    between atoms: N_3  and  C_4
REMARK    3  A    between atoms: C_4  and  C_5
REMARK    4  A    between atoms: C_8  and  C_9
REMARK    5  A    between atoms: C_9  and  C_10
REMARK                            x       y       z     vdW  Elec       q    Type
REMARK                         _______ _______ _______ _____ _____    ______ ____
ROOT
ATOM      1  O   UNL     1      45.809   7.838  11.873  0.00  0.00    +0.000 OA
ATOM      2  C   UNL     1      46.423   6.823  11.539  0.00  0.00    +0.000 C 
ATOM      3  N   UNL     1      47.760   6.655  11.740  0.00  0.00    +0.000 N 
ATOM      4  H   UNL     1      48.214   5.802  11.441  0.00  0.00    +0.000 HD
ENDROOT
BRANCH   2   5
ATOM      5  C   UNL     1      45.757   5.705  10.855  0.00  0.00    +0.000 A 
ATOM      6  C   UNL     1      45.884   5.538   9.485  0.00  0.00    +0.000 A 
ATOM      7  S   UNL     1      45.075   4.154   8.898  0.00  0.00    +0.000 S 
ATOM      8  C   UNL     1      44.497   3.759  10.449  0.00  0.00    +0.000 A 
ATOM      9  N   UNL     1      43.715   2.662  10.652  0.00  0.00    +0.000 NA
ATOM     10  C   UNL     1      43.328   2.497  11.869  0.00  0.00    +0.000 A 
ATOM     11  N   UNL     1      43.647   3.327  12.911  0.00  0.00    +0.000 N 
ATOM     12  C   UNL     1      44.465   4.425  12.763  0.00  0.00    +0.000 A 
ATOM     13  O   UNL     1      44.799   5.088  13.742  0.00  0.00    +0.000 OA
ATOM     14  C   UNL     1      44.920   4.657  11.407  0.00  0.00    +0.000 A 
ATOM     15  H   UNL     1      43.325   3.132  13.848  0.00  0.00    +0.000 HD
ENDBRANCH   2   5
BRANCH   3  16
ATOM     16  C   UNL     1      48.610   7.581  12.439  0.00  0.00    +0.000 C 
BRANCH  16  17
ATOM     17  C   UNL     1      48.850   7.091  13.839  0.00  0.00    +0.000 A 
ATOM     18  C   UNL     1      47.952   6.178  14.393  0.00  0.00    +0.000 A 
ATOM     19  C   UNL     1      48.129   5.722  15.693  0.00  0.00    +0.000 A 
ATOM     20  C   UNL     1      49.237   6.119  16.461  0.00  0.00    +0.000 A 
ATOM     21  C   UNL     1      50.109   7.076  15.928  0.00  0.00    +0.000 A 
ATOM     22  C   UNL     1      49.909   7.566  14.629  0.00  0.00    +0.000 A 
BRANCH  20  23
ATOM     23  C   UNL     1      49.529   5.407  17.779  0.00  0.00    +0.000 C 
BRANCH  23  24
ATOM     24  C   UNL     1      50.254   4.085  17.468  0.00  0.00    +0.000 C 
ATOM     25  C   UNL     1      51.407   3.795  18.435  0.00  0.00    +0.000 C 
ATOM     26  C   UNL     1      52.297   2.759  17.763  0.00  0.00    +0.000 C 
ATOM     27  C   UNL     1      51.498   1.524  17.325  0.00  0.00    +0.000 C 
ATOM     28  N   UNL     1      50.215   1.806  16.672  0.00  0.00    +0.000 NA
ATOM     29  C   UNL     1      49.403   2.817  17.368  0.00  0.00    +0.000 C 
ATOM     30  H   UNL     1      49.686   0.943  16.553  0.00  0.00    +0.000 HD
ENDBRANCH  23  24
ENDBRANCH  20  23
ENDBRANCH  16  17
ENDBRANCH   3  16
TORSDOF 5
ENDMDL
MODEL 7
REMARK VINA RESULT:    -7.118      1.214      1.763
REMARK INTER + INTRA:         -10.166
REMARK INTER:                  -9.797
REMARK INTRA:                  -0.369
REMARK UNBOUND:                -0.966
REMARK  Name = 
REMARK  5 active torsions:
REMARK  status: ('A' for Active; 'I' for Inactive)
REMARK    1  A    between atoms: C_2  and  C_18
REMARK    2  A    between atoms: N_3  and  C_4
REMARK    3  A    between atoms: C_4  and  C_5
REMARK    4  A    between atoms: C_8  and  C_9
REMARK    5  A    between atoms: C_9  and  C_10
REMARK                            x       y       z     vdW  Elec       q    Type
REMARK                         _______ _______ _______ _____ _____    ______ ____
ROOT
ATOM      1  O   UNL     1      49.669   6.913  14.213  0.00  0.00    +0.000 OA
ATOM      2  C   UNL     1      48.802   7.135  15.060  0.00  0.00    +0.000 C 
ATOM      3  N   UNL     1      47.738   7.960  14.848  0.00  0.00    +0.000 N 
ATOM      4  H   UNL     1      47.058   8.109  15.582  0.00  0.00    +0.000 HD
ENDROOT
BRANCH   2   5
ATOM      5  C   UNL     1      48.864   6.543  16.405  0.00  0.00    +0.000 A 
ATOM      6  C   UNL     1      49.400   7.254  17.467  0.00  0.00    +0.000 A 
ATOM      7  S   UNL     1      49.332   6.406  18.947  0.00  0.00    +0.000 S 
ATOM      8  C   UNL     1      48.622   5.048  18.207  0.00  0.00    +0.000 A 
ATOM      9  N   UNL     1      48.303   3.938  18.928  0.00  0.00    +0.000 NA
ATOM     10  C   UNL     1      47.796   2.976  18.239  0.00  0.00    +0.000 A 
ATOM     11  N   UNL     1      47.576   3.015  16.887  0.00  0.00    +0.000 N 
ATOM     12  C   UNL     1      47.845   4.128  16.122  0.00  0.00    +0.000 A 
ATOM     13  O   UNL     1      47.545   4.151  14.930  0.00  0.00    +0.000 OA
ATOM     14  C   UNL     1      48.426   5.236  16.854  0.00  0.00    +0.000 A 
ATOM     15  H   UNL     1      47.157   2.233  16.406  0.00  0.00    +0.000 HD
ENDBRANCH   2   5
BRANCH   3  16
ATOM     16  C   UNL     1      47.434   8.603  13.599  0.00  0.00    +0.000 C 
BRANCH  16  17
ATOM     17  C   UNL     1      46.415   7.794  12.847  0.00  0.00    +0.000 A 
ATOM     18  C   UNL     1      46.439   6.404  12.971  0.00  0.00    +0.000 A 
ATOM     19  C   UNL     1      45.527   5.622  12.273  0.00  0.00    +0.000 A 
ATOM     20  C   UNL     1      44.530   6.205  11.472  0.00  0.00    +0.000 A 
ATOM     21  C   UNL     1      44.538   7.594  11.302  0.00  0.00    +0.000 A 
ATOM     22  C   UNL     1      45.482   8.382  11.978  0.00  0.00    +0.000 A 
BRANCH  20  23
ATOM     23  C   UNL     1      43.403   5.332  10.927  0.00  0.00    +0.000 C 
BRANCH  23  24
ATOM     24  C   UNL     1      44.017   4.259  10.010  0.00  0.00    +0.000 C 
ATOM     25  C   UNL     1      45.254   4.755   9.256  0.00  0.00    +0.000 C 
ATOM     26  C   UNL     1      45.469   3.805   8.086  0.00  0.00    +0.000 C 
ATOM     27  C   UNL     1      45.541   2.344   8.548  0.00  0.00    +0.000 C 
ATOM     28  N   UNL     1      44.529   1.948   9.535  0.00  0.00    +0.000 NA
ATOM     29  C   UNL     1      44.368   2.908  10.638  0.00  0.00    +0.000 C 
ATOM     30  H   UNL     1      44.740   1.019   9.897  0.00  0.00    +0.000 HD
ENDBRANCH  23  24
ENDBRANCH  20  23
ENDBRANCH  16  17
ENDBRANCH   3  16
TORSDOF 5
ENDMDL
MODEL 8
REMARK VINA RESULT:    -7.004      3.854      9.549
REMARK INTER + INTRA:         -10.018
REMARK INTER:                  -9.147
REMARK INTRA:                  -0.871
REMARK UNBOUND:                -0.966
REMARK  Name = 
REMARK  5 active torsions:
REMARK  status: ('A' for Active; 'I' for Inactive)
REMARK    1  A    between atoms: C_2  and  C_18
REMARK    2  A    between atoms: N_3  and  C_4
REMARK    3  A    between atoms: C_4  and  C_5
REMARK    4  A    between atoms: C_8  and  C_9
REMARK    5  A    between atoms: C_9  and  C_10
REMARK                            x       y       z     vdW  Elec       q    Type
REMARK                         _______ _______ _______ _____ _____    ______ ____
ROOT
ATOM      1  O   UNL     1      47.350   3.151  13.788  0.00  0.00    +0.000 OA
ATOM      2  C   UNL     1      46.826   4.129  14.326  0.00  0.00    +0.000 C 
ATOM      3  N   UNL     1      46.752   4.292  15.677  0.00  0.00    +0.000 N 
ATOM      4  H   UNL     1      46.306   5.113  16.064  0.00  0.00    +0.000 HD
ENDROOT
BRANCH   2   5
ATOM      5  C   UNL     1      46.199   5.201  13.541  0.00  0.00    +0.000 A 
ATOM      6  C   UNL     1      46.826   6.428  13.391  0.00  0.00    +0.000 A 
ATOM      7  S   UNL     1      45.954   7.514  12.403  0.00  0.00    +0.000 S 
ATOM      8  C   UNL     1      44.693   6.393  12.178  0.00  0.00    +0.000 A 
ATOM      9  N   UNL     1      43.605   6.699  11.419  0.00  0.00    +0.000 NA
ATOM     10  C   UNL     1      42.717   5.769  11.355  0.00  0.00    +0.000 A 
ATOM     11  N   UNL     1      42.810   4.553  11.980  0.00  0.00    +0.000 N 
ATOM     12  C   UNL     1      43.908   4.183  12.725  0.00  0.00    +0.000 A 
ATOM     13  O   UNL     1      43.990   3.049  13.190  0.00  0.00    +0.000 OA
ATOM     14  C   UNL     1      44.933   5.203  12.833  0.00  0.00    +0.000 A 
ATOM     15  H   UNL     1      42.086   3.858  11.875  0.00  0.00    +0.000 HD
ENDBRANCH   2   5
BRANCH   3  16
ATOM     16  C   UNL     1      47.344   3.409  16.646  0.00  0.00    +0.000 C 
BRANCH  16  17
ATOM     17  C   UNL     1      47.657   4.171  17.902  0.00  0.00    +0.000 A 
ATOM     18  C   UNL     1      46.943   5.338  18.174  0.00  0.00    +0.000 A 
ATOM     19  C   UNL     1      47.222   6.081  19.314  0.00  0.00    +0.000 A 
ATOM     20  C   UNL     1      48.185   5.655  20.245  0.00  0.00    +0.000 A 
ATOM     21  C   UNL     1      48.940   4.515  19.947  0.00  0.00    +0.000 A 
ATOM     22  C   UNL     1      48.684   3.785  18.778  0.00  0.00    +0.000 A 
BRANCH  20  23
ATOM     23  C   UNL     1      48.283   6.358  21.595  0.00  0.00    +0.000 C 
BRANCH  23  24
ATOM     24  C   UNL     1      48.083   7.869  21.374  0.00  0.00    +0.000 C 
ATOM     25  C   UNL     1      47.003   8.466  22.282  0.00  0.00    +0.000 C 
ATOM     26  C   UNL     1      46.589   9.793  21.661  0.00  0.00    +0.000 C 
ATOM     27  C   UNL     1      47.798  10.705  21.412  0.00  0.00    +0.000 C 
ATOM     28  N   UNL     1      48.970  10.046  20.825  0.00  0.00    +0.000 NA
ATOM     29  C   UNL     1      49.317   8.768  21.468  0.00  0.00    +0.000 C 
ATOM     30  H   UNL     1      49.768  10.679  20.835  0.00  0.00    +0.000 HD
ENDBRANCH  23  24
ENDBRANCH  20  23
ENDBRANCH  16  17
ENDBRANCH   3  16
TORSDOF 5
ENDMDL
MODEL 9
REMARK VINA RESULT:    -6.877      3.889      8.875
REMARK INTER + INTRA:          -9.853
REMARK INTER:                  -8.692
REMARK INTRA:                  -1.162
REMARK UNBOUND:                -0.966
REMARK  Name = 
REMARK  5 active torsions:
REMARK  status: ('A' for Active; 'I' for Inactive)
REMARK    1  A    between atoms: C_2  and  C_18
REMARK    2  A    between atoms: N_3  and  C_4
REMARK    3  A    between atoms: C_4  and  C_5
REMARK    4  A    between atoms: C_8  and  C_9
REMARK    5  A    between atoms: C_9  and  C_10
REMARK                            x       y       z     vdW  Elec       q    Type
REMARK                         _______ _______ _______ _____ _____    ______ ____
ROOT
ATOM      1  O   UNL     1      47.345   3.086  14.119  0.00  0.00    +0.000 OA
ATOM      2  C   UNL     1      46.987   4.164  14.598  0.00  0.00    +0.000 C 
ATOM      3  N   UNL     1      46.924   4.408  15.937  0.00  0.00    +0.000 N 
ATOM      4  H   UNL     1      46.619   5.311  16.273  0.00  0.00    +0.000 HD
ENDROOT
BRANCH   2   5
ATOM      5  C   UNL     1      46.558   5.284  13.747  0.00  0.00    +0.000 A 
ATOM      6  C   UNL     1      45.334   5.251  13.097  0.00  0.00    +0.000 A 
ATOM      7  S   UNL     1      45.008   6.668  12.203  0.00  0.00    +0.000 S 
ATOM      8  C   UNL     1      46.510   7.352  12.622  0.00  0.00    +0.000 A 
ATOM      9  N   UNL     1      46.874   8.584  12.171  0.00  0.00    +0.000 NA
ATOM     10  C   UNL     1      48.045   8.967  12.544  0.00  0.00    +0.000 A 
ATOM     11  N   UNL     1      48.896   8.234  13.329  0.00  0.00    +0.000 N 
ATOM     12  C   UNL     1      48.556   7.002  13.841  0.00  0.00    +0.000 A 
ATOM     13  O   UNL     1      49.312   6.420  14.616  0.00  0.00    +0.000 OA
ATOM     14  C   UNL     1      47.248   6.523  13.441  0.00  0.00    +0.000 A 
ATOM     15  H   UNL     1      49.796   8.599  13.602  0.00  0.00    +0.000 HD
ENDBRANCH   2   5
BRANCH   3  16
ATOM     16  C   UNL     1      47.348   3.490  16.960  0.00  0.00    +0.000 C 
BRANCH  16  17
ATOM     17  C   UNL     1      48.815   3.670  17.227  0.00  0.00    +0.000 A 
ATOM     18  C   UNL     1      49.640   2.544  17.229  0.00  0.00    +0.000 A 
ATOM     19  C   UNL     1      50.997   2.670  17.496  0.00  0.00    +0.000 A 
ATOM     20  C   UNL     1      51.584   3.928  17.714  0.00  0.00    +0.000 A 
ATOM     21  C   UNL     1      50.751   5.052  17.766  0.00  0.00    +0.000 A 
ATOM     22  C   UNL     1      49.374   4.921  17.534  0.00  0.00    +0.000 A 
BRANCH  20  23
ATOM     23  C   UNL     1      53.105   4.048  17.753  0.00  0.00    +0.000 C 
BRANCH  23  24
ATOM     24  C   UNL     1      53.691   2.684  18.160  0.00  0.00    +0.000 C 
ATOM     25  C   UNL     1      54.659   2.116  17.117  0.00  0.00    +0.000 C 
ATOM     26  C   UNL     1      54.789   0.626  17.401  0.00  0.00    +0.000 C 
ATOM     27  C   UNL     1      55.186   0.359  18.859  0.00  0.00    +0.000 C 
ATOM     28  N   UNL     1      54.466   1.155  19.860  0.00  0.00    +0.000 NA
ATOM     29  C   UNL     1      54.373   2.586  19.526  0.00  0.00    +0.000 C 
ATOM     30  H   UNL     1      54.891   1.029  20.777  0.00  0.00    +0.000 HD
ENDBRANCH  23  24
ENDBRANCH  20  23
ENDBRANCH  16  17
ENDBRANCH   3  16
TORSDOF 5
ENDMDL
