MODEL 1
REMARK VINA RESULT:    -7.564      0.000      0.000
REMARK INTER + INTRA:         -11.276
REMARK INTER:                 -10.439
REMARK INTRA:                  -0.837
REMARK UNBOUND:                -0.837
REMARK  Name = 
REMARK  7 active torsions:
REMARK  status: ('A' for Active; 'I' for Inactive)
REMARK    1  A    between atoms: N_1  and  C_2
REMARK    2  A    between atoms: C_2  and  C_3
REMARK    3  A    between atoms: C_7  and  O_8
REMARK    4  A    between atoms: O_8  and  C_9
REMARK    5  A    between atoms: C_9  and  C_10
REMARK    6  A    between atoms: C_10  and  C_11
REMARK    7  A    between atoms: C_14  and  C_15
REMARK                            x       y       z     vdW  Elec       q    Type
REMARK                         _______ _______ _______ _____ _____    ______ ____
ROOT
ATOM      1  C   UNL     1      43.362   4.792  10.614  0.00  0.00    +0.000 C 
ENDROOT
BRANCH   1   2
ATOM      2  O   UNL     1      43.594   5.425  11.878  0.00  0.00    +0.000 OA
BRANCH   2   7
ATOM      3  C   UNL     1      46.744   5.266  13.728  0.00  0.00    +0.000 A 
ATOM      4  C   UNL     1      47.569   6.094  12.955  0.00  0.00    +0.000 A 
ATOM      5  C   UNL     1      47.073   6.726  11.818  0.00  0.00    +0.000 A 
ATOM      6  C   UNL     1      45.746   6.529  11.431  0.00  0.00    +0.000 A 
ATOM      7  C   UNL     1      44.906   5.699  12.177  0.00  0.00    +0.000 A 
ATOM      8  C   UNL     1      45.411   5.077  13.327  0.00  0.00    +0.000 A 
BRANCH   3   9
ATOM      9  C   UNL     1      47.303   4.567  14.942  0.00  0.00    +0.000 C 
BRANCH   9  10
ATOM     10  N   UNL     1      47.475   3.136  14.712  0.00  0.00    +0.000 NA
ATOM     11  H   UNL     1      47.095   2.896  13.799  0.00  0.00    +0.000 HD
ATOM     12  H   UNL     1      46.922   2.626  15.399  0.00  0.00    +0.000 HD
ENDBRANCH   9  10
ENDBRANCH   3   9
ENDBRANCH   2   7
ENDBRANCH   1   2
BRANCH   1  13
ATOM     13  C   UNL     1      43.945   3.378  10.622  0.00  0.00    +0.000 C 
BRANCH  13  14
ATOM     14  C   UNL     1      44.832   3.140   9.421  0.00  0.00    +0.000 A 
ATOM     15  C   UNL     1      45.232   1.842   9.077  0.00  0.00    +0.000 A 
ATOM     16  C   UNL     1      46.084   1.629   7.989  0.00  0.00    +0.000 A 
ATOM     17  C   UNL     1      46.542   2.708   7.225  0.00  0.00    +0.000 A 
ATOM     18  C   UNL     1      46.161   4.008   7.574  0.00  0.00    +0.000 A 
ATOM     19  C   UNL     1      45.312   4.221   8.667  0.00  0.00    +0.000 A 
BRANCH  17  20
ATOM     20  C   UNL     1      47.446   2.427   6.077  0.00  0.00    +0.000 C 
ATOM     21  N   UNL     1      48.791   2.574   6.278  0.00  0.00    +0.000 N 
ATOM     22  O   UNL     1      47.009   2.111   4.977  0.00  0.00    +0.000 OA
ATOM     23  H   UNL     1      49.169   3.067   7.074  0.00  0.00    +0.000 HD
ATOM     24  H   UNL     1      49.374   2.489   5.457  0.00  0.00    +0.000 HD
ENDBRANCH  17  20
ENDBRANCH  13  14
ENDBRANCH   1  13
TORSDOF 7
ENDMDL
MODEL 2
REMARK VINA RESULT:    -7.315      1.916      2.576
REMARK INTER + INTRA:         -10.932
REMARK INTER:                 -10.296
REMARK INTRA:                  -0.636
REMARK UNBOUND:                -0.837
REMARK  Name = 
REMARK  7 active torsions:
REMARK  status: ('A' for Active; 'I' for Inactive)
REMARK    1  A    between atoms: N_1  and  C_2
REMARK    2  A    between atoms: C_2  and  C_3
REMARK    3  A    between atoms: C_7  and  O_8
REMARK    4  A    between atoms: O_8  and  C_9
REMARK    5  A    between atoms: C_9  and  C_10
REMARK    6  A    between atoms: C_10  and  C_11
REMARK    7  A    between atoms: C_14  and  C_15
REMARK                            x       y       z     vdW  Elec       q    Type
REMARK                         _______ _______ _______ _____ _____    ______ ____
ROOT
ATOM      1  C   UNL     1      43.372   3.813  11.522  0.00  0.00    +0.000 C 
ENDROOT
BRANCH   1   2
ATOM      2  O   UNL     1      43.481   4.701  12.641  0.00  0.00    +0.000 OA
BRANCH   2   7
ATOM      3  C   UNL     1      45.990   7.356  12.804  0.00  0.00    +0.000 A 
ATOM      4  C   UNL     1      47.131   6.644  13.199  0.00  0.00    +0.000 A 
ATOM      5  C   UNL     1      47.074   5.267  13.396  0.00  0.00    +0.000 A 
ATOM      6  C   UNL     1      45.871   4.583  13.213  0.00  0.00    +0.000 A 
ATOM      7  C   UNL     1      44.716   5.271  12.832  0.00  0.00    +0.000 A 
ATOM      8  C   UNL     1      44.785   6.655  12.624  0.00  0.00    +0.000 A 
BRANCH   3   9
ATOM      9  C   UNL     1      46.060   8.851  12.621  0.00  0.00    +0.000 C 
BRANCH   9  10
ATOM     10  N   UNL     1      44.773   9.490  12.876  0.00  0.00    +0.000 NA
ATOM     11  H   UNL     1      44.625   9.557  13.881  0.00  0.00    +0.000 HD
ATOM     12  H   UNL     1      44.034   8.890  12.513  0.00  0.00    +0.000 HD
ENDBRANCH   9  10
ENDBRANCH   3   9
ENDBRANCH   2   7
ENDBRANCH   1   2
BRANCH   1  13
ATOM     13  C   UNL     1      43.675   4.566  10.225  0.00  0.00    +0.000 C 
BRANCH  13  14
ATOM     14  C   UNL     1      44.669   3.813   9.371  0.00  0.00    +0.000 A 
ATOM     15  C   UNL     1      45.495   4.497   8.469  0.00  0.00    +0.000 A 
ATOM     16  C   UNL     1      46.386   3.795   7.652  0.00  0.00    +0.000 A 
ATOM     17  C   UNL     1      46.472   2.401   7.730  0.00  0.00    +0.000 A 
ATOM     18  C   UNL     1      45.637   1.710   8.616  0.00  0.00    +0.000 A 
ATOM     19  C   UNL     1      44.741   2.414   9.429  0.00  0.00    +0.000 A 
BRANCH  17  20
ATOM     20  C   UNL     1      47.436   1.701   6.840  0.00  0.00    +0.000 C 
ATOM     21  N   UNL     1      48.540   2.396   6.429  0.00  0.00    +0.000 N 
ATOM     22  O   UNL     1      47.239   0.555   6.452  0.00  0.00    +0.000 OA
ATOM     23  H   UNL     1      48.611   3.400   6.515  0.00  0.00    +0.000 HD
ATOM     24  H   UNL     1      49.119   1.941   5.736  0.00  0.00    +0.000 HD
ENDBRANCH  17  20
ENDBRANCH  13  14
ENDBRANCH   1  13
TORSDOF 7
ENDMDL
MODEL 3
REMARK VINA RESULT:    -7.027      2.232      6.522
REMARK INTER + INTRA:         -10.534
REMARK INTER:                  -9.748
REMARK INTRA:                  -0.786
REMARK UNBOUND:                -0.837
REMARK  Name = 
REMARK  7 active torsions:
REMARK  status: ('A' for Active; 'I' for Inactive)
REMARK    1  A    between atoms: N_1  and  C_2
REMARK    2  A    between atoms: C_2  and  C_3
REMARK    3  A    between atoms: C_7  and  O_8
REMARK    4  A    between atoms: O_8  and  C_9
REMARK    5  A    between atoms: C_9  and  C_10
REMARK    6  A    between atoms: C_10  and  C_11
REMARK    7  A    between atoms: C_14  and  C_15
REMARK                            x       y       z     vdW  Elec       q    Type
REMARK                         _______ _______ _______ _____ _____    ______ ____
ROOT
ATOM      1  C   UNL     1      43.525   3.370  11.030  0.00  0.00    +0.000 C 
ENDROOT
BRANCH   1   2
ATOM      2  O   UNL     1      44.025   2.372  10.133  0.00  0.00    +0.000 OA
BRANCH   2   7
ATOM      3  C   UNL     1      46.618   2.121   7.568  0.00  0.00    +0.000 A 
ATOM      4  C   UNL     1      46.833   3.469   7.249  0.00  0.00    +0.000 A 
ATOM      5  C   UNL     1      46.124   4.473   7.902  0.00  0.00    +0.000 A 
ATOM      6  C   UNL     1      45.180   4.143   8.876  0.00  0.00    +0.000 A 
ATOM      7  C   UNL     1      44.939   2.807   9.204  0.00  0.00    +0.000 A 
ATOM      8  C   UNL     1      45.665   1.803   8.550  0.00  0.00    +0.000 A 
BRANCH   3   9
ATOM      9  C   UNL     1      47.374   1.043   6.832  0.00  0.00    +0.000 C 
BRANCH   9  10
ATOM     10  N   UNL     1      48.322   1.603   5.874  0.00  0.00    +0.000 NA
ATOM     11  H   UNL     1      48.837   0.846   5.430  0.00  0.00    +0.000 HD
ATOM     12  H   UNL     1      49.007   2.162   6.382  0.00  0.00    +0.000 HD
ENDBRANCH   9  10
ENDBRANCH   3   9
ENDBRANCH   2   7
ENDBRANCH   1   2
BRANCH   1  13
ATOM     13  C   UNL     1      44.317   3.342  12.338  0.00  0.00    +0.000 C 
BRANCH  13  14
ATOM     14  C   UNL     1      45.006   4.664  12.594  0.00  0.00    +0.000 A 
ATOM     15  C   UNL     1      44.425   5.864  12.164  0.00  0.00    +0.000 A 
ATOM     16  C   UNL     1      45.082   7.082  12.367  0.00  0.00    +0.000 A 
ATOM     17  C   UNL     1      46.324   7.118  13.010  0.00  0.00    +0.000 A 
ATOM     18  C   UNL     1      46.918   5.921  13.425  0.00  0.00    +0.000 A 
ATOM     19  C   UNL     1      46.262   4.702  13.216  0.00  0.00    +0.000 A 
BRANCH  17  20
ATOM     20  C   UNL     1      46.981   8.438  13.202  0.00  0.00    +0.000 C 
ATOM     21  N   UNL     1      47.192   8.862  14.485  0.00  0.00    +0.000 N 
ATOM     22  O   UNL     1      47.293   9.146  12.251  0.00  0.00    +0.000 OA
ATOM     23  H   UNL     1      46.732   8.439  15.278  0.00  0.00    +0.000 HD
ATOM     24  H   UNL     1      47.534   9.808  14.590  0.00  0.00    +0.000 HD
ENDBRANCH  17  20
ENDBRANCH  13  14
ENDBRANCH   1  13
TORSDOF 7
ENDMDL
MODEL 4
REMARK VINA RESULT:    -6.820      1.499      2.079
REMARK INTER + INTRA:         -10.249
REMARK INTER:                  -9.331
REMARK INTRA:                  -0.918
REMARK UNBOUND:                -0.837
REMARK  Name = 
REMARK  7 active torsions:
REMARK  status: ('A' for Active; 'I' for Inactive)
REMARK    1  A    between atoms: N_1  and  C_2
REMARK    2  A    between atoms: C_2  and  C_3
REMARK    3  A    between atoms: C_7  and  O_8
REMARK    4  A    between atoms: O_8  and  C_9
REMARK    5  A    between atoms: C_9  and  C_10
REMARK    6  A    between atoms: C_10  and  C_11
REMARK    7  A    between atoms: C_14  and  C_15
REMARK                            x       y       z     vdW  Elec       q    Type
REMARK                         _______ _______ _______ _____ _____    ______ ____
ROOT
ATOM      1  C   UNL     1      43.396   5.191  10.985  0.00  0.00    +0.000 C 
ENDROOT
BRANCH   1   2
ATOM      2  O   UNL     1      43.681   5.576  12.335  0.00  0.00    +0.000 OA
BRANCH   2   7
ATOM      3  C   UNL     1      47.161   6.696  12.389  0.00  0.00    +0.000 A 
ATOM      4  C   UNL     1      47.737   5.791  13.291  0.00  0.00    +0.000 A 
ATOM      5  C   UNL     1      46.968   4.787  13.874  0.00  0.00    +0.000 A 
ATOM      6  C   UNL     1      45.609   4.682  13.574  0.00  0.00    +0.000 A 
ATOM      7  C   UNL     1      45.008   5.579  12.687  0.00  0.00    +0.000 A 
ATOM      8  C   UNL     1      45.792   6.579  12.095  0.00  0.00    +0.000 A 
BRANCH   3   9
ATOM      9  C   UNL     1      48.000   7.795  11.786  0.00  0.00    +0.000 C 
BRANCH   9  10
ATOM     10  N   UNL     1      49.422   7.469  11.814  0.00  0.00    +0.000 NA
ATOM     11  H   UNL     1      49.557   6.604  12.333  0.00  0.00    +0.000 HD
ATOM     12  H   UNL     1      49.913   8.197  12.331  0.00  0.00    +0.000 HD
ENDBRANCH   9  10
ENDBRANCH   3   9
ENDBRANCH   2   7
ENDBRANCH   1   2
BRANCH   1  13
ATOM     13  C   UNL     1      43.572   3.680  10.823  0.00  0.00    +0.000 C 
BRANCH  13  14
ATOM     14  C   UNL     1      44.536   3.355   9.704  0.00  0.00    +0.000 A 
ATOM     15  C   UNL     1      44.864   2.024   9.412  0.00  0.00    +0.000 A 
ATOM     16  C   UNL     1      45.785   1.727   8.403  0.00  0.00    +0.000 A 
ATOM     17  C   UNL     1      46.385   2.754   7.666  0.00  0.00    +0.000 A 
ATOM     18  C   UNL     1      46.076   4.086   7.965  0.00  0.00    +0.000 A 
ATOM     19  C   UNL     1      45.158   4.382   8.979  0.00  0.00    +0.000 A 
BRANCH  17  20
ATOM     20  C   UNL     1      47.358   2.385   6.603  0.00  0.00    +0.000 C 
ATOM     21  N   UNL     1      47.374   3.144   5.465  0.00  0.00    +0.000 N 
ATOM     22  O   UNL     1      48.097   1.414   6.717  0.00  0.00    +0.000 OA
ATOM     23  H   UNL     1      46.626   3.780   5.227  0.00  0.00    +0.000 HD
ATOM     24  H   UNL     1      47.960   2.806   4.714  0.00  0.00    +0.000 HD
ENDBRANCH  17  20
ENDBRANCH  13  14
ENDBRANCH   1  13
TORSDOF 7
ENDMDL
MODEL 5
REMARK VINA RESULT:    -6.481      3.493      8.684
REMARK INTER + INTRA:          -9.781
REMARK INTER:                  -9.315
REMARK INTRA:                  -0.466
REMARK UNBOUND:                -0.837
REMARK  Name = 
REMARK  7 active torsions:
REMARK  status: ('A' for Active; 'I' for Inactive)
REMARK    1  A    between atoms: N_1  and  C_2
REMARK    2  A    between atoms: C_2  and  C_3
REMARK    3  A    between atoms: C_7  and  O_8
REMARK    4  A    between atoms: O_8  and  C_9
REMARK    5  A    between atoms: C_9  and  C_10
REMARK    6  A    between atoms: C_10  and  C_11
REMARK    7  A    between atoms: C_14  and  C_15
REMARK                            x       y       z     vdW  Elec       q    Type
REMARK                         _______ _______ _______ _____ _____    ______ ____
ROOT
ATOM      1  C   UNL     1      47.322   1.205   6.170  0.00  0.00    +0.000 C 
ENDROOT
BRANCH   1   2
ATOM      2  O   UNL     1      47.835   1.015   4.846  0.00  0.00    +0.000 OA
BRANCH   2   7
ATOM      3  C   UNL     1      46.088  -1.544   2.905  0.00  0.00    +0.000 A 
ATOM      4  C   UNL     1      45.202  -0.768   2.144  0.00  0.00    +0.000 A 
ATOM      5  C   UNL     1      45.195   0.619   2.263  0.00  0.00    +0.000 A 
ATOM      6  C   UNL     1      46.065   1.250   3.153  0.00  0.00    +0.000 A 
ATOM      7  C   UNL     1      46.950   0.499   3.931  0.00  0.00    +0.000 A 
ATOM      8  C   UNL     1      46.959  -0.896   3.797  0.00  0.00    +0.000 A 
BRANCH   3   9
ATOM      9  C   UNL     1      46.064  -3.048   2.785  0.00  0.00    +0.000 C 
BRANCH   9  10
ATOM     10  N   UNL     1      46.176  -3.697   4.088  0.00  0.00    +0.000 NA
ATOM     11  H   UNL     1      45.921  -4.678   3.996  0.00  0.00    +0.000 HD
ATOM     12  H   UNL     1      45.496  -3.277   4.720  0.00  0.00    +0.000 HD
ENDBRANCH   9  10
ENDBRANCH   3   9
ENDBRANCH   2   7
ENDBRANCH   1   2
BRANCH   1  13
ATOM     13  C   UNL     1      47.081   2.693   6.429  0.00  0.00    +0.000 C 
BRANCH  13  14
ATOM     14  C   UNL     1      46.199   2.906   7.638  0.00  0.00    +0.000 A 
ATOM     15  C   UNL     1      45.703   1.812   8.359  0.00  0.00    +0.000 A 
ATOM     16  C   UNL     1      44.857   2.010   9.454  0.00  0.00    +0.000 A 
ATOM     17  C   UNL     1      44.501   3.304   9.850  0.00  0.00    +0.000 A 
ATOM     18  C   UNL     1      44.978   4.400   9.123  0.00  0.00    +0.000 A 
ATOM     19  C   UNL     1      45.821   4.200   8.024  0.00  0.00    +0.000 A 
BRANCH  17  20
ATOM     20  C   UNL     1      43.598   3.461  11.022  0.00  0.00    +0.000 C 
ATOM     21  N   UNL     1      43.496   2.409  11.890  0.00  0.00    +0.000 N 
ATOM     22  O   UNL     1      42.936   4.478  11.192  0.00  0.00    +0.000 OA
ATOM     23  H   UNL     1      43.818   1.481  11.657  0.00  0.00    +0.000 HD
ATOM     24  H   UNL     1      42.794   2.495  12.612  0.00  0.00    +0.000 HD
ENDBRANCH  17  20
ENDBRANCH  13  14
ENDBRANCH   1  13
TORSDOF 7
ENDMDL
MODEL 6
REMARK VINA RESULT:    -6.399      2.156      7.219
REMARK INTER + INTRA:          -9.668
REMARK INTER:                  -9.094
REMARK INTRA:                  -0.574
REMARK UNBOUND:                -0.837
REMARK  Name = 
REMARK  7 active torsions:
REMARK  status: ('A' for Active; 'I' for Inactive)
REMARK    1  A    between atoms: N_1  and  C_2
REMARK    2  A    between atoms: C_2  and  C_3
REMARK    3  A    between atoms: C_7  and  O_8
REMARK    4  A    between atoms: O_8  and  C_9
REMARK    5  A    between atoms: C_9  and  C_10
REMARK    6  A    between atoms: C_10  and  C_11
REMARK    7  A    between atoms: C_14  and  C_15
REMARK                            x       y       z     vdW  Elec       q    Type
REMARK                         _______ _______ _______ _____ _____    ______ ____
ROOT
ATOM      1  C   UNL     1      45.778   5.157   9.115  0.00  0.00    +0.000 C 
ENDROOT
BRANCH   1   2
ATOM      2  O   UNL     1      45.113   4.386   8.107  0.00  0.00    +0.000 OA
BRANCH   2   7
ATOM      3  C   UNL     1      47.066   2.069   6.062  0.00  0.00    +0.000 A 
ATOM      4  C   UNL     1      47.067   0.917   6.860  0.00  0.00    +0.000 A 
ATOM      5  C   UNL     1      46.398   0.901   8.081  0.00  0.00    +0.000 A 
ATOM      6  C   UNL     1      45.729   2.042   8.528  0.00  0.00    +0.000 A 
ATOM      7  C   UNL     1      45.724   3.207   7.757  0.00  0.00    +0.000 A 
ATOM      8  C   UNL     1      46.389   3.210   6.523  0.00  0.00    +0.000 A 
BRANCH   3   9
ATOM      9  C   UNL     1      47.818   2.079   4.754  0.00  0.00    +0.000 C 
BRANCH   9  10
ATOM     10  N   UNL     1      47.507   0.909   3.940  0.00  0.00    +0.000 NA
ATOM     11  H   UNL     1      48.041   0.112   4.281  0.00  0.00    +0.000 HD
ATOM     12  H   UNL     1      47.820   1.082   2.986  0.00  0.00    +0.000 HD
ENDBRANCH   9  10
ENDBRANCH   3   9
ENDBRANCH   2   7
ENDBRANCH   1   2
BRANCH   1  13
ATOM     13  C   UNL     1      44.822   5.437  10.275  0.00  0.00    +0.000 C 
BRANCH  13  14
ATOM     14  C   UNL     1      45.457   5.100  11.606  0.00  0.00    +0.000 A 
ATOM     15  C   UNL     1      46.067   6.098  12.376  0.00  0.00    +0.000 A 
ATOM     16  C   UNL     1      46.688   5.778  13.588  0.00  0.00    +0.000 A 
ATOM     17  C   UNL     1      46.700   4.458  14.050  0.00  0.00    +0.000 A 
ATOM     18  C   UNL     1      46.108   3.453  13.277  0.00  0.00    +0.000 A 
ATOM     19  C   UNL     1      45.492   3.774  12.062  0.00  0.00    +0.000 A 
BRANCH  17  20
ATOM     20  C   UNL     1      47.373   4.170  15.345  0.00  0.00    +0.000 C 
ATOM     21  N   UNL     1      47.581   5.218  16.200  0.00  0.00    +0.000 N 
ATOM     22  O   UNL     1      47.765   3.044  15.630  0.00  0.00    +0.000 OA
ATOM     23  H   UNL     1      47.506   6.180  15.905  0.00  0.00    +0.000 HD
ATOM     24  H   UNL     1      48.139   5.019  17.019  0.00  0.00    +0.000 HD
ENDBRANCH  17  20
ENDBRANCH  13  14
ENDBRANCH   1  13
TORSDOF 7
ENDMDL
MODEL 7
REMARK VINA RESULT:    -5.961      2.372      7.085
REMARK INTER + INTRA:          -9.062
REMARK INTER:                  -8.206
REMARK INTRA:                  -0.856
REMARK UNBOUND:                -0.837
REMARK  Name = 
REMARK  7 active torsions:
REMARK  status: ('A' for Active; 'I' for Inactive)
REMARK    1  A    between atoms: N_1  and  C_2
REMARK    2  A    between atoms: C_2  and  C_3
REMARK    3  A    between atoms: C_7  and  O_8
REMARK    4  A    between atoms: O_8  and  C_9
REMARK    5  A    between atoms: C_9  and  C_10
REMARK    6  A    between atoms: C_10  and  C_11
REMARK    7  A    between atoms: C_14  and  C_15
REMARK                            x       y       z     vdW  Elec       q    Type
REMARK                         _______ _______ _______ _____ _____    ______ ____
ROOT
ATOM      1  C   UNL     1      45.537   6.886  12.231  0.00  0.00    +0.000 C 
ENDROOT
BRANCH   1   2
ATOM      2  O   UNL     1      45.068   6.683  10.893  0.00  0.00    +0.000 OA
BRANCH   2   7
ATOM      3  C   UNL     1      45.320   3.650   8.866  0.00  0.00    +0.000 A 
ATOM      4  C   UNL     1      44.556   2.744   9.615  0.00  0.00    +0.000 A 
ATOM      5  C   UNL     1      43.936   3.146  10.795  0.00  0.00    +0.000 A 
ATOM      6  C   UNL     1      44.081   4.458  11.250  0.00  0.00    +0.000 A 
ATOM      7  C   UNL     1      44.847   5.377  10.529  0.00  0.00    +0.000 A 
ATOM      8  C   UNL     1      45.458   4.967   9.336  0.00  0.00    +0.000 A 
BRANCH   3   9
ATOM      9  C   UNL     1      46.008   3.192   7.605  0.00  0.00    +0.000 C 
BRANCH   9  10
ATOM     10  N   UNL     1      46.821   4.252   7.015  0.00  0.00    +0.000 NA
ATOM     11  H   UNL     1      46.228   5.053   6.810  0.00  0.00    +0.000 HD
ATOM     12  H   UNL     1      47.186   3.924   6.122  0.00  0.00    +0.000 HD
ENDBRANCH   9  10
ENDBRANCH   3   9
ENDBRANCH   2   7
ENDBRANCH   1   2
BRANCH   1  13
ATOM     13  C   UNL     1      47.019   6.520  12.327  0.00  0.00    +0.000 C 
BRANCH  13  14
ATOM     14  C   UNL     1      47.307   5.710  13.571  0.00  0.00    +0.000 A 
ATOM     15  C   UNL     1      46.844   4.393  13.686  0.00  0.00    +0.000 A 
ATOM     16  C   UNL     1      47.078   3.659  14.852  0.00  0.00    +0.000 A 
ATOM     17  C   UNL     1      47.786   4.227  15.917  0.00  0.00    +0.000 A 
ATOM     18  C   UNL     1      48.236   5.548  15.816  0.00  0.00    +0.000 A 
ATOM     19  C   UNL     1      47.996   6.284  14.649  0.00  0.00    +0.000 A 
BRANCH  17  20
ATOM     20  C   UNL     1      48.009   3.404  17.136  0.00  0.00    +0.000 C 
ATOM     21  N   UNL     1      46.923   2.786  17.692  0.00  0.00    +0.000 N 
ATOM     22  O   UNL     1      49.116   3.308  17.653  0.00  0.00    +0.000 OA
ATOM     23  H   UNL     1      45.975   3.038  17.454  0.00  0.00    +0.000 HD
ATOM     24  H   UNL     1      47.079   2.328  18.580  0.00  0.00    +0.000 HD
ENDBRANCH  17  20
ENDBRANCH  13  14
ENDBRANCH   1  13
TORSDOF 7
ENDMDL
MODEL 8
REMARK VINA RESULT:    -5.877      4.581      8.331
REMARK INTER + INTRA:          -8.948
REMARK INTER:                  -8.577
REMARK INTRA:                  -0.371
REMARK UNBOUND:                -0.837
REMARK  Name = 
REMARK  7 active torsions:
REMARK  status: ('A' for Active; 'I' for Inactive)
REMARK    1  A    between atoms: N_1  and  C_2
REMARK    2  A    between atoms: C_2  and  C_3
REMARK    3  A    between atoms: C_7  and  O_8
REMARK    4  A    between atoms: O_8  and  C_9
REMARK    5  A    between atoms: C_9  and  C_10
REMARK    6  A    between atoms: C_10  and  C_11
REMARK    7  A    between atoms: C_14  and  C_15
REMARK                            x       y       z     vdW  Elec       q    Type
REMARK                         _______ _______ _______ _____ _____    ______ ____
ROOT
ATOM      1  C   UNL     1      47.357   4.637  15.508  0.00  0.00    +0.000 C 
ENDROOT
BRANCH   1   2
ATOM      2  O   UNL     1      46.621   3.864  14.552  0.00  0.00    +0.000 OA
BRANCH   2   7
ATOM      3  C   UNL     1      44.848   4.506  11.420  0.00  0.00    +0.000 A 
ATOM      4  C   UNL     1      45.480   5.673  10.970  0.00  0.00    +0.000 A 
ATOM      5  C   UNL     1      46.517   6.244  11.702  0.00  0.00    +0.000 A 
ATOM      6  C   UNL     1      46.928   5.663  12.903  0.00  0.00    +0.000 A 
ATOM      7  C   UNL     1      46.306   4.507  13.380  0.00  0.00    +0.000 A 
ATOM      8  C   UNL     1      45.272   3.932  12.630  0.00  0.00    +0.000 A 
BRANCH   3   9
ATOM      9  C   UNL     1      43.707   3.914  10.629  0.00  0.00    +0.000 C 
BRANCH   9  10
ATOM     10  N   UNL     1      42.958   2.934  11.409  0.00  0.00    +0.000 NA
ATOM     11  H   UNL     1      41.975   3.197  11.422  0.00  0.00    +0.000 HD
ATOM     12  H   UNL     1      43.281   2.970  12.375  0.00  0.00    +0.000 HD
ENDBRANCH   9  10
ENDBRANCH   3   9
ENDBRANCH   2   7
ENDBRANCH   1   2
BRANCH   1  13
ATOM     13  C   UNL     1      47.437   3.885  16.838  0.00  0.00    +0.000 C 
BRANCH  13  14
ATOM     14  C   UNL     1      48.852   3.447  17.139  0.00  0.00    +0.000 A 
ATOM     15  C   UNL     1      49.301   2.176  16.758  0.00  0.00    +0.000 A 
ATOM     16  C   UNL     1      50.598   1.759  17.071  0.00  0.00    +0.000 A 
ATOM     17  C   UNL     1      51.468   2.609  17.762  0.00  0.00    +0.000 A 
ATOM     18  C   UNL     1      51.021   3.874  18.161  0.00  0.00    +0.000 A 
ATOM     19  C   UNL     1      49.720   4.287  17.852  0.00  0.00    +0.000 A 
BRANCH  17  20
ATOM     20  C   UNL     1      52.838   2.118  18.070  0.00  0.00    +0.000 C 
ATOM     21  N   UNL     1      53.372   2.448  19.286  0.00  0.00    +0.000 N 
ATOM     22  O   UNL     1      53.488   1.473  17.256  0.00  0.00    +0.000 OA
ATOM     23  H   UNL     1      52.983   3.174  19.870  0.00  0.00    +0.000 HD
ATOM     24  H   UNL     1      54.342   2.200  19.427  0.00  0.00    +0.000 HD
ENDBRANCH  17  20
ENDBRANCH  13  14
ENDBRANCH   1  13
TORSDOF 7
ENDMDL
MODEL 9
REMARK VINA RESULT:    -5.838      3.475      5.621
REMARK INTER + INTRA:          -8.892
REMARK INTER:                  -8.217
REMARK INTRA:                  -0.675
REMARK UNBOUND:                -0.837
REMARK  Name = 
REMARK  7 active torsions:
REMARK  status: ('A' for Active; 'I' for Inactive)
REMARK    1  A    between atoms: N_1  and  C_2
REMARK    2  A    between atoms: C_2  and  C_3
REMARK    3  A    between atoms: C_7  and  O_8
REMARK    4  A    between atoms: O_8  and  C_9
REMARK    5  A    between atoms: C_9  and  C_10
REMARK    6  A    between atoms: C_10  and  C_11
REMARK    7  A    between atoms: C_14  and  C_15
REMARK                            x       y       z     vdW  Elec       q    Type
REMARK                         _______ _______ _______ _____ _____    ______ ____
ROOT
ATOM      1  C   UNL     1      48.706   6.902  13.979  0.00  0.00    +0.000 C 
ENDROOT
BRANCH   1   2
ATOM      2  O   UNL     1      48.588   7.124  15.389  0.00  0.00    +0.000 OA
BRANCH   2   7
ATOM      3  C   UNL     1      48.870   4.092  17.413  0.00  0.00    +0.000 A 
ATOM      4  C   UNL     1      50.213   4.142  17.814  0.00  0.00    +0.000 A 
ATOM      5  C   UNL     1      51.029   5.201  17.424  0.00  0.00    +0.000 A 
ATOM      6  C   UNL     1      50.518   6.219  16.617  0.00  0.00    +0.000 A 
ATOM      7  C   UNL     1      49.187   6.186  16.194  0.00  0.00    +0.000 A 
ATOM      8  C   UNL     1      48.369   5.123  16.601  0.00  0.00    +0.000 A 
BRANCH   3   9
ATOM      9  C   UNL     1      48.006   2.925  17.820  0.00  0.00    +0.000 C 
BRANCH   9  10
ATOM     10  N   UNL     1      46.598   3.160  17.514  0.00  0.00    +0.000 NA
ATOM     11  H   UNL     1      46.195   2.311  17.124  0.00  0.00    +0.000 HD
ATOM     12  H   UNL     1      46.537   3.871  16.787  0.00  0.00    +0.000 HD
ENDBRANCH   9  10
ENDBRANCH   3   9
ENDBRANCH   2   7
ENDBRANCH   1   2
BRANCH   1  13
ATOM     13  C   UNL     1      47.479   7.461  13.257  0.00  0.00    +0.000 C 
BRANCH  13  14
ATOM     14  C   UNL     1      46.579   6.351  12.762  0.00  0.00    +0.000 A 
ATOM     15  C   UNL     1      46.270   5.263  13.588  0.00  0.00    +0.000 A 
ATOM     16  C   UNL     1      45.468   4.220  13.115  0.00  0.00    +0.000 A 
ATOM     17  C   UNL     1      44.957   4.253  11.813  0.00  0.00    +0.000 A 
ATOM     18  C   UNL     1      45.277   5.328  10.977  0.00  0.00    +0.000 A 
ATOM     19  C   UNL     1      46.084   6.369  11.450  0.00  0.00    +0.000 A 
BRANCH  17  20
ATOM     20  C   UNL     1      44.110   3.118  11.359  0.00  0.00    +0.000 C 
ATOM     21  N   UNL     1      43.654   2.245  12.308  0.00  0.00    +0.000 N 
ATOM     22  O   UNL     1      43.853   2.941  10.173  0.00  0.00    +0.000 OA
ATOM     23  H   UNL     1      44.042   2.207  13.240  0.00  0.00    +0.000 HD
ATOM     24  H   UNL     1      43.178   1.423  11.964  0.00  0.00    +0.000 HD
ENDBRANCH  17  20
ENDBRANCH  13  14
ENDBRANCH   1  13
TORSDOF 7
ENDMDL
