MODEL 1
REMARK VINA RESULT:    -8.905      0.000      0.000
REMARK INTER + INTRA:         -14.106
REMARK INTER:                 -12.549
REMARK INTRA:                  -1.557
REMARK UNBOUND:                -1.557
REMARK  Name = 
REMARK  7 active torsions:
REMARK  status: ('A' for Active; 'I' for Inactive)
REMARK    1  A    between atoms: C_2  and  C_4
REMARK    2  A    between atoms: C_4  and  C_5
REMARK    3  A    between atoms: C_5  and  N_6
REMARK    4  A    between atoms: C_5  and  C_19
REMARK    5  A    between atoms: C_7  and  C_9
REMARK    6  A    between atoms: C_22  and  C_23
REMARK    7  A    between atoms: C_23  and  C_24
REMARK                            x       y       z     vdW  Elec       q    Type
REMARK                         _______ _______ _______ _____ _____    ______ ____
ROOT
ATOM      1  C   UNL     1      44.747   3.814   9.930  0.00  0.00    +0.000 C 
ENDROOT
BRANCH   1   2
ATOM      2  C   UNL     1      45.501   3.239   8.733  0.00  0.00    +0.000 A 
ATOM      3  C   UNL     1      45.916   4.065   7.679  0.00  0.00    +0.000 A 
ATOM      4  C   UNL     1      46.653   3.539   6.613  0.00  0.00    +0.000 A 
ATOM      5  C   UNL     1      46.994   2.179   6.579  0.00  0.00    +0.000 A 
ATOM      6  C   UNL     1      46.569   1.353   7.626  0.00  0.00    +0.000 A 
ATOM      7  C   UNL     1      45.831   1.876   8.686  0.00  0.00    +0.000 A 
BRANCH   5   8
ATOM      8  C   UNL     1      47.839   1.615   5.459  0.00  0.00    +0.000 C 
BRANCH   8   9
ATOM      9  C   UNL     1      47.033   0.865   4.421  0.00  0.00    +0.000 A 
ATOM     10  C   UNL     1      47.127  -0.530   4.313  0.00  0.00    +0.000 A 
ATOM     11  C   UNL     1      46.414  -1.215   3.327  0.00  0.00    +0.000 A 
ATOM     12  C   UNL     1      45.598  -0.515   2.442  0.00  0.00    +0.000 A 
ATOM     13  C   UNL     1      45.491   0.871   2.543  0.00  0.00    +0.000 A 
ATOM     14  C   UNL     1      46.206   1.558   3.526  0.00  0.00    +0.000 A 
ENDBRANCH   8   9
ENDBRANCH   5   8
ENDBRANCH   1   2
BRANCH   1  15
ATOM     15  N   UNL     1      45.724   4.498  10.776  0.00  0.00    +0.000 N 
ATOM     16  C   UNL     1      45.611   5.794  11.204  0.00  0.00    +0.000 C 
ATOM     17  O   UNL     1      44.629   6.489  10.966  0.00  0.00    +0.000 OA
ATOM     18  H   UNL     1      46.660   4.099  10.747  0.00  0.00    +0.000 HD
BRANCH  16  19
ATOM     19  C   UNL     1      46.716   6.288  12.036  0.00  0.00    +0.000 A 
ATOM     20  C   UNL     1      47.576   7.261  11.546  0.00  0.00    +0.000 A 
ATOM     21  S   UNL     1      48.784   7.725  12.659  0.00  0.00    +0.000 S 
ATOM     22  C   UNL     1      48.233   6.601  13.813  0.00  0.00    +0.000 A 
ATOM     23  N   UNL     1      48.870   6.444  15.003  0.00  0.00    +0.000 NA
ATOM     24  C   UNL     1      48.361   5.533  15.766  0.00  0.00    +0.000 A 
ATOM     25  N   UNL     1      47.262   4.775  15.450  0.00  0.00    +0.000 N 
ATOM     26  C   UNL     1      46.564   4.927  14.277  0.00  0.00    +0.000 A 
ATOM     27  O   UNL     1      45.549   4.282  14.046  0.00  0.00    +0.000 OA
ATOM     28  C   UNL     1      47.117   5.914  13.371  0.00  0.00    +0.000 A 
ATOM     29  H   UNL     1      46.898   4.093  16.099  0.00  0.00    +0.000 HD
ENDBRANCH  16  19
ENDBRANCH   1  15
BRANCH   1  30
ATOM     30  C   UNL     1      43.969   2.723  10.682  0.00  0.00    +0.000 C 
BRANCH  30  32
ATOM     31  N   UNL     1      42.515   4.412  11.667  0.00  0.00    +0.000 N 
ATOM     32  C   UNL     1      43.232   3.272  11.878  0.00  0.00    +0.000 C 
ATOM     33  O   UNL     1      43.282   2.762  12.993  0.00  0.00    +0.000 OA
ATOM     34  H   UNL     1      42.104   4.827  12.495  0.00  0.00    +0.000 HD
ATOM     35  H   UNL     1      42.741   5.034  10.901  0.00  0.00    +0.000 HD
ENDBRANCH  30  32
ENDBRANCH   1  30
TORSDOF 7
ENDMDL
MODEL 2
REMARK VINA RESULT:    -8.316      2.712      4.882
REMARK INTER + INTRA:         -13.276
REMARK INTER:                 -11.948
REMARK INTRA:                  -1.327
REMARK UNBOUND:                -1.557
REMARK  Name = 
REMARK  7 active torsions:
REMARK  status: ('A' for Active; 'I' for Inactive)
REMARK    1  A    between atoms: C_2  and  C_4
REMARK    2  A    between atoms: C_4  and  C_5
REMARK    3  A    between atoms: C_5  and  N_6
REMARK    4  A    between atoms: C_5  and  C_19
REMARK    5  A    between atoms: C_7  and  C_9
REMARK    6  A    between atoms: C_22  and  C_23
REMARK    7  A    between atoms: C_23  and  C_24
REMARK                            x       y       z     vdW  Elec       q    Type
REMARK                         _______ _______ _______ _____ _____    ______ ____
ROOT
ATOM      1  C   UNL     1      46.263   7.901  12.618  0.00  0.00    +0.000 C 
ENDROOT
BRANCH   1   2
ATOM      2  C   UNL     1      45.784   6.705  11.799  0.00  0.00    +0.000 A 
ATOM      3  C   UNL     1      44.752   5.880  12.265  0.00  0.00    +0.000 A 
ATOM      4  C   UNL     1      44.283   4.819  11.484  0.00  0.00    +0.000 A 
ATOM      5  C   UNL     1      44.833   4.561  10.220  0.00  0.00    +0.000 A 
ATOM      6  C   UNL     1      45.871   5.379   9.759  0.00  0.00    +0.000 A 
ATOM      7  C   UNL     1      46.342   6.434  10.540  0.00  0.00    +0.000 A 
BRANCH   5   8
ATOM      8  C   UNL     1      44.293   3.452   9.345  0.00  0.00    +0.000 C 
BRANCH   8   9
ATOM      9  C   UNL     1      45.327   2.876   8.404  0.00  0.00    +0.000 A 
ATOM     10  C   UNL     1      45.780   3.613   7.299  0.00  0.00    +0.000 A 
ATOM     11  C   UNL     1      46.704   3.063   6.410  0.00  0.00    +0.000 A 
ATOM     12  C   UNL     1      47.187   1.772   6.613  0.00  0.00    +0.000 A 
ATOM     13  C   UNL     1      46.750   1.032   7.711  0.00  0.00    +0.000 A 
ATOM     14  C   UNL     1      45.823   1.580   8.600  0.00  0.00    +0.000 A 
ENDBRANCH   8   9
ENDBRANCH   5   8
ENDBRANCH   1   2
BRANCH   1  15
ATOM     15  N   UNL     1      46.890   7.378  13.832  0.00  0.00    +0.000 N 
ATOM     16  C   UNL     1      48.174   6.907  13.904  0.00  0.00    +0.000 C 
ATOM     17  O   UNL     1      48.949   6.944  12.954  0.00  0.00    +0.000 OA
ATOM     18  H   UNL     1      46.235   7.047  14.536  0.00  0.00    +0.000 HD
BRANCH  16  19
ATOM     19  C   UNL     1      48.598   6.415  15.220  0.00  0.00    +0.000 A 
ATOM     20  C   UNL     1      49.598   7.074  15.922  0.00  0.00    +0.000 A 
ATOM     21  S   UNL     1      49.942   6.371  17.439  0.00  0.00    +0.000 S 
ATOM     22  C   UNL     1      48.806   5.130  17.187  0.00  0.00    +0.000 A 
ATOM     23  N   UNL     1      48.630   4.139  18.100  0.00  0.00    +0.000 NA
ATOM     24  C   UNL     1      47.759   3.247  17.761  0.00  0.00    +0.000 A 
ATOM     25  N   UNL     1      47.036   3.266  16.595  0.00  0.00    +0.000 N 
ATOM     26  C   UNL     1      47.151   4.268  15.663  0.00  0.00    +0.000 A 
ATOM     27  O   UNL     1      46.449   4.296  14.659  0.00  0.00    +0.000 OA
ATOM     28  C   UNL     1      48.143   5.275  15.981  0.00  0.00    +0.000 A 
ATOM     29  H   UNL     1      46.351   2.551  16.397  0.00  0.00    +0.000 HD
ENDBRANCH  16  19
ENDBRANCH   1  15
BRANCH   1  30
ATOM     30  C   UNL     1      45.114   8.877  12.916  0.00  0.00    +0.000 C 
BRANCH  30  32
ATOM     31  N   UNL     1      45.531  11.161  12.178  0.00  0.00    +0.000 N 
ATOM     32  C   UNL     1      44.991   9.949  11.863  0.00  0.00    +0.000 C 
ATOM     33  O   UNL     1      44.417   9.781  10.792  0.00  0.00    +0.000 OA
ATOM     34  H   UNL     1      45.358  11.902  11.509  0.00  0.00    +0.000 HD
ATOM     35  H   UNL     1      45.670  11.433  13.143  0.00  0.00    +0.000 HD
ENDBRANCH  30  32
ENDBRANCH   1  30
TORSDOF 7
ENDMDL
MODEL 3
REMARK VINA RESULT:    -8.155      2.497      4.072
REMARK INTER + INTRA:         -13.050
REMARK INTER:                 -10.864
REMARK INTRA:                  -2.186
REMARK UNBOUND:                -1.557
REMARK  Name = 
REMARK  7 active torsions:
REMARK  status: ('A' for Active; 'I' for Inactive)
REMARK    1  A    between atoms: C_2  and  C_4
REMARK    2  A    between atoms: C_4  and  C_5
REMARK    3  A    between atoms: C_5  and  N_6
REMARK    4  A    between atoms: C_5  and  C_19
REMARK    5  A    between atoms: C_7  and  C_9
REMARK    6  A    between atoms: C_22  and  C_23
REMARK    7  A    between atoms: C_23  and  C_24
REMARK                            x       y       z     vdW  Elec       q    Type
REMARK                         _______ _______ _______ _____ _____    ______ ____
ROOT
ATOM      1  C   UNL     1      45.701   5.763  13.195  0.00  0.00    +0.000 C 
ENDROOT
BRANCH   1   2
ATOM      2  C   UNL     1      45.377   5.261  11.790  0.00  0.00    +0.000 A 
ATOM      3  C   UNL     1      45.956   5.857  10.662  0.00  0.00    +0.000 A 
ATOM      4  C   UNL     1      45.696   5.356   9.382  0.00  0.00    +0.000 A 
ATOM      5  C   UNL     1      44.854   4.249   9.203  0.00  0.00    +0.000 A 
ATOM      6  C   UNL     1      44.266   3.662  10.329  0.00  0.00    +0.000 A 
ATOM      7  C   UNL     1      44.522   4.163  11.604  0.00  0.00    +0.000 A 
BRANCH   5   8
ATOM      8  C   UNL     1      44.613   3.666   7.828  0.00  0.00    +0.000 C 
BRANCH   8   9
ATOM      9  C   UNL     1      45.791   2.879   7.298  0.00  0.00    +0.000 A 
ATOM     10  C   UNL     1      46.434   3.264   6.112  0.00  0.00    +0.000 A 
ATOM     11  C   UNL     1      47.495   2.512   5.604  0.00  0.00    +0.000 A 
ATOM     12  C   UNL     1      47.925   1.369   6.274  0.00  0.00    +0.000 A 
ATOM     13  C   UNL     1      47.298   0.979   7.457  0.00  0.00    +0.000 A 
ATOM     14  C   UNL     1      46.235   1.728   7.965  0.00  0.00    +0.000 A 
ENDBRANCH   8   9
ENDBRANCH   5   8
ENDBRANCH   1   2
BRANCH   1  15
ATOM     15  N   UNL     1      47.031   6.369  13.148  0.00  0.00    +0.000 N 
ATOM     16  C   UNL     1      47.278   7.713  13.244  0.00  0.00    +0.000 C 
ATOM     17  O   UNL     1      46.394   8.538  13.447  0.00  0.00    +0.000 OA
ATOM     18  H   UNL     1      47.739   5.799  12.690  0.00  0.00    +0.000 HD
BRANCH  16  19
ATOM     19  C   UNL     1      48.690   8.108  13.158  0.00  0.00    +0.000 A 
ATOM     20  C   UNL     1      49.144   8.839  12.069  0.00  0.00    +0.000 A 
ATOM     21  S   UNL     1      50.805   9.223  12.152  0.00  0.00    +0.000 S 
ATOM     22  C   UNL     1      50.986   8.379  13.619  0.00  0.00    +0.000 A 
ATOM     23  N   UNL     1      52.198   8.270  14.225  0.00  0.00    +0.000 NA
ATOM     24  C   UNL     1      52.191   7.574  15.313  0.00  0.00    +0.000 A 
ATOM     25  N   UNL     1      51.077   6.989  15.859  0.00  0.00    +0.000 N 
ATOM     26  C   UNL     1      49.826   7.106  15.303  0.00  0.00    +0.000 A 
ATOM     27  O   UNL     1      48.836   6.627  15.844  0.00  0.00    +0.000 OA
ATOM     28  C   UNL     1      49.787   7.849  14.059  0.00  0.00    +0.000 A 
ATOM     29  H   UNL     1      51.132   6.475  16.727  0.00  0.00    +0.000 HD
ENDBRANCH  16  19
ENDBRANCH   1  15
BRANCH   1  30
ATOM     30  C   UNL     1      45.598   4.636  14.234  0.00  0.00    +0.000 C 
BRANCH  30  32
ATOM     31  N   UNL     1      47.283   3.979  15.866  0.00  0.00    +0.000 N 
ATOM     32  C   UNL     1      46.940   4.025  14.547  0.00  0.00    +0.000 C 
ATOM     33  O   UNL     1      47.712   3.614  13.686  0.00  0.00    +0.000 OA
ATOM     34  H   UNL     1      48.225   3.659  16.060  0.00  0.00    +0.000 HD
ATOM     35  H   UNL     1      46.864   4.613  16.534  0.00  0.00    +0.000 HD
ENDBRANCH  30  32
ENDBRANCH   1  30
TORSDOF 7
ENDMDL
MODEL 4
REMARK VINA RESULT:    -7.945      2.960      5.414
REMARK INTER + INTRA:         -12.754
REMARK INTER:                 -10.846
REMARK INTRA:                  -1.908
REMARK UNBOUND:                -1.557
REMARK  Name = 
REMARK  7 active torsions:
REMARK  status: ('A' for Active; 'I' for Inactive)
REMARK    1  A    between atoms: C_2  and  C_4
REMARK    2  A    between atoms: C_4  and  C_5
REMARK    3  A    between atoms: C_5  and  N_6
REMARK    4  A    between atoms: C_5  and  C_19
REMARK    5  A    between atoms: C_7  and  C_9
REMARK    6  A    between atoms: C_22  and  C_23
REMARK    7  A    between atoms: C_23  and  C_24
REMARK                            x       y       z     vdW  Elec       q    Type
REMARK                         _______ _______ _______ _____ _____    ______ ____
ROOT
ATOM      1  C   UNL     1      47.183   5.417  14.533  0.00  0.00    +0.000 C 
ENDROOT
BRANCH   1   2
ATOM      2  C   UNL     1      46.405   5.080  13.264  0.00  0.00    +0.000 A 
ATOM      3  C   UNL     1      46.360   5.976  12.187  0.00  0.00    +0.000 A 
ATOM      4  C   UNL     1      45.690   5.635  11.007  0.00  0.00    +0.000 A 
ATOM      5  C   UNL     1      45.052   4.393  10.878  0.00  0.00    +0.000 A 
ATOM      6  C   UNL     1      45.087   3.503  11.958  0.00  0.00    +0.000 A 
ATOM      7  C   UNL     1      45.752   3.844  13.135  0.00  0.00    +0.000 A 
BRANCH   5   8
ATOM      8  C   UNL     1      44.375   3.995   9.586  0.00  0.00    +0.000 C 
BRANCH   8   9
ATOM      9  C   UNL     1      45.288   3.250   8.637  0.00  0.00    +0.000 A 
ATOM     10  C   UNL     1      45.496   1.870   8.779  0.00  0.00    +0.000 A 
ATOM     11  C   UNL     1      46.370   1.193   7.927  0.00  0.00    +0.000 A 
ATOM     12  C   UNL     1      47.046   1.886   6.925  0.00  0.00    +0.000 A 
ATOM     13  C   UNL     1      46.843   3.256   6.770  0.00  0.00    +0.000 A 
ATOM     14  C   UNL     1      45.971   3.935   7.622  0.00  0.00    +0.000 A 
ENDBRANCH   8   9
ENDBRANCH   5   8
ENDBRANCH   1   2
BRANCH   1  15
ATOM     15  N   UNL     1      48.348   6.209  14.136  0.00  0.00    +0.000 N 
ATOM     16  C   UNL     1      48.894   7.219  14.882  0.00  0.00    +0.000 C 
ATOM     17  O   UNL     1      48.488   7.512  16.002  0.00  0.00    +0.000 OA
ATOM     18  H   UNL     1      48.525   6.224  13.134  0.00  0.00    +0.000 HD
BRANCH  16  19
ATOM     19  C   UNL     1      50.054   7.893  14.287  0.00  0.00    +0.000 A 
ATOM     20  C   UNL     1      51.307   7.772  14.874  0.00  0.00    +0.000 A 
ATOM     21  S   UNL     1      52.536   8.606  14.033  0.00  0.00    +0.000 S 
ATOM     22  C   UNL     1      51.428   9.201  12.887  0.00  0.00    +0.000 A 
ATOM     23  N   UNL     1      51.824  10.041  11.895  0.00  0.00    +0.000 NA
ATOM     24  C   UNL     1      50.871  10.439  11.118  0.00  0.00    +0.000 A 
ATOM     25  N   UNL     1      49.557  10.061  11.238  0.00  0.00    +0.000 N 
ATOM     26  C   UNL     1      49.119   9.184  12.201  0.00  0.00    +0.000 A 
ATOM     27  O   UNL     1      47.953   8.812  12.247  0.00  0.00    +0.000 OA
ATOM     28  C   UNL     1      50.146   8.736  13.119  0.00  0.00    +0.000 A 
ATOM     29  H   UNL     1      48.860  10.389  10.585  0.00  0.00    +0.000 HD
ENDBRANCH  16  19
ENDBRANCH   1  15
BRANCH   1  30
ATOM     30  C   UNL     1      47.564   4.150  15.314  0.00  0.00    +0.000 C 
BRANCH  30  32
ATOM     31  N   UNL     1      47.221   5.306  17.432  0.00  0.00    +0.000 N 
ATOM     32  C   UNL     1      47.016   4.161  16.719  0.00  0.00    +0.000 C 
ATOM     33  O   UNL     1      46.446   3.202  17.229  0.00  0.00    +0.000 OA
ATOM     34  H   UNL     1      46.939   5.270  18.404  0.00  0.00    +0.000 HD
ATOM     35  H   UNL     1      47.973   5.940  17.192  0.00  0.00    +0.000 HD
ENDBRANCH  30  32
ENDBRANCH   1  30
TORSDOF 7
ENDMDL
MODEL 5
REMARK VINA RESULT:    -7.874      2.670      4.710
REMARK INTER + INTRA:         -12.654
REMARK INTER:                 -11.584
REMARK INTRA:                  -1.070
REMARK UNBOUND:                -1.557
REMARK  Name = 
REMARK  7 active torsions:
REMARK  status: ('A' for Active; 'I' for Inactive)
REMARK    1  A    between atoms: C_2  and  C_4
REMARK    2  A    between atoms: C_4  and  C_5
REMARK    3  A    between atoms: C_5  and  N_6
REMARK    4  A    between atoms: C_5  and  C_19
REMARK    5  A    between atoms: C_7  and  C_9
REMARK    6  A    between atoms: C_22  and  C_23
REMARK    7  A    between atoms: C_23  and  C_24
REMARK                            x       y       z     vdW  Elec       q    Type
REMARK                         _______ _______ _______ _____ _____    ______ ____
ROOT
ATOM      1  C   UNL     1      46.227   5.390  13.866  0.00  0.00    +0.000 C 
ENDROOT
BRANCH   1   2
ATOM      2  C   UNL     1      45.731   4.897  12.508  0.00  0.00    +0.000 A 
ATOM      3  C   UNL     1      45.771   5.729  11.382  0.00  0.00    +0.000 A 
ATOM      4  C   UNL     1      45.365   5.252  10.131  0.00  0.00    +0.000 A 
ATOM      5  C   UNL     1      44.913   3.933   9.979  0.00  0.00    +0.000 A 
ATOM      6  C   UNL     1      44.862   3.106  11.107  0.00  0.00    +0.000 A 
ATOM      7  C   UNL     1      45.263   3.583  12.354  0.00  0.00    +0.000 A 
BRANCH   5   8
ATOM      8  C   UNL     1      44.527   3.392   8.621  0.00  0.00    +0.000 C 
BRANCH   8   9
ATOM      9  C   UNL     1      45.677   2.735   7.890  0.00  0.00    +0.000 A 
ATOM     10  C   UNL     1      46.342   3.405   6.852  0.00  0.00    +0.000 A 
ATOM     11  C   UNL     1      47.376   2.781   6.152  0.00  0.00    +0.000 A 
ATOM     12  C   UNL     1      47.759   1.483   6.482  0.00  0.00    +0.000 A 
ATOM     13  C   UNL     1      47.111   0.809   7.517  0.00  0.00    +0.000 A 
ATOM     14  C   UNL     1      46.075   1.431   8.215  0.00  0.00    +0.000 A 
ENDBRANCH   8   9
ENDBRANCH   5   8
ENDBRANCH   1   2
BRANCH   1  15
ATOM     15  N   UNL     1      46.763   6.737  13.674  0.00  0.00    +0.000 N 
ATOM     16  C   UNL     1      48.043   7.015  13.272  0.00  0.00    +0.000 C 
ATOM     17  O   UNL     1      48.848   6.142  12.967  0.00  0.00    +0.000 OA
ATOM     18  H   UNL     1      46.270   7.465  14.185  0.00  0.00    +0.000 HD
BRANCH  16  19
ATOM     19  C   UNL     1      48.377   8.440  13.156  0.00  0.00    +0.000 A 
ATOM     20  C   UNL     1      48.509   9.025  11.903  0.00  0.00    +0.000 A 
ATOM     21  S   UNL     1      48.879  10.690  11.965  0.00  0.00    +0.000 S 
ATOM     22  C   UNL     1      48.930  10.674  13.667  0.00  0.00    +0.000 A 
ATOM     23  N   UNL     1      49.249  11.791  14.372  0.00  0.00    +0.000 NA
ATOM     24  C   UNL     1      49.281  11.624  15.653  0.00  0.00    +0.000 A 
ATOM     25  N   UNL     1      49.008  10.441  16.293  0.00  0.00    +0.000 N 
ATOM     26  C   UNL     1      48.643   9.299  15.623  0.00  0.00    +0.000 A 
ATOM     27  O   UNL     1      48.342   8.272  16.221  0.00  0.00    +0.000 OA
ATOM     28  C   UNL     1      48.627   9.426  14.179  0.00  0.00    +0.000 A 
ATOM     29  H   UNL     1      49.028  10.379  17.301  0.00  0.00    +0.000 HD
ENDBRANCH  16  19
ENDBRANCH   1  15
BRANCH   1  30
ATOM     30  C   UNL     1      47.253   4.422  14.476  0.00  0.00    +0.000 C 
BRANCH  30  32
ATOM     31  N   UNL     1      47.878   5.385  16.625  0.00  0.00    +0.000 N 
ATOM     32  C   UNL     1      47.188   4.399  15.982  0.00  0.00    +0.000 C 
ATOM     33  O   UNL     1      46.587   3.540  16.619  0.00  0.00    +0.000 OA
ATOM     34  H   UNL     1      47.911   5.305  17.634  0.00  0.00    +0.000 HD
ATOM     35  H   UNL     1      48.649   5.859  16.173  0.00  0.00    +0.000 HD
ENDBRANCH  30  32
ENDBRANCH   1  30
TORSDOF 7
ENDMDL
MODEL 6
REMARK VINA RESULT:    -7.669      5.070     11.283
REMARK INTER + INTRA:         -12.364
REMARK INTER:                 -10.970
REMARK INTRA:                  -1.394
REMARK UNBOUND:                -1.557
REMARK  Name = 
REMARK  7 active torsions:
REMARK  status: ('A' for Active; 'I' for Inactive)
REMARK    1  A    between atoms: C_2  and  C_4
REMARK    2  A    between atoms: C_4  and  C_5
REMARK    3  A    between atoms: C_5  and  N_6
REMARK    4  A    between atoms: C_5  and  C_19
REMARK    5  A    between atoms: C_7  and  C_9
REMARK    6  A    between atoms: C_22  and  C_23
REMARK    7  A    between atoms: C_23  and  C_24
REMARK                            x       y       z     vdW  Elec       q    Type
REMARK                         _______ _______ _______ _____ _____    ______ ____
ROOT
ATOM      1  C   UNL     1      48.171   4.533  16.214  0.00  0.00    +0.000 C 
ENDROOT
BRANCH   1   2
ATOM      2  C   UNL     1      48.080   5.511  17.384  0.00  0.00    +0.000 A 
ATOM      3  C   UNL     1      49.021   6.537  17.539  0.00  0.00    +0.000 A 
ATOM      4  C   UNL     1      48.898   7.461  18.582  0.00  0.00    +0.000 A 
ATOM      5  C   UNL     1      47.832   7.380  19.490  0.00  0.00    +0.000 A 
ATOM      6  C   UNL     1      46.899   6.348  19.340  0.00  0.00    +0.000 A 
ATOM      7  C   UNL     1      47.023   5.425  18.303  0.00  0.00    +0.000 A 
BRANCH   5   8
ATOM      8  C   UNL     1      47.661   8.409  20.585  0.00  0.00    +0.000 C 
BRANCH   8   9
ATOM      9  C   UNL     1      47.141   9.737  20.081  0.00  0.00    +0.000 A 
ATOM     10  C   UNL     1      47.743  10.373  18.985  0.00  0.00    +0.000 A 
ATOM     11  C   UNL     1      47.287  11.618  18.548  0.00  0.00    +0.000 A 
ATOM     12  C   UNL     1      46.225  12.240  19.199  0.00  0.00    +0.000 A 
ATOM     13  C   UNL     1      45.613  11.616  20.285  0.00  0.00    +0.000 A 
ATOM     14  C   UNL     1      46.070  10.372  20.726  0.00  0.00    +0.000 A 
ENDBRANCH   8   9
ENDBRANCH   5   8
ENDBRANCH   1   2
BRANCH   1  15
ATOM     15  N   UNL     1      47.219   4.976  15.197  0.00  0.00    +0.000 N 
ATOM     16  C   UNL     1      47.553   5.685  14.073  0.00  0.00    +0.000 C 
ATOM     17  O   UNL     1      48.713   5.959  13.782  0.00  0.00    +0.000 OA
ATOM     18  H   UNL     1      46.258   5.050  15.522  0.00  0.00    +0.000 HD
BRANCH  16  19
ATOM     19  C   UNL     1      46.436   6.041  13.190  0.00  0.00    +0.000 A 
ATOM     20  C   UNL     1      46.176   7.373  12.897  0.00  0.00    +0.000 A 
ATOM     21  S   UNL     1      44.854   7.592  11.840  0.00  0.00    +0.000 S 
ATOM     22  C   UNL     1      44.550   5.919  11.780  0.00  0.00    +0.000 A 
ATOM     23  N   UNL     1      43.502   5.418  11.075  0.00  0.00    +0.000 NA
ATOM     24  C   UNL     1      43.374   4.134  11.146  0.00  0.00    +0.000 A 
ATOM     25  N   UNL     1      44.210   3.304  11.849  0.00  0.00    +0.000 N 
ATOM     26  C   UNL     1      45.304   3.762  12.542  0.00  0.00    +0.000 A 
ATOM     27  O   UNL     1      46.072   2.994  13.110  0.00  0.00    +0.000 OA
ATOM     28  C   UNL     1      45.471   5.201  12.523  0.00  0.00    +0.000 A 
ATOM     29  H   UNL     1      44.071   2.304  11.848  0.00  0.00    +0.000 HD
ENDBRANCH  16  19
ENDBRANCH   1  15
BRANCH   1  30
ATOM     30  C   UNL     1      47.925   3.086  16.669  0.00  0.00    +0.000 C 
BRANCH  30  32
ATOM     31  N   UNL     1      49.911   2.515  17.960  0.00  0.00    +0.000 N 
ATOM     32  C   UNL     1      49.208   2.307  16.810  0.00  0.00    +0.000 C 
ATOM     33  O   UNL     1      49.635   1.549  15.945  0.00  0.00    +0.000 OA
ATOM     34  H   UNL     1      50.817   2.065  18.003  0.00  0.00    +0.000 HD
ATOM     35  H   UNL     1      49.790   3.364  18.496  0.00  0.00    +0.000 HD
ENDBRANCH  30  32
ENDBRANCH   1  30
TORSDOF 7
ENDMDL
MODEL 7
REMARK VINA RESULT:    -7.653      2.984      4.903
REMARK INTER + INTRA:         -12.342
REMARK INTER:                 -11.076
REMARK INTRA:                  -1.266
REMARK UNBOUND:                -1.557
REMARK  Name = 
REMARK  7 active torsions:
REMARK  status: ('A' for Active; 'I' for Inactive)
REMARK    1  A    between atoms: C_2  and  C_4
REMARK    2  A    between atoms: C_4  and  C_5
REMARK    3  A    between atoms: C_5  and  N_6
REMARK    4  A    between atoms: C_5  and  C_19
REMARK    5  A    between atoms: C_7  and  C_9
REMARK    6  A    between atoms: C_22  and  C_23
REMARK    7  A    between atoms: C_23  and  C_24
REMARK                            x       y       z     vdW  Elec       q    Type
REMARK                         _______ _______ _______ _____ _____    ______ ____
ROOT
ATOM      1  C   UNL     1      46.230   7.405  12.668  0.00  0.00    +0.000 C 
ENDROOT
BRANCH   1   2
ATOM      2  C   UNL     1      45.714   6.409  11.632  0.00  0.00    +0.000 A 
ATOM      3  C   UNL     1      46.306   6.316  10.366  0.00  0.00    +0.000 A 
ATOM      4  C   UNL     1      45.862   5.363   9.442  0.00  0.00    +0.000 A 
ATOM      5  C   UNL     1      44.821   4.482   9.766  0.00  0.00    +0.000 A 
ATOM      6  C   UNL     1      44.222   4.583  11.028  0.00  0.00    +0.000 A 
ATOM      7  C   UNL     1      44.662   5.535  11.946  0.00  0.00    +0.000 A 
BRANCH   5   8
ATOM      8  C   UNL     1      44.374   3.412   8.796  0.00  0.00    +0.000 C 
BRANCH   8   9
ATOM      9  C   UNL     1      45.518   2.785   8.029  0.00  0.00    +0.000 A 
ATOM     10  C   UNL     1      46.100   3.451   6.940  0.00  0.00    +0.000 A 
ATOM     11  C   UNL     1      47.128   2.853   6.209  0.00  0.00    +0.000 A 
ATOM     12  C   UNL     1      47.587   1.585   6.559  0.00  0.00    +0.000 A 
ATOM     13  C   UNL     1      47.022   0.916   7.644  0.00  0.00    +0.000 A 
ATOM     14  C   UNL     1      45.992   1.511   8.374  0.00  0.00    +0.000 A 
ENDBRANCH   8   9
ENDBRANCH   5   8
ENDBRANCH   1   2
BRANCH   1  15
ATOM     15  N   UNL     1      46.579   6.647  13.869  0.00  0.00    +0.000 N 
ATOM     16  C   UNL     1      47.780   6.019  14.072  0.00  0.00    +0.000 C 
ATOM     17  O   UNL     1      48.711   6.093  13.277  0.00  0.00    +0.000 OA
ATOM     18  H   UNL     1      45.781   6.303  14.398  0.00  0.00    +0.000 HD
BRANCH  16  19
ATOM     19  C   UNL     1      47.914   5.302  15.346  0.00  0.00    +0.000 A 
ATOM     20  C   UNL     1      47.310   4.063  15.515  0.00  0.00    +0.000 A 
ATOM     21  S   UNL     1      47.592   3.372  17.050  0.00  0.00    +0.000 S 
ATOM     22  C   UNL     1      48.485   4.728  17.561  0.00  0.00    +0.000 A 
ATOM     23  N   UNL     1      48.985   4.809  18.822  0.00  0.00    +0.000 NA
ATOM     24  C   UNL     1      49.612   5.909  19.079  0.00  0.00    +0.000 A 
ATOM     25  N   UNL     1      49.797   6.931  18.182  0.00  0.00    +0.000 N 
ATOM     26  C   UNL     1      49.343   6.876  16.887  0.00  0.00    +0.000 A 
ATOM     27  O   UNL     1      49.576   7.774  16.087  0.00  0.00    +0.000 OA
ATOM     28  C   UNL     1      48.601   5.675  16.559  0.00  0.00    +0.000 A 
ATOM     29  H   UNL     1      50.317   7.758  18.437  0.00  0.00    +0.000 HD
ENDBRANCH  16  19
ENDBRANCH   1  15
BRANCH   1  30
ATOM     30  C   UNL     1      45.203   8.515  12.942  0.00  0.00    +0.000 C 
BRANCH  30  32
ATOM     31  N   UNL     1      43.906   9.549  11.158  0.00  0.00    +0.000 N 
ATOM     32  C   UNL     1      45.107   9.497  11.802  0.00  0.00    +0.000 C 
ATOM     33  O   UNL     1      46.045  10.196  11.433  0.00  0.00    +0.000 OA
ATOM     34  H   UNL     1      43.880  10.137  10.334  0.00  0.00    +0.000 HD
ATOM     35  H   UNL     1      43.266   8.766  11.188  0.00  0.00    +0.000 HD
ENDBRANCH  30  32
ENDBRANCH   1  30
TORSDOF 7
ENDMDL
MODEL 8
REMARK VINA RESULT:    -7.604      3.793      6.508
REMARK INTER + INTRA:         -12.273
REMARK INTER:                 -10.270
REMARK INTRA:                  -2.002
REMARK UNBOUND:                -1.557
REMARK  Name = 
REMARK  7 active torsions:
REMARK  status: ('A' for Active; 'I' for Inactive)
REMARK    1  A    between atoms: C_2  and  C_4
REMARK    2  A    between atoms: C_4  and  C_5
REMARK    3  A    between atoms: C_5  and  N_6
REMARK    4  A    between atoms: C_5  and  C_19
REMARK    5  A    between atoms: C_7  and  C_9
REMARK    6  A    between atoms: C_22  and  C_23
REMARK    7  A    between atoms: C_23  and  C_24
REMARK                            x       y       z     vdW  Elec       q    Type
REMARK                         _______ _______ _______ _____ _____    ______ ____
ROOT
ATOM      1  C   UNL     1      47.992   7.470  13.936  0.00  0.00    +0.000 C 
ENDROOT
BRANCH   1   2
ATOM      2  C   UNL     1      46.990   6.726  13.055  0.00  0.00    +0.000 A 
ATOM      3  C   UNL     1      46.335   7.378  12.002  0.00  0.00    +0.000 A 
ATOM      4  C   UNL     1      45.460   6.675  11.167  0.00  0.00    +0.000 A 
ATOM      5  C   UNL     1      45.223   5.307  11.365  0.00  0.00    +0.000 A 
ATOM      6  C   UNL     1      45.869   4.659  12.425  0.00  0.00    +0.000 A 
ATOM      7  C   UNL     1      46.738   5.361  13.259  0.00  0.00    +0.000 A 
BRANCH   5   8
ATOM      8  C   UNL     1      44.323   4.528  10.432  0.00  0.00    +0.000 C 
BRANCH   8   9
ATOM      9  C   UNL     1      45.083   3.740   9.389  0.00  0.00    +0.000 A 
ATOM     10  C   UNL     1      45.792   4.396   8.371  0.00  0.00    +0.000 A 
ATOM     11  C   UNL     1      46.459   3.666   7.386  0.00  0.00    +0.000 A 
ATOM     12  C   UNL     1      46.427   2.274   7.406  0.00  0.00    +0.000 A 
ATOM     13  C   UNL     1      45.732   1.610   8.416  0.00  0.00    +0.000 A 
ATOM     14  C   UNL     1      45.062   2.338   9.400  0.00  0.00    +0.000 A 
ENDBRANCH   8   9
ENDBRANCH   5   8
ENDBRANCH   1   2
BRANCH   1  15
ATOM     15  N   UNL     1      47.969   6.838  15.255  0.00  0.00    +0.000 N 
ATOM     16  C   UNL     1      49.077   6.386  15.921  0.00  0.00    +0.000 C 
ATOM     17  O   UNL     1      50.216   6.532  15.491  0.00  0.00    +0.000 OA
ATOM     18  H   UNL     1      47.074   6.426  15.510  0.00  0.00    +0.000 HD
BRANCH  16  19
ATOM     19  C   UNL     1      48.824   5.771  17.230  0.00  0.00    +0.000 A 
ATOM     20  C   UNL     1      49.027   4.409  17.411  0.00  0.00    +0.000 A 
ATOM     21  S   UNL     1      48.703   3.878  19.001  0.00  0.00    +0.000 S 
ATOM     22  C   UNL     1      48.228   5.438  19.487  0.00  0.00    +0.000 A 
ATOM     23  N   UNL     1      47.776   5.677  20.746  0.00  0.00    +0.000 NA
ATOM     24  C   UNL     1      47.420   6.900  20.964  0.00  0.00    +0.000 A 
ATOM     25  N   UNL     1      47.489   7.910  20.038  0.00  0.00    +0.000 N 
ATOM     26  C   UNL     1      47.976   7.723  18.767  0.00  0.00    +0.000 A 
ATOM     27  O   UNL     1      48.087   8.655  17.979  0.00  0.00    +0.000 OA
ATOM     28  C   UNL     1      48.356   6.359  18.462  0.00  0.00    +0.000 A 
ATOM     29  H   UNL     1      47.216   8.853  20.276  0.00  0.00    +0.000 HD
ENDBRANCH  16  19
ENDBRANCH   1  15
BRANCH   1  30
ATOM     30  C   UNL     1      47.685   8.974  13.991  0.00  0.00    +0.000 C 
BRANCH  30  32
ATOM     31  N   UNL     1      48.455  10.541  15.692  0.00  0.00    +0.000 N 
ATOM     32  C   UNL     1      48.803   9.760  14.628  0.00  0.00    +0.000 C 
ATOM     33  O   UNL     1      49.959   9.744  14.218  0.00  0.00    +0.000 OA
ATOM     34  H   UNL     1      49.189  11.139  16.051  0.00  0.00    +0.000 HD
ATOM     35  H   UNL     1      47.501  10.854  15.815  0.00  0.00    +0.000 HD
ENDBRANCH  30  32
ENDBRANCH   1  30
TORSDOF 7
ENDMDL
MODEL 9
REMARK VINA RESULT:    -7.406      5.238     11.502
REMARK INTER + INTRA:         -11.994
REMARK INTER:                 -10.042
REMARK INTRA:                  -1.951
REMARK UNBOUND:                -1.557
REMARK  Name = 
REMARK  7 active torsions:
REMARK  status: ('A' for Active; 'I' for Inactive)
REMARK    1  A    between atoms: C_2  and  C_4
REMARK    2  A    between atoms: C_4  and  C_5
REMARK    3  A    between atoms: C_5  and  N_6
REMARK    4  A    between atoms: C_5  and  C_19
REMARK    5  A    between atoms: C_7  and  C_9
REMARK    6  A    between atoms: C_22  and  C_23
REMARK    7  A    between atoms: C_23  and  C_24
REMARK                            x       y       z     vdW  Elec       q    Type
REMARK                         _______ _______ _______ _____ _____    ______ ____
ROOT
ATOM      1  C   UNL     1      48.914   6.172  16.044  0.00  0.00    +0.000 C 
ENDROOT
BRANCH   1   2
ATOM      2  C   UNL     1      48.866   7.511  16.777  0.00  0.00    +0.000 A 
ATOM      3  C   UNL     1      48.265   8.632  16.189  0.00  0.00    +0.000 A 
ATOM      4  C   UNL     1      48.177   9.840  16.890  0.00  0.00    +0.000 A 
ATOM      5  C   UNL     1      48.685   9.952  18.192  0.00  0.00    +0.000 A 
ATOM      6  C   UNL     1      49.295   8.835  18.774  0.00  0.00    +0.000 A 
ATOM      7  C   UNL     1      49.386   7.633  18.074  0.00  0.00    +0.000 A 
BRANCH   5   8
ATOM      8  C   UNL     1      48.542  11.237  18.976  0.00  0.00    +0.000 C 
BRANCH   8   9
ATOM      9  C   UNL     1      47.141  11.467  19.496  0.00  0.00    +0.000 A 
ATOM     10  C   UNL     1      46.475  12.678  19.249  0.00  0.00    +0.000 A 
ATOM     11  C   UNL     1      45.198  12.903  19.764  0.00  0.00    +0.000 A 
ATOM     12  C   UNL     1      44.571  11.924  20.531  0.00  0.00    +0.000 A 
ATOM     13  C   UNL     1      45.218  10.715  20.778  0.00  0.00    +0.000 A 
ATOM     14  C   UNL     1      46.497  10.488  20.266  0.00  0.00    +0.000 A 
ENDBRANCH   8   9
ENDBRANCH   5   8
ENDBRANCH   1   2
BRANCH   1  15
ATOM     15  N   UNL     1      47.768   6.128  15.136  0.00  0.00    +0.000 N 
ATOM     16  C   UNL     1      47.858   6.147  13.769  0.00  0.00    +0.000 C 
ATOM     17  O   UNL     1      48.930   6.136  13.173  0.00  0.00    +0.000 OA
ATOM     18  H   UNL     1      46.891   6.438  15.547  0.00  0.00    +0.000 HD
BRANCH  16  19
ATOM     19  C   UNL     1      46.579   6.109  13.048  0.00  0.00    +0.000 A 
ATOM     20  C   UNL     1      46.002   7.286  12.590  0.00  0.00    +0.000 A 
ATOM     21  S   UNL     1      44.531   7.044  11.759  0.00  0.00    +0.000 S 
ATOM     22  C   UNL     1      44.587   5.365  12.030  0.00  0.00    +0.000 A 
ATOM     23  N   UNL     1      43.583   4.550  11.611  0.00  0.00    +0.000 NA
ATOM     24  C   UNL     1      43.744   3.304  11.915  0.00  0.00    +0.000 A 
ATOM     25  N   UNL     1      44.827   2.798  12.588  0.00  0.00    +0.000 N 
ATOM     26  C   UNL     1      45.883   3.578  12.994  0.00  0.00    +0.000 A 
ATOM     27  O   UNL     1      46.868   3.092  13.537  0.00  0.00    +0.000 OA
ATOM     28  C   UNL     1      45.733   4.991  12.708  0.00  0.00    +0.000 A 
ATOM     29  H   UNL     1      44.906   1.809  12.776  0.00  0.00    +0.000 HD
ENDBRANCH  16  19
ENDBRANCH   1  15
BRANCH   1  30
ATOM     30  C   UNL     1      48.939   4.992  17.028  0.00  0.00    +0.000 C 
BRANCH  30  32
ATOM     31  N   UNL     1      47.333   3.229  16.528  0.00  0.00    +0.000 N 
ATOM     32  C   UNL     1      47.574   4.380  17.218  0.00  0.00    +0.000 C 
ATOM     33  O   UNL     1      46.701   4.882  17.919  0.00  0.00    +0.000 OA
ATOM     34  H   UNL     1      46.384   2.879  16.583  0.00  0.00    +0.000 HD
ATOM     35  H   UNL     1      47.862   3.002  15.695  0.00  0.00    +0.000 HD
ENDBRANCH  30  32
ENDBRANCH   1  30
TORSDOF 7
ENDMDL
