MODEL 1
REMARK VINA RESULT:    -8.307      0.000      0.000
REMARK INTER + INTRA:         -12.428
REMARK INTER:                 -11.220
REMARK INTRA:                  -1.208
REMARK UNBOUND:                -1.208
REMARK  Name = 
REMARK  6 active torsions:
REMARK  status: ('A' for Active; 'I' for Inactive)
REMARK    1  A    between atoms: C_2  and  C_4
REMARK    2  A    between atoms: C_7  and  C_8
REMARK    3  A    between atoms: C_8  and  N_9
REMARK    4  A    between atoms: C_16  and  C_17
REMARK    5  A    between atoms: C_17  and  N_18
REMARK    6  A    between atoms: C_19  and  C_21
REMARK                            x       y       z     vdW  Elec       q    Type
REMARK                         _______ _______ _______ _____ _____    ______ ____
ROOT
ATOM      1  C   UNL     1      43.945   5.036  10.988  0.00  0.00    +0.000 A 
ATOM      2  C   UNL     1      43.833   3.849  10.245  0.00  0.00    +0.000 A 
ATOM      3  C   UNL     1      44.710   3.580   9.197  0.00  0.00    +0.000 A 
ATOM      4  C   UNL     1      45.695   4.504   8.848  0.00  0.00    +0.000 A 
ATOM      5  C   UNL     1      45.802   5.695   9.580  0.00  0.00    +0.000 A 
ATOM      6  C   UNL     1      44.951   5.971  10.668  0.00  0.00    +0.000 A 
ENDROOT
BRANCH   1   8
ATOM      7  N   UNL     1      41.937   6.155  11.785  0.00  0.00    +0.000 N 
ATOM      8  C   UNL     1      42.952   5.282  12.075  0.00  0.00    +0.000 C 
ATOM      9  O   UNL     1      43.030   4.741  13.169  0.00  0.00    +0.000 OA
ATOM     10  H   UNL     1      41.244   6.319  12.503  0.00  0.00    +0.000 HD
ATOM     11  H   UNL     1      41.761   6.511  10.859  0.00  0.00    +0.000 HD
ENDBRANCH   1   8
BRANCH   4  12
ATOM     12  C   UNL     1      46.657   4.203   7.723  0.00  0.00    +0.000 C 
BRANCH  12  13
ATOM     13  N   UNL     1      46.343   2.974   6.960  0.00  0.00    +0.000 NA
ATOM     14  C   UNL     1      46.709   3.146   5.543  0.00  0.00    +0.000 C 
ATOM     15  C   UNL     1      46.684   1.848   4.733  0.00  0.00    +0.000 C 
ATOM     16  C   UNL     1      47.531   0.776   5.399  0.00  0.00    +0.000 C 
ATOM     17  C   UNL     1      47.015   0.547   6.809  0.00  0.00    +0.000 C 
ATOM     18  C   UNL     1      47.032   1.846   7.611  0.00  0.00    +0.000 C 
ENDBRANCH  12  13
ENDBRANCH   4  12
BRANCH   6  19
ATOM     19  C   UNL     1      45.166   7.260  11.417  0.00  0.00    +0.000 C 
BRANCH  19  20
ATOM     20  N   UNL     1      45.962   7.056  12.596  0.00  0.00    +0.000 N 
ATOM     21  C   UNL     1      47.330   7.123  12.614  0.00  0.00    +0.000 C 
ATOM     22  O   UNL     1      47.996   7.488  11.648  0.00  0.00    +0.000 OA
ATOM     23  H   UNL     1      45.448   6.726  13.404  0.00  0.00    +0.000 HD
BRANCH  21  24
ATOM     24  C   UNL     1      47.949   6.787  13.896  0.00  0.00    +0.000 A 
ATOM     25  C   UNL     1      48.886   7.630  14.474  0.00  0.00    +0.000 A 
ATOM     26  S   UNL     1      49.442   7.081  15.992  0.00  0.00    +0.000 S 
ATOM     27  C   UNL     1      48.490   5.672  15.896  0.00  0.00    +0.000 A 
ATOM     28  N   UNL     1      48.506   4.742  16.890  0.00  0.00    +0.000 NA
ATOM     29  C   UNL     1      47.753   3.716  16.669  0.00  0.00    +0.000 A 
ATOM     30  N   UNL     1      46.991   3.532  15.544  0.00  0.00    +0.000 N 
ATOM     31  C   UNL     1      46.954   4.436  14.510  0.00  0.00    +0.000 A 
ATOM     32  O   UNL     1      46.290   4.215  13.506  0.00  0.00    +0.000 OA
ATOM     33  C   UNL     1      47.760   5.623  14.724  0.00  0.00    +0.000 A 
ATOM     34  H   UNL     1      46.433   2.700  15.422  0.00  0.00    +0.000 HD
ENDBRANCH  21  24
ENDBRANCH  19  20
ENDBRANCH   6  19
TORSDOF 6
ENDMDL
MODEL 2
REMARK VINA RESULT:    -7.962      4.122      9.820
REMARK INTER + INTRA:         -11.963
REMARK INTER:                 -11.187
REMARK INTRA:                  -0.776
REMARK UNBOUND:                -1.208
REMARK  Name = 
REMARK  6 active torsions:
REMARK  status: ('A' for Active; 'I' for Inactive)
REMARK    1  A    between atoms: C_2  and  C_4
REMARK    2  A    between atoms: C_7  and  C_8
REMARK    3  A    between atoms: C_8  and  N_9
REMARK    4  A    between atoms: C_16  and  C_17
REMARK    5  A    between atoms: C_17  and  N_18
REMARK    6  A    between atoms: C_19  and  C_21
REMARK                            x       y       z     vdW  Elec       q    Type
REMARK                         _______ _______ _______ _____ _____    ______ ____
ROOT
ATOM      1  C   UNL     1      49.929   3.451  17.428  0.00  0.00    +0.000 A 
ATOM      2  C   UNL     1      51.026   4.090  18.032  0.00  0.00    +0.000 A 
ATOM      3  C   UNL     1      50.919   5.398  18.498  0.00  0.00    +0.000 A 
ATOM      4  C   UNL     1      49.728   6.107  18.342  0.00  0.00    +0.000 A 
ATOM      5  C   UNL     1      48.635   5.475  17.729  0.00  0.00    +0.000 A 
ATOM      6  C   UNL     1      48.708   4.141  17.285  0.00  0.00    +0.000 A 
ENDROOT
BRANCH   1   8
ATOM      7  N   UNL     1      50.913   1.239  17.669  0.00  0.00    +0.000 N 
ATOM      8  C   UNL     1      50.119   2.062  16.916  0.00  0.00    +0.000 C 
ATOM      9  O   UNL     1      49.600   1.669  15.880  0.00  0.00    +0.000 OA
ATOM     10  H   UNL     1      51.038   0.288  17.347  0.00  0.00    +0.000 HD
ATOM     11  H   UNL     1      51.243   1.480  18.591  0.00  0.00    +0.000 HD
ENDBRANCH   1   8
BRANCH   4  12
ATOM     12  C   UNL     1      49.607   7.518  18.864  0.00  0.00    +0.000 C 
BRANCH  12  13
ATOM     13  N   UNL     1      48.318   7.818  19.528  0.00  0.00    +0.000 NA
ATOM     14  C   UNL     1      48.424   7.577  20.979  0.00  0.00    +0.000 C 
ATOM     15  C   UNL     1      47.242   8.119  21.786  0.00  0.00    +0.000 C 
ATOM     16  C   UNL     1      47.006   9.589  21.483  0.00  0.00    +0.000 C 
ATOM     17  C   UNL     1      46.766   9.752  19.991  0.00  0.00    +0.000 C 
ATOM     18  C   UNL     1      47.942   9.202  19.189  0.00  0.00    +0.000 C 
ENDBRANCH  12  13
ENDBRANCH   4  12
BRANCH   6  19
ATOM     19  C   UNL     1      47.472   3.538  16.672  0.00  0.00    +0.000 C 
BRANCH  19  20
ATOM     20  N   UNL     1      46.872   4.426  15.714  0.00  0.00    +0.000 N 
ATOM     21  C   UNL     1      46.864   4.198  14.364  0.00  0.00    +0.000 C 
ATOM     22  O   UNL     1      47.258   3.150  13.858  0.00  0.00    +0.000 OA
ATOM     23  H   UNL     1      46.562   5.313  16.092  0.00  0.00    +0.000 HD
BRANCH  21  24
ATOM     24  C   UNL     1      46.287   5.275  13.558  0.00  0.00    +0.000 A 
ATOM     25  C   UNL     1      46.944   6.488  13.420  0.00  0.00    +0.000 A 
ATOM     26  S   UNL     1      46.130   7.584  12.395  0.00  0.00    +0.000 S 
ATOM     27  C   UNL     1      44.848   6.491  12.149  0.00  0.00    +0.000 A 
ATOM     28  N   UNL     1      43.786   6.817  11.363  0.00  0.00    +0.000 NA
ATOM     29  C   UNL     1      42.879   5.900  11.289  0.00  0.00    +0.000 A 
ATOM     30  N   UNL     1      42.933   4.691  11.933  0.00  0.00    +0.000 N 
ATOM     31  C   UNL     1      43.977   4.324  12.748  0.00  0.00    +0.000 A 
ATOM     32  O   UNL     1      43.969   3.251  13.335  0.00  0.00    +0.000 OA
ATOM     33  C   UNL     1      45.039   5.308  12.840  0.00  0.00    +0.000 A 
ATOM     34  H   UNL     1      42.185   4.019  11.848  0.00  0.00    +0.000 HD
ENDBRANCH  21  24
ENDBRANCH  19  20
ENDBRANCH   6  19
TORSDOF 6
ENDMDL
MODEL 3
REMARK VINA RESULT:    -7.852      1.606      2.634
REMARK INTER + INTRA:         -11.814
REMARK INTER:                 -11.503
REMARK INTRA:                  -0.312
REMARK UNBOUND:                -1.208
REMARK  Name = 
REMARK  6 active torsions:
REMARK  status: ('A' for Active; 'I' for Inactive)
REMARK    1  A    between atoms: C_2  and  C_4
REMARK    2  A    between atoms: C_7  and  C_8
REMARK    3  A    between atoms: C_8  and  N_9
REMARK    4  A    between atoms: C_16  and  C_17
REMARK    5  A    between atoms: C_17  and  N_18
REMARK    6  A    between atoms: C_19  and  C_21
REMARK                            x       y       z     vdW  Elec       q    Type
REMARK                         _______ _______ _______ _____ _____    ______ ____
ROOT
ATOM      1  C   UNL     1      45.170   5.795  11.076  0.00  0.00    +0.000 A 
ATOM      2  C   UNL     1      45.445   5.845   9.698  0.00  0.00    +0.000 A 
ATOM      3  C   UNL     1      45.538   4.675   8.948  0.00  0.00    +0.000 A 
ATOM      4  C   UNL     1      45.391   3.430   9.563  0.00  0.00    +0.000 A 
ATOM      5  C   UNL     1      45.127   3.377  10.939  0.00  0.00    +0.000 A 
ATOM      6  C   UNL     1      44.992   4.548  11.710  0.00  0.00    +0.000 A 
ENDROOT
BRANCH   1   8
ATOM      7  N   UNL     1      43.974   7.819  11.701  0.00  0.00    +0.000 N 
ATOM      8  C   UNL     1      45.121   7.082  11.830  0.00  0.00    +0.000 C 
ATOM      9  O   UNL     1      46.049   7.469  12.526  0.00  0.00    +0.000 OA
ATOM     10  H   UNL     1      43.915   8.685  12.220  0.00  0.00    +0.000 HD
ATOM     11  H   UNL     1      43.140   7.472  11.252  0.00  0.00    +0.000 HD
ENDBRANCH   1   8
BRANCH   4  12
ATOM     12  C   UNL     1      45.473   2.163   8.746  0.00  0.00    +0.000 C 
BRANCH  12  13
ATOM     13  N   UNL     1      46.525   2.173   7.704  0.00  0.00    +0.000 NA
ATOM     14  C   UNL     1      46.806   0.799   7.250  0.00  0.00    +0.000 C 
ATOM     15  C   UNL     1      47.670   0.725   5.989  0.00  0.00    +0.000 C 
ATOM     16  C   UNL     1      47.073   1.567   4.873  0.00  0.00    +0.000 C 
ATOM     17  C   UNL     1      46.937   3.001   5.356  0.00  0.00    +0.000 C 
ATOM     18  C   UNL     1      46.084   3.069   6.620  0.00  0.00    +0.000 C 
ENDBRANCH  12  13
ENDBRANCH   4  12
BRANCH   6  19
ATOM     19  C   UNL     1      44.673   4.391  13.173  0.00  0.00    +0.000 C 
BRANCH  19  20
ATOM     20  N   UNL     1      45.679   5.003  13.999  0.00  0.00    +0.000 N 
ATOM     21  C   UNL     1      46.825   4.370  14.399  0.00  0.00    +0.000 C 
ATOM     22  O   UNL     1      47.161   3.263  13.984  0.00  0.00    +0.000 OA
ATOM     23  H   UNL     1      45.423   5.905  14.383  0.00  0.00    +0.000 HD
BRANCH  21  24
ATOM     24  C   UNL     1      47.668   5.137  15.317  0.00  0.00    +0.000 A 
ATOM     25  C   UNL     1      48.442   6.192  14.857  0.00  0.00    +0.000 A 
ATOM     26  S   UNL     1      49.305   6.987  16.097  0.00  0.00    +0.000 S 
ATOM     27  C   UNL     1      48.714   5.910  17.277  0.00  0.00    +0.000 A 
ATOM     28  N   UNL     1      49.082   6.026  18.582  0.00  0.00    +0.000 NA
ATOM     29  C   UNL     1      48.575   5.126  19.358  0.00  0.00    +0.000 A 
ATOM     30  N   UNL     1      47.741   4.118  18.949  0.00  0.00    +0.000 N 
ATOM     31  C   UNL     1      47.355   3.954  17.640  0.00  0.00    +0.000 A 
ATOM     32  O   UNL     1      46.639   3.018  17.309  0.00  0.00    +0.000 OA
ATOM     33  C   UNL     1      47.872   4.960  16.732  0.00  0.00    +0.000 A 
ATOM     34  H   UNL     1      47.388   3.434  19.601  0.00  0.00    +0.000 HD
ENDBRANCH  21  24
ENDBRANCH  19  20
ENDBRANCH   6  19
TORSDOF 6
ENDMDL
MODEL 4
REMARK VINA RESULT:    -7.648      1.703      2.413
REMARK INTER + INTRA:         -11.538
REMARK INTER:                 -10.644
REMARK INTRA:                  -0.894
REMARK UNBOUND:                -1.208
REMARK  Name = 
REMARK  6 active torsions:
REMARK  status: ('A' for Active; 'I' for Inactive)
REMARK    1  A    between atoms: C_2  and  C_4
REMARK    2  A    between atoms: C_7  and  C_8
REMARK    3  A    between atoms: C_8  and  N_9
REMARK    4  A    between atoms: C_16  and  C_17
REMARK    5  A    between atoms: C_17  and  N_18
REMARK    6  A    between atoms: C_19  and  C_21
REMARK                            x       y       z     vdW  Elec       q    Type
REMARK                         _______ _______ _______ _____ _____    ______ ____
ROOT
ATOM      1  C   UNL     1      44.791   7.209  11.468  0.00  0.00    +0.000 A 
ATOM      2  C   UNL     1      43.535   6.645  11.184  0.00  0.00    +0.000 A 
ATOM      3  C   UNL     1      43.426   5.318  10.776  0.00  0.00    +0.000 A 
ATOM      4  C   UNL     1      44.570   4.536  10.609  0.00  0.00    +0.000 A 
ATOM      5  C   UNL     1      45.825   5.099  10.881  0.00  0.00    +0.000 A 
ATOM      6  C   UNL     1      45.956   6.427  11.331  0.00  0.00    +0.000 A 
ENDROOT
BRANCH   1   8
ATOM      7  N   UNL     1      45.075   8.903  13.190  0.00  0.00    +0.000 N 
ATOM      8  C   UNL     1      44.843   8.646  11.866  0.00  0.00    +0.000 C 
ATOM      9  O   UNL     1      44.686   9.554  11.061  0.00  0.00    +0.000 OA
ATOM     10  H   UNL     1      45.132   9.873  13.475  0.00  0.00    +0.000 HD
ATOM     11  H   UNL     1      45.344   8.193  13.853  0.00  0.00    +0.000 HD
ENDBRANCH   1   8
BRANCH   4  12
ATOM     12  C   UNL     1      44.450   3.092  10.184  0.00  0.00    +0.000 C 
BRANCH  12  13
ATOM     13  N   UNL     1      44.907   2.821   8.802  0.00  0.00    +0.000 NA
ATOM     14  C   UNL     1      45.568   4.013   8.240  0.00  0.00    +0.000 C 
ATOM     15  C   UNL     1      46.317   3.750   6.932  0.00  0.00    +0.000 C 
ATOM     16  C   UNL     1      47.293   2.596   7.089  0.00  0.00    +0.000 C 
ATOM     17  C   UNL     1      46.529   1.361   7.536  0.00  0.00    +0.000 C 
ATOM     18  C   UNL     1      45.775   1.631   8.836  0.00  0.00    +0.000 C 
ENDBRANCH  12  13
ENDBRANCH   4  12
BRANCH   6  19
ATOM     19  C   UNL     1      47.343   6.932  11.631  0.00  0.00    +0.000 C 
BRANCH  19  20
ATOM     20  N   UNL     1      47.823   6.433  12.891  0.00  0.00    +0.000 N 
ATOM     21  C   UNL     1      48.041   7.220  13.990  0.00  0.00    +0.000 C 
ATOM     22  O   UNL     1      47.727   8.407  14.039  0.00  0.00    +0.000 OA
ATOM     23  H   UNL     1      48.120   5.464  12.879  0.00  0.00    +0.000 HD
BRANCH  21  24
ATOM     24  C   UNL     1      48.625   6.529  15.140  0.00  0.00    +0.000 A 
ATOM     25  C   UNL     1      49.787   6.997  15.735  0.00  0.00    +0.000 A 
ATOM     26  S   UNL     1      50.266   6.080  17.093  0.00  0.00    +0.000 S 
ATOM     27  C   UNL     1      48.967   4.997  16.893  0.00  0.00    +0.000 A 
ATOM     28  N   UNL     1      48.793   3.943  17.736  0.00  0.00    +0.000 NA
ATOM     29  C   UNL     1      47.781   3.194  17.447  0.00  0.00    +0.000 A 
ATOM     30  N   UNL     1      46.930   3.399  16.392  0.00  0.00    +0.000 N 
ATOM     31  C   UNL     1      47.075   4.441  15.508  0.00  0.00    +0.000 A 
ATOM     32  O   UNL     1      46.316   4.568  14.556  0.00  0.00    +0.000 OA
ATOM     33  C   UNL     1      48.180   5.332  15.806  0.00  0.00    +0.000 A 
ATOM     34  H   UNL     1      46.164   2.769  16.208  0.00  0.00    +0.000 HD
ENDBRANCH  21  24
ENDBRANCH  19  20
ENDBRANCH   6  19
TORSDOF 6
ENDMDL
MODEL 5
REMARK VINA RESULT:    -7.579      4.533      9.526
REMARK INTER + INTRA:         -11.445
REMARK INTER:                 -10.081
REMARK INTRA:                  -1.364
REMARK UNBOUND:                -1.208
REMARK  Name = 
REMARK  6 active torsions:
REMARK  status: ('A' for Active; 'I' for Inactive)
REMARK    1  A    between atoms: C_2  and  C_4
REMARK    2  A    between atoms: C_7  and  C_8
REMARK    3  A    between atoms: C_8  and  N_9
REMARK    4  A    between atoms: C_16  and  C_17
REMARK    5  A    between atoms: C_17  and  N_18
REMARK    6  A    between atoms: C_19  and  C_21
REMARK                            x       y       z     vdW  Elec       q    Type
REMARK                         _______ _______ _______ _____ _____    ______ ____
ROOT
ATOM      1  C   UNL     1      50.206   3.447  17.421  0.00  0.00    +0.000 A 
ATOM      2  C   UNL     1      51.387   4.075  17.852  0.00  0.00    +0.000 A 
ATOM      3  C   UNL     1      51.377   5.406  18.262  0.00  0.00    +0.000 A 
ATOM      4  C   UNL     1      50.196   6.148  18.218  0.00  0.00    +0.000 A 
ATOM      5  C   UNL     1      49.018   5.527  17.778  0.00  0.00    +0.000 A 
ATOM      6  C   UNL     1      48.997   4.172  17.395  0.00  0.00    +0.000 A 
ENDROOT
BRANCH   1   8
ATOM      7  N   UNL     1      50.985   1.169  17.766  0.00  0.00    +0.000 N 
ATOM      8  C   UNL     1      50.291   2.030  16.960  0.00  0.00    +0.000 C 
ATOM      9  O   UNL     1      49.774   1.648  15.919  0.00  0.00    +0.000 OA
ATOM     10  H   UNL     1      51.038   0.200  17.479  0.00  0.00    +0.000 HD
ATOM     11  H   UNL     1      51.305   1.412  18.691  0.00  0.00    +0.000 HD
ENDBRANCH   1   8
BRANCH   4  12
ATOM     12  C   UNL     1      50.181   7.586  18.680  0.00  0.00    +0.000 C 
BRANCH  12  13
ATOM     13  N   UNL     1      48.872   8.262  18.538  0.00  0.00    +0.000 NA
ATOM     14  C   UNL     1      48.252   8.456  19.861  0.00  0.00    +0.000 C 
ATOM     15  C   UNL     1      47.038   9.387  19.848  0.00  0.00    +0.000 C 
ATOM     16  C   UNL     1      47.380  10.716  19.195  0.00  0.00    +0.000 C 
ATOM     17  C   UNL     1      47.881  10.457  17.784  0.00  0.00    +0.000 C 
ATOM     18  C   UNL     1      49.087   9.519  17.801  0.00  0.00    +0.000 C 
ENDBRANCH  12  13
ENDBRANCH   4  12
BRANCH   6  19
ATOM     19  C   UNL     1      47.677   3.584  16.970  0.00  0.00    +0.000 C 
BRANCH  19  20
ATOM     20  N   UNL     1      47.035   4.397  15.974  0.00  0.00    +0.000 N 
ATOM     21  C   UNL     1      46.977   4.071  14.645  0.00  0.00    +0.000 C 
ATOM     22  O   UNL     1      47.360   2.992  14.202  0.00  0.00    +0.000 OA
ATOM     23  H   UNL     1      46.732   5.308  16.299  0.00  0.00    +0.000 HD
BRANCH  21  24
ATOM     24  C   UNL     1      46.363   5.084  13.786  0.00  0.00    +0.000 A 
ATOM     25  C   UNL     1      45.134   4.855  13.185  0.00  0.00    +0.000 A 
ATOM     26  S   UNL     1      44.572   6.183  12.271  0.00  0.00    +0.000 S 
ATOM     27  C   UNL     1      45.979   7.083  12.605  0.00  0.00    +0.000 A 
ATOM     28  N   UNL     1      46.149   8.336  12.102  0.00  0.00    +0.000 NA
ATOM     29  C   UNL     1      47.274   8.886  12.418  0.00  0.00    +0.000 A 
ATOM     30  N   UNL     1      48.246   8.298  13.185  0.00  0.00    +0.000 N 
ATOM     31  C   UNL     1      48.124   7.030  13.702  0.00  0.00    +0.000 A 
ATOM     32  O   UNL     1      49.032   6.526  14.350  0.00  0.00    +0.000 OA
ATOM     33  C   UNL     1      46.863   6.379  13.401  0.00  0.00    +0.000 A 
ATOM     34  H   UNL     1      49.112   8.774  13.386  0.00  0.00    +0.000 HD
ENDBRANCH  21  24
ENDBRANCH  19  20
ENDBRANCH   6  19
TORSDOF 6
ENDMDL
MODEL 6
REMARK VINA RESULT:    -7.517      4.032      9.710
REMARK INTER + INTRA:         -11.361
REMARK INTER:                 -10.123
REMARK INTRA:                  -1.238
REMARK UNBOUND:                -1.208
REMARK  Name = 
REMARK  6 active torsions:
REMARK  status: ('A' for Active; 'I' for Inactive)
REMARK    1  A    between atoms: C_2  and  C_4
REMARK    2  A    between atoms: C_7  and  C_8
REMARK    3  A    between atoms: C_8  and  N_9
REMARK    4  A    between atoms: C_16  and  C_17
REMARK    5  A    between atoms: C_17  and  N_18
REMARK    6  A    between atoms: C_19  and  C_21
REMARK                            x       y       z     vdW  Elec       q    Type
REMARK                         _______ _______ _______ _____ _____    ______ ____
ROOT
ATOM      1  C   UNL     1      48.196   5.292  17.715  0.00  0.00    +0.000 A 
ATOM      2  C   UNL     1      47.851   5.305  19.077  0.00  0.00    +0.000 A 
ATOM      3  C   UNL     1      47.846   6.496  19.799  0.00  0.00    +0.000 A 
ATOM      4  C   UNL     1      48.216   7.694  19.185  0.00  0.00    +0.000 A 
ATOM      5  C   UNL     1      48.572   7.682  17.829  0.00  0.00    +0.000 A 
ATOM      6  C   UNL     1      48.548   6.496  17.070  0.00  0.00    +0.000 A 
ENDROOT
BRANCH   1   8
ATOM      7  N   UNL     1      47.004   3.458  16.651  0.00  0.00    +0.000 N 
ATOM      8  C   UNL     1      48.219   3.978  17.007  0.00  0.00    +0.000 C 
ATOM      9  O   UNL     1      49.260   3.388  16.756  0.00  0.00    +0.000 OA
ATOM     10  H   UNL     1      47.001   2.577  16.154  0.00  0.00    +0.000 HD
ATOM     11  H   UNL     1      46.140   3.974  16.716  0.00  0.00    +0.000 HD
ENDBRANCH   1   8
BRANCH   4  12
ATOM     12  C   UNL     1      48.192   8.988  19.963  0.00  0.00    +0.000 C 
BRANCH  12  13
ATOM     13  N   UNL     1      47.147   9.943  19.531  0.00  0.00    +0.000 NA
ATOM     14  C   UNL     1      46.243  10.252  20.654  0.00  0.00    +0.000 C 
ATOM     15  C   UNL     1      45.305  11.432  20.390  0.00  0.00    +0.000 C 
ATOM     16  C   UNL     1      46.088  12.660  19.953  0.00  0.00    +0.000 C 
ATOM     17  C   UNL     1      46.891  12.315  18.711  0.00  0.00    +0.000 C 
ATOM     18  C   UNL     1      47.818  11.131  18.975  0.00  0.00    +0.000 C 
ENDBRANCH  12  13
ENDBRANCH   4  12
BRANCH   6  19
ATOM     19  C   UNL     1      48.911   6.589  15.611  0.00  0.00    +0.000 C 
BRANCH  19  20
ATOM     20  N   UNL     1      47.768   6.367  14.769  0.00  0.00    +0.000 N 
ATOM     21  C   UNL     1      47.841   6.200  13.412  0.00  0.00    +0.000 C 
ATOM     22  O   UNL     1      48.904   6.099  12.805  0.00  0.00    +0.000 OA
ATOM     23  H   UNL     1      46.872   6.472  15.231  0.00  0.00    +0.000 HD
BRANCH  21  24
ATOM     24  C   UNL     1      46.551   6.085  12.732  0.00  0.00    +0.000 A 
ATOM     25  C   UNL     1      45.922   7.205  12.209  0.00  0.00    +0.000 A 
ATOM     26  S   UNL     1      44.457   6.844  11.409  0.00  0.00    +0.000 S 
ATOM     27  C   UNL     1      44.591   5.189  11.786  0.00  0.00    +0.000 A 
ATOM     28  N   UNL     1      43.638   4.299  11.398  0.00  0.00    +0.000 NA
ATOM     29  C   UNL     1      43.861   3.083  11.776  0.00  0.00    +0.000 A 
ATOM     30  N   UNL     1      44.945   2.678  12.512  0.00  0.00    +0.000 N 
ATOM     31  C   UNL     1      45.924   3.543  12.938  0.00  0.00    +0.000 A 
ATOM     32  O   UNL     1      46.856   3.148  13.626  0.00  0.00    +0.000 OA
ATOM     33  C   UNL     1      45.736   4.917  12.512  0.00  0.00    +0.000 A 
ATOM     34  H   UNL     1      45.057   1.715  12.790  0.00  0.00    +0.000 HD
ENDBRANCH  21  24
ENDBRANCH  19  20
ENDBRANCH   6  19
TORSDOF 6
ENDMDL
MODEL 7
REMARK VINA RESULT:    -7.452      2.406      4.220
REMARK INTER + INTRA:         -11.273
REMARK INTER:                  -9.767
REMARK INTRA:                  -1.506
REMARK UNBOUND:                -1.208
REMARK  Name = 
REMARK  6 active torsions:
REMARK  status: ('A' for Active; 'I' for Inactive)
REMARK    1  A    between atoms: C_2  and  C_4
REMARK    2  A    between atoms: C_7  and  C_8
REMARK    3  A    between atoms: C_8  and  N_9
REMARK    4  A    between atoms: C_16  and  C_17
REMARK    5  A    between atoms: C_17  and  N_18
REMARK    6  A    between atoms: C_19  and  C_21
REMARK                            x       y       z     vdW  Elec       q    Type
REMARK                         _______ _______ _______ _____ _____    ______ ____
ROOT
ATOM      1  C   UNL     1      47.015   8.930  12.157  0.00  0.00    +0.000 A 
ATOM      2  C   UNL     1      45.653   9.031  11.824  0.00  0.00    +0.000 A 
ATOM      3  C   UNL     1      44.884   7.888  11.620  0.00  0.00    +0.000 A 
ATOM      4  C   UNL     1      45.465   6.623  11.711  0.00  0.00    +0.000 A 
ATOM      5  C   UNL     1      46.826   6.519  12.032  0.00  0.00    +0.000 A 
ATOM      6  C   UNL     1      47.614   7.660  12.280  0.00  0.00    +0.000 A 
ENDROOT
BRANCH   1   8
ATOM      7  N   UNL     1      47.947  10.645  13.609  0.00  0.00    +0.000 N 
ATOM      8  C   UNL     1      47.793  10.193  12.326  0.00  0.00    +0.000 C 
ATOM      9  O   UNL     1      48.269  10.801  11.377  0.00  0.00    +0.000 OA
ATOM     10  H   UNL     1      48.488  11.490  13.744  0.00  0.00    +0.000 HD
ATOM     11  H   UNL     1      47.691  10.106  14.421  0.00  0.00    +0.000 HD
ENDBRANCH   1   8
BRANCH   4  12
ATOM     12  C   UNL     1      44.626   5.383  11.508  0.00  0.00    +0.000 C 
BRANCH  12  13
ATOM     13  N   UNL     1      45.205   4.400  10.564  0.00  0.00    +0.000 NA
ATOM     14  C   UNL     1      44.282   3.265  10.382  0.00  0.00    +0.000 C 
ATOM     15  C   UNL     1      44.658   2.339   9.223  0.00  0.00    +0.000 C 
ATOM     16  C   UNL     1      44.832   3.126   7.934  0.00  0.00    +0.000 C 
ATOM     17  C   UNL     1      45.895   4.191   8.146  0.00  0.00    +0.000 C 
ATOM     18  C   UNL     1      45.521   5.106   9.310  0.00  0.00    +0.000 C 
ENDBRANCH  12  13
ENDBRANCH   4  12
BRANCH   6  19
ATOM     19  C   UNL     1      49.057   7.448  12.653  0.00  0.00    +0.000 C 
BRANCH  19  20
ATOM     20  N   UNL     1      49.180   6.692  13.870  0.00  0.00    +0.000 N 
ATOM     21  C   UNL     1      49.050   7.235  15.120  0.00  0.00    +0.000 C 
ATOM     22  O   UNL     1      48.692   8.394  15.315  0.00  0.00    +0.000 OA
ATOM     23  H   UNL     1      49.503   5.740  13.749  0.00  0.00    +0.000 HD
BRANCH  21  24
ATOM     24  C   UNL     1      49.310   6.311  16.226  0.00  0.00    +0.000 A 
ATOM     25  C   UNL     1      50.386   6.508  17.077  0.00  0.00    +0.000 A 
ATOM     26  S   UNL     1      50.475   5.351  18.330  0.00  0.00    +0.000 S 
ATOM     27  C   UNL     1      49.111   4.521  17.739  0.00  0.00    +0.000 A 
ATOM     28  N   UNL     1      48.646   3.402  18.358  0.00  0.00    +0.000 NA
ATOM     29  C   UNL     1      47.620   2.865  17.784  0.00  0.00    +0.000 A 
ATOM     30  N   UNL     1      47.021   3.342  16.647  0.00  0.00    +0.000 N 
ATOM     31  C   UNL     1      47.464   4.460  15.981  0.00  0.00    +0.000 A 
ATOM     32  O   UNL     1      46.924   4.831  14.947  0.00  0.00    +0.000 OA
ATOM     33  C   UNL     1      48.596   5.118  16.604  0.00  0.00    +0.000 A 
ATOM     34  H   UNL     1      46.229   2.870  16.236  0.00  0.00    +0.000 HD
ENDBRANCH  21  24
ENDBRANCH  19  20
ENDBRANCH   6  19
TORSDOF 6
ENDMDL
MODEL 8
REMARK VINA RESULT:    -7.398      3.710      5.909
REMARK INTER + INTRA:         -11.201
REMARK INTER:                 -10.054
REMARK INTRA:                  -1.147
REMARK UNBOUND:                -1.208
REMARK  Name = 
REMARK  6 active torsions:
REMARK  status: ('A' for Active; 'I' for Inactive)
REMARK    1  A    between atoms: C_2  and  C_4
REMARK    2  A    between atoms: C_7  and  C_8
REMARK    3  A    between atoms: C_8  and  N_9
REMARK    4  A    between atoms: C_16  and  C_17
REMARK    5  A    between atoms: C_17  and  N_18
REMARK    6  A    between atoms: C_19  and  C_21
REMARK                            x       y       z     vdW  Elec       q    Type
REMARK                         _______ _______ _______ _____ _____    ______ ____
ROOT
ATOM      1  C   UNL     1      45.553   4.654  12.306  0.00  0.00    +0.000 A 
ATOM      2  C   UNL     1      45.449   5.751  11.434  0.00  0.00    +0.000 A 
ATOM      3  C   UNL     1      46.210   6.899  11.641  0.00  0.00    +0.000 A 
ATOM      4  C   UNL     1      47.066   6.988  12.740  0.00  0.00    +0.000 A 
ATOM      5  C   UNL     1      47.164   5.899  13.617  0.00  0.00    +0.000 A 
ATOM      6  C   UNL     1      46.431   4.714  13.407  0.00  0.00    +0.000 A 
ENDROOT
BRANCH   1   8
ATOM      7  N   UNL     1      44.937   2.762  10.905  0.00  0.00    +0.000 N 
ATOM      8  C   UNL     1      44.682   3.468  12.050  0.00  0.00    +0.000 C 
ATOM      9  O   UNL     1      43.786   3.137  12.814  0.00  0.00    +0.000 OA
ATOM     10  H   UNL     1      44.369   1.945  10.725  0.00  0.00    +0.000 HD
ATOM     11  H   UNL     1      45.747   2.920  10.326  0.00  0.00    +0.000 HD
ENDBRANCH   1   8
BRANCH   4  12
ATOM     12  C   UNL     1      47.905   8.225  12.954  0.00  0.00    +0.000 C 
BRANCH  12  13
ATOM     13  N   UNL     1      48.801   8.561  11.823  0.00  0.00    +0.000 NA
ATOM     14  C   UNL     1      49.068  10.011  11.797  0.00  0.00    +0.000 C 
ATOM     15  C   UNL     1      50.195  10.418  10.845  0.00  0.00    +0.000 C 
ATOM     16  C   UNL     1      51.460   9.625  11.132  0.00  0.00    +0.000 C 
ATOM     17  C   UNL     1      51.151   8.143  11.006  0.00  0.00    +0.000 C 
ATOM     18  C   UNL     1      50.020   7.743  11.950  0.00  0.00    +0.000 C 
ENDBRANCH  12  13
ENDBRANCH   4  12
BRANCH   6  19
ATOM     19  C   UNL     1      46.629   3.585  14.383  0.00  0.00    +0.000 C 
BRANCH  19  20
ATOM     20  N   UNL     1      47.691   3.870  15.309  0.00  0.00    +0.000 N 
ATOM     21  C   UNL     1      47.575   3.738  16.667  0.00  0.00    +0.000 C 
ATOM     22  O   UNL     1      46.590   3.244  17.211  0.00  0.00    +0.000 OA
ATOM     23  H   UNL     1      48.508   4.305  14.898  0.00  0.00    +0.000 HD
BRANCH  21  24
ATOM     24  C   UNL     1      48.743   4.174  17.433  0.00  0.00    +0.000 A 
ATOM     25  C   UNL     1      48.734   5.381  18.116  0.00  0.00    +0.000 A 
ATOM     26  S   UNL     1      50.171   5.672  18.990  0.00  0.00    +0.000 S 
ATOM     27  C   UNL     1      50.870   4.221  18.437  0.00  0.00    +0.000 A 
ATOM     28  N   UNL     1      52.128   3.859  18.810  0.00  0.00    +0.000 NA
ATOM     29  C   UNL     1      52.535   2.747  18.293  0.00  0.00    +0.000 A 
ATOM     30  N   UNL     1      51.802   1.967  17.436  0.00  0.00    +0.000 N 
ATOM     31  C   UNL     1      50.535   2.299  17.022  0.00  0.00    +0.000 A 
ATOM     32  O   UNL     1      49.929   1.595  16.225  0.00  0.00    +0.000 OA
ATOM     33  C   UNL     1      50.018   3.526  17.599  0.00  0.00    +0.000 A 
ATOM     34  H   UNL     1      52.181   1.114  17.053  0.00  0.00    +0.000 HD
ENDBRANCH  21  24
ENDBRANCH  19  20
ENDBRANCH   6  19
TORSDOF 6
ENDMDL
MODEL 9
REMARK VINA RESULT:    -7.390      2.656      4.775
REMARK INTER + INTRA:         -11.190
REMARK INTER:                 -10.838
REMARK INTRA:                  -0.352
REMARK UNBOUND:                -1.208
REMARK  Name = 
REMARK  6 active torsions:
REMARK  status: ('A' for Active; 'I' for Inactive)
REMARK    1  A    between atoms: C_2  and  C_4
REMARK    2  A    between atoms: C_7  and  C_8
REMARK    3  A    between atoms: C_8  and  N_9
REMARK    4  A    between atoms: C_16  and  C_17
REMARK    5  A    between atoms: C_17  and  N_18
REMARK    6  A    between atoms: C_19  and  C_21
REMARK                            x       y       z     vdW  Elec       q    Type
REMARK                         _______ _______ _______ _____ _____    ______ ____
ROOT
ATOM      1  C   UNL     1      46.978   6.361  13.401  0.00  0.00    +0.000 A 
ATOM      2  C   UNL     1      46.342   7.223  12.491  0.00  0.00    +0.000 A 
ATOM      3  C   UNL     1      45.251   6.789  11.743  0.00  0.00    +0.000 A 
ATOM      4  C   UNL     1      44.793   5.476  11.862  0.00  0.00    +0.000 A 
ATOM      5  C   UNL     1      45.433   4.610  12.760  0.00  0.00    +0.000 A 
ATOM      6  C   UNL     1      46.514   5.038  13.554  0.00  0.00    +0.000 A 
ENDROOT
BRANCH   1   8
ATOM      7  N   UNL     1      47.916   7.804  15.120  0.00  0.00    +0.000 N 
ATOM      8  C   UNL     1      48.165   6.875  14.145  0.00  0.00    +0.000 C 
ATOM      9  O   UNL     1      49.303   6.497  13.905  0.00  0.00    +0.000 OA
ATOM     10  H   UNL     1      48.707   8.150  15.647  0.00  0.00    +0.000 HD
ATOM     11  H   UNL     1      46.989   8.037  15.439  0.00  0.00    +0.000 HD
ENDBRANCH   1   8
BRANCH   4  12
ATOM     12  C   UNL     1      43.598   5.011  11.064  0.00  0.00    +0.000 C 
BRANCH  12  13
ATOM     13  N   UNL     1      43.937   4.233   9.850  0.00  0.00    +0.000 NA
ATOM     14  C   UNL     1      45.163   4.766   9.229  0.00  0.00    +0.000 C 
ATOM     15  C   UNL     1      45.749   3.867   8.138  0.00  0.00    +0.000 C 
ATOM     16  C   UNL     1      45.959   2.453   8.656  0.00  0.00    +0.000 C 
ATOM     17  C   UNL     1      44.631   1.909   9.155  0.00  0.00    +0.000 C 
ATOM     18  C   UNL     1      44.045   2.814  10.235  0.00  0.00    +0.000 C 
ENDBRANCH  12  13
ENDBRANCH   4  12
BRANCH   6  19
ATOM     19  C   UNL     1      47.113   4.047  14.516  0.00  0.00    +0.000 C 
BRANCH  19  20
ATOM     20  N   UNL     1      47.544   4.686  15.730  0.00  0.00    +0.000 N 
ATOM     21  C   UNL     1      47.206   4.248  16.983  0.00  0.00    +0.000 C 
ATOM     22  O   UNL     1      46.608   3.195  17.188  0.00  0.00    +0.000 OA
ATOM     23  H   UNL     1      48.016   5.572  15.600  0.00  0.00    +0.000 HD
BRANCH  21  24
ATOM     24  C   UNL     1      47.668   5.099  18.081  0.00  0.00    +0.000 A 
ATOM     25  C   UNL     1      46.762   5.762  18.894  0.00  0.00    +0.000 A 
ATOM     26  S   UNL     1      47.506   6.654  20.146  0.00  0.00    +0.000 S 
ATOM     27  C   UNL     1      49.063   6.227  19.603  0.00  0.00    +0.000 A 
ATOM     28  N   UNL     1      50.178   6.678  20.239  0.00  0.00    +0.000 NA
ATOM     29  C   UNL     1      51.288   6.293  19.701  0.00  0.00    +0.000 A 
ATOM     30  N   UNL     1      51.385   5.504  18.584  0.00  0.00    +0.000 N 
ATOM     31  C   UNL     1      50.287   5.037  17.902  0.00  0.00    +0.000 A 
ATOM     32  O   UNL     1      50.417   4.366  16.886  0.00  0.00    +0.000 OA
ATOM     33  C   UNL     1      49.014   5.416  18.485  0.00  0.00    +0.000 A 
ATOM     34  H   UNL     1      52.283   5.248  18.202  0.00  0.00    +0.000 HD
ENDBRANCH  21  24
ENDBRANCH  19  20
ENDBRANCH   6  19
TORSDOF 6
ENDMDL
