MODEL 1
REMARK VINA RESULT:    -8.407      0.000      0.000
REMARK INTER + INTRA:         -13.306
REMARK INTER:                 -11.848
REMARK INTRA:                  -1.458
REMARK UNBOUND:                -1.458
REMARK  Name = 
REMARK  7 active torsions:
REMARK  status: ('A' for Active; 'I' for Inactive)
REMARK    1  A    between atoms: C_2  and  C_4
REMARK    2  A    between atoms: C_4  and  N_5
REMARK    3  A    between atoms: C_4  and  C_18
REMARK    4  A    between atoms: C_6  and  C_8
REMARK    5  A    between atoms: C_21  and  C_22
REMARK    6  A    between atoms: C_22  and  N_23
REMARK    7  A    between atoms: C_24  and  C_26
REMARK                            x       y       z     vdW  Elec       q    Type
REMARK                         _______ _______ _______ _____ _____    ______ ____
ROOT
ATOM      1  C   UNL     1      48.207   6.831  14.134  0.00  0.00    +0.000 C 
ENDROOT
BRANCH   1   2
ATOM      2  C   UNL     1      47.180   6.006  13.367  0.00  0.00    +0.000 A 
ATOM      3  C   UNL     1      46.629   6.518  12.184  0.00  0.00    +0.000 A 
ATOM      4  C   UNL     1      45.738   5.754  11.426  0.00  0.00    +0.000 A 
ATOM      5  C   UNL     1      45.375   4.464  11.835  0.00  0.00    +0.000 A 
ATOM      6  C   UNL     1      45.931   3.948  13.011  0.00  0.00    +0.000 A 
ATOM      7  C   UNL     1      46.821   4.712  13.771  0.00  0.00    +0.000 A 
BRANCH   5   8
ATOM      8  C   UNL     1      44.424   3.642  11.005  0.00  0.00    +0.000 C 
BRANCH   8   9
ATOM      9  N   UNL     1      45.119   2.915   9.965  0.00  0.00    +0.000 N 
ATOM     10  C   UNL     1      45.201   3.440   8.693  0.00  0.00    +0.000 C 
ATOM     11  O   UNL     1      44.685   4.503   8.366  0.00  0.00    +0.000 OA
ATOM     12  H   UNL     1      45.730   2.162  10.247  0.00  0.00    +0.000 HD
BRANCH  10  13
ATOM     13  C   UNL     1      45.986   2.666   7.704  0.00  0.00    +0.000 A 
ATOM     14  C   UNL     1      46.397   3.193   6.478  0.00  0.00    +0.000 A 
ATOM     15  C   UNL     1      47.144   2.398   5.608  0.00  0.00    +0.000 A 
ATOM     16  C   UNL     1      47.453   1.104   6.000  0.00  0.00    +0.000 A 
ATOM     17  N   UNL     1      47.084   0.569   7.183  0.00  0.00    +0.000 NA
ATOM     18  C   UNL     1      46.367   1.366   8.015  0.00  0.00    +0.000 A 
ENDBRANCH  10  13
ENDBRANCH   8   9
ENDBRANCH   5   8
ENDBRANCH   1   2
BRANCH   1  20
ATOM     19  N   UNL     1      47.239   9.024  14.740  0.00  0.00    +0.000 N 
ATOM     20  C   UNL     1      48.082   8.359  13.884  0.00  0.00    +0.000 C 
ATOM     21  O   UNL     1      48.607   8.972  12.957  0.00  0.00    +0.000 OA
ATOM     22  H   UNL     1      47.042   9.991  14.516  0.00  0.00    +0.000 HD
ATOM     23  H   UNL     1      46.528   8.510  15.253  0.00  0.00    +0.000 HD
ENDBRANCH   1  20
BRANCH   1  24
ATOM     24  N   UNL     1      48.093   6.551  15.560  0.00  0.00    +0.000 N 
ATOM     25  C   UNL     1      49.173   6.244  16.340  0.00  0.00    +0.000 C 
ATOM     26  O   UNL     1      50.316   6.263  15.888  0.00  0.00    +0.000 OA
ATOM     27  H   UNL     1      47.154   6.442  15.928  0.00  0.00    +0.000 HD
BRANCH  25  28
ATOM     28  C   UNL     1      48.901   5.941  17.753  0.00  0.00    +0.000 A 
ATOM     29  C   UNL     1      49.163   4.670  18.247  0.00  0.00    +0.000 A 
ATOM     30  S   UNL     1      48.817   4.493  19.908  0.00  0.00    +0.000 S 
ATOM     31  C   UNL     1      48.252   6.093  20.019  0.00  0.00    +0.000 A 
ATOM     32  N   UNL     1      47.764   6.582  21.192  0.00  0.00    +0.000 NA
ATOM     33  C   UNL     1      47.338   7.797  21.128  0.00  0.00    +0.000 A 
ATOM     34  N   UNL     1      47.360   8.572  19.999  0.00  0.00    +0.000 N 
ATOM     35  C   UNL     1      47.887   8.138  18.805  0.00  0.00    +0.000 A 
ATOM     36  O   UNL     1      47.966   8.887  17.839  0.00  0.00    +0.000 OA
ATOM     37  C   UNL     1      48.354   6.764  18.813  0.00  0.00    +0.000 A 
ATOM     38  H   UNL     1      47.031   9.526  20.020  0.00  0.00    +0.000 HD
ENDBRANCH  25  28
ENDBRANCH   1  24
TORSDOF 7
ENDMDL
MODEL 2
REMARK VINA RESULT:    -8.246      2.817      4.474
REMARK INTER + INTRA:         -13.079
REMARK INTER:                 -11.957
REMARK INTRA:                  -1.122
REMARK UNBOUND:                -1.458
REMARK  Name = 
REMARK  7 active torsions:
REMARK  status: ('A' for Active; 'I' for Inactive)
REMARK    1  A    between atoms: C_2  and  C_4
REMARK    2  A    between atoms: C_4  and  N_5
REMARK    3  A    between atoms: C_4  and  C_18
REMARK    4  A    between atoms: C_6  and  C_8
REMARK    5  A    between atoms: C_21  and  C_22
REMARK    6  A    between atoms: C_22  and  N_23
REMARK    7  A    between atoms: C_24  and  C_26
REMARK                            x       y       z     vdW  Elec       q    Type
REMARK                         _______ _______ _______ _____ _____    ______ ____
ROOT
ATOM      1  C   UNL     1      46.985   5.018  14.909  0.00  0.00    +0.000 C 
ENDROOT
BRANCH   1   2
ATOM      2  C   UNL     1      46.120   4.792  13.676  0.00  0.00    +0.000 A 
ATOM      3  C   UNL     1      45.443   5.876  13.100  0.00  0.00    +0.000 A 
ATOM      4  C   UNL     1      44.699   5.709  11.929  0.00  0.00    +0.000 A 
ATOM      5  C   UNL     1      44.611   4.455  11.310  0.00  0.00    +0.000 A 
ATOM      6  C   UNL     1      45.294   3.373  11.879  0.00  0.00    +0.000 A 
ATOM      7  C   UNL     1      46.037   3.539  13.051  0.00  0.00    +0.000 A 
BRANCH   5   8
ATOM      8  C   UNL     1      43.818   4.286  10.042  0.00  0.00    +0.000 C 
BRANCH   8   9
ATOM      9  N   UNL     1      44.492   3.413   9.106  0.00  0.00    +0.000 N 
ATOM     10  C   UNL     1      45.504   3.904   8.308  0.00  0.00    +0.000 C 
ATOM     11  O   UNL     1      45.864   5.076   8.321  0.00  0.00    +0.000 OA
ATOM     12  H   UNL     1      44.375   2.417   9.225  0.00  0.00    +0.000 HD
BRANCH  10  13
ATOM     13  C   UNL     1      46.188   2.931   7.426  0.00  0.00    +0.000 A 
ATOM     14  C   UNL     1      46.625   3.246   6.138  0.00  0.00    +0.000 A 
ATOM     15  C   UNL     1      47.270   2.271   5.378  0.00  0.00    +0.000 A 
ATOM     16  C   UNL     1      47.457   1.016   5.936  0.00  0.00    +0.000 A 
ATOM     17  N   UNL     1      47.060   0.683   7.182  0.00  0.00    +0.000 NA
ATOM     18  C   UNL     1      46.444   1.652   7.906  0.00  0.00    +0.000 A 
ENDBRANCH  10  13
ENDBRANCH   8   9
ENDBRANCH   5   8
ENDBRANCH   1   2
BRANCH   1  20
ATOM     19  N   UNL     1      46.912   3.583  16.921  0.00  0.00    +0.000 N 
ATOM     20  C   UNL     1      47.381   3.703  15.636  0.00  0.00    +0.000 C 
ATOM     21  O   UNL     1      48.122   2.835  15.181  0.00  0.00    +0.000 OA
ATOM     22  H   UNL     1      47.264   2.799  17.456  0.00  0.00    +0.000 HD
ATOM     23  H   UNL     1      46.628   4.411  17.438  0.00  0.00    +0.000 HD
ENDBRANCH   1  20
BRANCH   1  24
ATOM     24  N   UNL     1      48.185   5.759  14.537  0.00  0.00    +0.000 N 
ATOM     25  C   UNL     1      48.861   6.557  15.417  0.00  0.00    +0.000 C 
ATOM     26  O   UNL     1      48.532   6.631  16.599  0.00  0.00    +0.000 OA
ATOM     27  H   UNL     1      48.417   5.781  13.550  0.00  0.00    +0.000 HD
BRANCH  25  28
ATOM     28  C   UNL     1      50.029   7.279  14.889  0.00  0.00    +0.000 A 
ATOM     29  C   UNL     1      51.201   7.329  15.631  0.00  0.00    +0.000 A 
ATOM     30  S   UNL     1      52.464   8.180  14.865  0.00  0.00    +0.000 S 
ATOM     31  C   UNL     1      51.477   8.561  13.534  0.00  0.00    +0.000 A 
ATOM     32  N   UNL     1      51.950   9.322  12.509  0.00  0.00    +0.000 NA
ATOM     33  C   UNL     1      51.087   9.564  11.581  0.00  0.00    +0.000 A 
ATOM     34  N   UNL     1      49.794   9.109  11.582  0.00  0.00    +0.000 N 
ATOM     35  C   UNL     1      49.288   8.299  12.571  0.00  0.00    +0.000 A 
ATOM     36  O   UNL     1      48.153   7.844  12.497  0.00  0.00    +0.000 OA
ATOM     37  C   UNL     1      50.209   8.021  13.658  0.00  0.00    +0.000 A 
ATOM     38  H   UNL     1      49.174   9.316  10.813  0.00  0.00    +0.000 HD
ENDBRANCH  25  28
ENDBRANCH   1  24
TORSDOF 7
ENDMDL
MODEL 3
REMARK VINA RESULT:    -7.816      1.752      2.428
REMARK INTER + INTRA:         -12.473
REMARK INTER:                 -11.618
REMARK INTRA:                  -0.855
REMARK UNBOUND:                -1.458
REMARK  Name = 
REMARK  7 active torsions:
REMARK  status: ('A' for Active; 'I' for Inactive)
REMARK    1  A    between atoms: C_2  and  C_4
REMARK    2  A    between atoms: C_4  and  N_5
REMARK    3  A    between atoms: C_4  and  C_18
REMARK    4  A    between atoms: C_6  and  C_8
REMARK    5  A    between atoms: C_21  and  C_22
REMARK    6  A    between atoms: C_22  and  N_23
REMARK    7  A    between atoms: C_24  and  C_26
REMARK                            x       y       z     vdW  Elec       q    Type
REMARK                         _______ _______ _______ _____ _____    ______ ____
ROOT
ATOM      1  C   UNL     1      47.511   7.621  13.391  0.00  0.00    +0.000 C 
ENDROOT
BRANCH   1   2
ATOM      2  C   UNL     1      46.755   6.515  12.666  0.00  0.00    +0.000 A 
ATOM      3  C   UNL     1      46.184   5.471  13.405  0.00  0.00    +0.000 A 
ATOM      4  C   UNL     1      45.427   4.481  12.772  0.00  0.00    +0.000 A 
ATOM      5  C   UNL     1      45.229   4.511  11.385  0.00  0.00    +0.000 A 
ATOM      6  C   UNL     1      45.791   5.558  10.646  0.00  0.00    +0.000 A 
ATOM      7  C   UNL     1      46.549   6.548  11.279  0.00  0.00    +0.000 A 
BRANCH   5   8
ATOM      8  C   UNL     1      44.402   3.449  10.712  0.00  0.00    +0.000 C 
BRANCH   8   9
ATOM      9  N   UNL     1      45.154   2.761   9.684  0.00  0.00    +0.000 N 
ATOM     10  C   UNL     1      45.162   3.245   8.393  0.00  0.00    +0.000 C 
ATOM     11  O   UNL     1      44.532   4.236   8.040  0.00  0.00    +0.000 OA
ATOM     12  H   UNL     1      45.845   2.087   9.981  0.00  0.00    +0.000 HD
BRANCH  10  13
ATOM     13  C   UNL     1      46.010   2.523   7.418  0.00  0.00    +0.000 A 
ATOM     14  C   UNL     1      46.412   3.077   6.201  0.00  0.00    +0.000 A 
ATOM     15  C   UNL     1      47.221   2.331   5.344  0.00  0.00    +0.000 A 
ATOM     16  C   UNL     1      47.598   1.056   5.738  0.00  0.00    +0.000 A 
ATOM     17  N   UNL     1      47.239   0.496   6.912  0.00  0.00    +0.000 NA
ATOM     18  C   UNL     1      46.461   1.247   7.733  0.00  0.00    +0.000 A 
ENDBRANCH  10  13
ENDBRANCH   8   9
ENDBRANCH   5   8
ENDBRANCH   1   2
BRANCH   1  20
ATOM     19  N   UNL     1      47.611  10.087  13.543  0.00  0.00    +0.000 N 
ATOM     20  C   UNL     1      46.799   9.001  13.326  0.00  0.00    +0.000 C 
ATOM     21  O   UNL     1      45.590   9.171  13.180  0.00  0.00    +0.000 OA
ATOM     22  H   UNL     1      47.148  10.983  13.635  0.00  0.00    +0.000 HD
ATOM     23  H   UNL     1      48.499   9.970  14.022  0.00  0.00    +0.000 HD
ENDBRANCH   1  20
BRANCH   1  24
ATOM     24  N   UNL     1      47.724   7.239  14.782  0.00  0.00    +0.000 N 
ATOM     25  C   UNL     1      48.961   6.946  15.285  0.00  0.00    +0.000 C 
ATOM     26  O   UNL     1      49.976   7.065  14.601  0.00  0.00    +0.000 OA
ATOM     27  H   UNL     1      46.895   7.048  15.333  0.00  0.00    +0.000 HD
BRANCH  25  28
ATOM     28  C   UNL     1      49.018   6.531  16.695  0.00  0.00    +0.000 A 
ATOM     29  C   UNL     1      49.477   7.422  17.656  0.00  0.00    +0.000 A 
ATOM     30  S   UNL     1      49.454   6.794  19.242  0.00  0.00    +0.000 S 
ATOM     31  C   UNL     1      48.881   5.288  18.698  0.00  0.00    +0.000 A 
ATOM     32  N   UNL     1      48.677   4.263  19.570  0.00  0.00    +0.000 NA
ATOM     33  C   UNL     1      48.274   3.167  19.021  0.00  0.00    +0.000 A 
ATOM     34  N   UNL     1      48.052   3.004  17.679  0.00  0.00    +0.000 N 
ATOM     35  C   UNL     1      48.199   4.024  16.768  0.00  0.00    +0.000 A 
ATOM     36  O   UNL     1      47.912   3.864  15.588  0.00  0.00    +0.000 OA
ATOM     37  C   UNL     1      48.681   5.273  17.329  0.00  0.00    +0.000 A 
ATOM     38  H   UNL     1      47.716   2.125  17.314  0.00  0.00    +0.000 HD
ENDBRANCH  25  28
ENDBRANCH   1  24
TORSDOF 7
ENDMDL
MODEL 4
REMARK VINA RESULT:    -7.661      2.898      4.177
REMARK INTER + INTRA:         -12.254
REMARK INTER:                 -11.145
REMARK INTRA:                  -1.110
REMARK UNBOUND:                -1.458
REMARK  Name = 
REMARK  7 active torsions:
REMARK  status: ('A' for Active; 'I' for Inactive)
REMARK    1  A    between atoms: C_2  and  C_4
REMARK    2  A    between atoms: C_4  and  N_5
REMARK    3  A    between atoms: C_4  and  C_18
REMARK    4  A    between atoms: C_6  and  C_8
REMARK    5  A    between atoms: C_21  and  C_22
REMARK    6  A    between atoms: C_22  and  N_23
REMARK    7  A    between atoms: C_24  and  C_26
REMARK                            x       y       z     vdW  Elec       q    Type
REMARK                         _______ _______ _______ _____ _____    ______ ____
ROOT
ATOM      1  C   UNL     1      47.055   5.041  15.004  0.00  0.00    +0.000 C 
ENDROOT
BRANCH   1   2
ATOM      2  C   UNL     1      46.346   4.906  13.662  0.00  0.00    +0.000 A 
ATOM      3  C   UNL     1      45.609   3.747  13.385  0.00  0.00    +0.000 A 
ATOM      4  C   UNL     1      44.893   3.628  12.191  0.00  0.00    +0.000 A 
ATOM      5  C   UNL     1      44.902   4.662  11.246  0.00  0.00    +0.000 A 
ATOM      6  C   UNL     1      45.630   5.824  11.525  0.00  0.00    +0.000 A 
ATOM      7  C   UNL     1      46.347   5.944  12.719  0.00  0.00    +0.000 A 
BRANCH   5   8
ATOM      8  C   UNL     1      44.118   4.531   9.967  0.00  0.00    +0.000 C 
BRANCH   8   9
ATOM      9  N   UNL     1      44.715   3.563   9.074  0.00  0.00    +0.000 N 
ATOM     10  C   UNL     1      45.735   3.941   8.227  0.00  0.00    +0.000 C 
ATOM     11  O   UNL     1      46.165   5.087   8.158  0.00  0.00    +0.000 OA
ATOM     12  H   UNL     1      44.541   2.585   9.258  0.00  0.00    +0.000 HD
BRANCH  10  13
ATOM     13  C   UNL     1      46.337   2.875   7.394  0.00  0.00    +0.000 A 
ATOM     14  C   UNL     1      46.572   1.582   7.864  0.00  0.00    +0.000 A 
ATOM     15  C   UNL     1      47.133   0.635   7.008  0.00  0.00    +0.000 A 
ATOM     16  C   UNL     1      47.439   1.017   5.711  0.00  0.00    +0.000 A 
ATOM     17  N   UNL     1      47.212   2.254   5.221  0.00  0.00    +0.000 NA
ATOM     18  C   UNL     1      46.655   3.154   6.070  0.00  0.00    +0.000 A 
ENDBRANCH  10  13
ENDBRANCH   8   9
ENDBRANCH   5   8
ENDBRANCH   1   2
BRANCH   1  20
ATOM     19  N   UNL     1      46.932   3.493  16.928  0.00  0.00    +0.000 N 
ATOM     20  C   UNL     1      47.412   3.676  15.654  0.00  0.00    +0.000 C 
ATOM     21  O   UNL     1      48.134   2.817  15.152  0.00  0.00    +0.000 OA
ATOM     22  H   UNL     1      47.261   2.670  17.418  0.00  0.00    +0.000 HD
ATOM     23  H   UNL     1      46.667   4.297  17.491  0.00  0.00    +0.000 HD
ENDBRANCH   1  20
BRANCH   1  24
ATOM     24  N   UNL     1      48.262   5.844  14.842  0.00  0.00    +0.000 N 
ATOM     25  C   UNL     1      48.847   6.512  15.881  0.00  0.00    +0.000 C 
ATOM     26  O   UNL     1      48.425   6.408  17.031  0.00  0.00    +0.000 OA
ATOM     27  H   UNL     1      48.569   6.014  13.891  0.00  0.00    +0.000 HD
BRANCH  25  28
ATOM     28  C   UNL     1      50.035   7.319  15.559  0.00  0.00    +0.000 A 
ATOM     29  C   UNL     1      49.897   8.478  14.809  0.00  0.00    +0.000 A 
ATOM     30  S   UNL     1      51.363   9.309  14.548  0.00  0.00    +0.000 S 
ATOM     31  C   UNL     1      52.249   8.122  15.384  0.00  0.00    +0.000 A 
ATOM     32  N   UNL     1      53.602   8.212  15.499  0.00  0.00    +0.000 NA
ATOM     33  C   UNL     1      54.152   7.228  16.126  0.00  0.00    +0.000 A 
ATOM     34  N   UNL     1      53.471   6.163  16.654  0.00  0.00    +0.000 N 
ATOM     35  C   UNL     1      52.101   6.053  16.604  0.00  0.00    +0.000 A 
ATOM     36  O   UNL     1      51.519   5.129  17.159  0.00  0.00    +0.000 OA
ATOM     37  C   UNL     1      51.433   7.120  15.881  0.00  0.00    +0.000 A 
ATOM     38  H   UNL     1      53.959   5.434  17.154  0.00  0.00    +0.000 HD
ENDBRANCH  25  28
ENDBRANCH   1  24
TORSDOF 7
ENDMDL
MODEL 5
REMARK VINA RESULT:    -7.311      2.491      3.426
REMARK INTER + INTRA:         -11.762
REMARK INTER:                 -10.600
REMARK INTRA:                  -1.161
REMARK UNBOUND:                -1.458
REMARK  Name = 
REMARK  7 active torsions:
REMARK  status: ('A' for Active; 'I' for Inactive)
REMARK    1  A    between atoms: C_2  and  C_4
REMARK    2  A    between atoms: C_4  and  N_5
REMARK    3  A    between atoms: C_4  and  C_18
REMARK    4  A    between atoms: C_6  and  C_8
REMARK    5  A    between atoms: C_21  and  C_22
REMARK    6  A    between atoms: C_22  and  N_23
REMARK    7  A    between atoms: C_24  and  C_26
REMARK                            x       y       z     vdW  Elec       q    Type
REMARK                         _______ _______ _______ _____ _____    ______ ____
ROOT
ATOM      1  C   UNL     1      47.178   4.960  15.493  0.00  0.00    +0.000 C 
ENDROOT
BRANCH   1   2
ATOM      2  C   UNL     1      46.589   4.994  14.088  0.00  0.00    +0.000 A 
ATOM      3  C   UNL     1      45.823   3.912  13.634  0.00  0.00    +0.000 A 
ATOM      4  C   UNL     1      45.215   3.948  12.377  0.00  0.00    +0.000 A 
ATOM      5  C   UNL     1      45.362   5.064  11.543  0.00  0.00    +0.000 A 
ATOM      6  C   UNL     1      46.119   6.150  11.998  0.00  0.00    +0.000 A 
ATOM      7  C   UNL     1      46.729   6.114  13.255  0.00  0.00    +0.000 A 
BRANCH   5   8
ATOM      8  C   UNL     1      44.692   5.101  10.195  0.00  0.00    +0.000 C 
BRANCH   8   9
ATOM      9  N   UNL     1      45.501   4.459   9.182  0.00  0.00    +0.000 N 
ATOM     10  C   UNL     1      45.197   3.181   8.763  0.00  0.00    +0.000 C 
ATOM     11  O   UNL     1      44.273   2.521   9.225  0.00  0.00    +0.000 OA
ATOM     12  H   UNL     1      46.118   5.042   8.635  0.00  0.00    +0.000 HD
BRANCH  10  13
ATOM     13  C   UNL     1      46.032   2.622   7.675  0.00  0.00    +0.000 A 
ATOM     14  C   UNL     1      46.355   3.335   6.519  0.00  0.00    +0.000 A 
ATOM     15  C   UNL     1      47.157   2.736   5.548  0.00  0.00    +0.000 A 
ATOM     16  C   UNL     1      47.608   1.444   5.771  0.00  0.00    +0.000 A 
ATOM     17  N   UNL     1      47.327   0.732   6.883  0.00  0.00    +0.000 NA
ATOM     18  C   UNL     1      46.553   1.341   7.817  0.00  0.00    +0.000 A 
ENDBRANCH  10  13
ENDBRANCH   8   9
ENDBRANCH   5   8
ENDBRANCH   1   2
BRANCH   1  20
ATOM     19  N   UNL     1      46.940   3.155  17.165  0.00  0.00    +0.000 N 
ATOM     20  C   UNL     1      47.528   3.527  15.981  0.00  0.00    +0.000 C 
ATOM     21  O   UNL     1      48.326   2.766  15.438  0.00  0.00    +0.000 OA
ATOM     22  H   UNL     1      47.255   2.280  17.567  0.00  0.00    +0.000 HD
ATOM     23  H   UNL     1      46.593   3.864  17.805  0.00  0.00    +0.000 HD
ENDBRANCH   1  20
BRANCH   1  24
ATOM     24  N   UNL     1      48.365   5.805  15.547  0.00  0.00    +0.000 N 
ATOM     25  C   UNL     1      48.798   6.394  16.702  0.00  0.00    +0.000 C 
ATOM     26  O   UNL     1      48.246   6.177  17.779  0.00  0.00    +0.000 OA
ATOM     27  H   UNL     1      48.777   6.067  14.658  0.00  0.00    +0.000 HD
BRANCH  25  28
ATOM     28  C   UNL     1      49.985   7.257  16.597  0.00  0.00    +0.000 A 
ATOM     29  C   UNL     1      51.236   6.687  16.404  0.00  0.00    +0.000 A 
ATOM     30  S   UNL     1      52.499   7.826  16.277  0.00  0.00    +0.000 S 
ATOM     31  C   UNL     1      51.430   9.124  16.527  0.00  0.00    +0.000 A 
ATOM     32  N   UNL     1      51.886  10.406  16.572  0.00  0.00    +0.000 NA
ATOM     33  C   UNL     1      50.975  11.289  16.803  0.00  0.00    +0.000 A 
ATOM     34  N   UNL     1      49.647  11.009  16.989  0.00  0.00    +0.000 N 
ATOM     35  C   UNL     1      49.134   9.736  16.905  0.00  0.00    +0.000 A 
ATOM     36  O   UNL     1      47.928   9.532  16.994  0.00  0.00    +0.000 OA
ATOM     37  C   UNL     1      50.122   8.697  16.677  0.00  0.00    +0.000 A 
ATOM     38  H   UNL     1      48.979  11.750  17.144  0.00  0.00    +0.000 HD
ENDBRANCH  25  28
ENDBRANCH   1  24
TORSDOF 7
ENDMDL
MODEL 6
REMARK VINA RESULT:    -7.048      3.671      8.798
REMARK INTER + INTRA:         -11.391
REMARK INTER:                 -10.083
REMARK INTRA:                  -1.308
REMARK UNBOUND:                -1.458
REMARK  Name = 
REMARK  7 active torsions:
REMARK  status: ('A' for Active; 'I' for Inactive)
REMARK    1  A    between atoms: C_2  and  C_4
REMARK    2  A    between atoms: C_4  and  N_5
REMARK    3  A    between atoms: C_4  and  C_18
REMARK    4  A    between atoms: C_6  and  C_8
REMARK    5  A    between atoms: C_21  and  C_22
REMARK    6  A    between atoms: C_22  and  N_23
REMARK    7  A    between atoms: C_24  and  C_26
REMARK                            x       y       z     vdW  Elec       q    Type
REMARK                         _______ _______ _______ _____ _____    ______ ____
ROOT
ATOM      1  C   UNL     1      48.053   7.987  12.534  0.00  0.00    +0.000 C 
ENDROOT
BRANCH   1   2
ATOM      2  C   UNL     1      48.367   7.583  13.969  0.00  0.00    +0.000 A 
ATOM      3  C   UNL     1      48.005   6.308  14.423  0.00  0.00    +0.000 A 
ATOM      4  C   UNL     1      48.342   5.889  15.712  0.00  0.00    +0.000 A 
ATOM      5  C   UNL     1      49.046   6.736  16.579  0.00  0.00    +0.000 A 
ATOM      6  C   UNL     1      49.416   8.007  16.124  0.00  0.00    +0.000 A 
ATOM      7  C   UNL     1      49.078   8.427  14.835  0.00  0.00    +0.000 A 
BRANCH   5   8
ATOM      8  C   UNL     1      49.417   6.272  17.962  0.00  0.00    +0.000 C 
BRANCH   8   9
ATOM      9  N   UNL     1      49.970   4.936  17.943  0.00  0.00    +0.000 N 
ATOM     10  C   UNL     1      51.306   4.744  17.662  0.00  0.00    +0.000 C 
ATOM     11  O   UNL     1      52.076   5.659  17.391  0.00  0.00    +0.000 OA
ATOM     12  H   UNL     1      49.428   4.198  18.370  0.00  0.00    +0.000 HD
BRANCH  10  13
ATOM     13  C   UNL     1      51.808   3.353  17.730  0.00  0.00    +0.000 A 
ATOM     14  C   UNL     1      53.090   3.026  18.177  0.00  0.00    +0.000 A 
ATOM     15  C   UNL     1      53.478   1.687  18.219  0.00  0.00    +0.000 A 
ATOM     16  C   UNL     1      52.567   0.723  17.814  0.00  0.00    +0.000 A 
ATOM     17  N   UNL     1      51.316   1.004  17.392  0.00  0.00    +0.000 NA
ATOM     18  C   UNL     1      50.959   2.313  17.369  0.00  0.00    +0.000 A 
ENDBRANCH  10  13
ENDBRANCH   8   9
ENDBRANCH   5   8
ENDBRANCH   1   2
BRANCH   1  20
ATOM     19  N   UNL     1      50.263   7.469  11.555  0.00  0.00    +0.000 N 
ATOM     20  C   UNL     1      49.305   8.436  11.730  0.00  0.00    +0.000 C 
ATOM     21  O   UNL     1      49.518   9.577  11.328  0.00  0.00    +0.000 OA
ATOM     22  H   UNL     1      51.140   7.773  11.151  0.00  0.00    +0.000 HD
ATOM     23  H   UNL     1      50.290   6.662  12.172  0.00  0.00    +0.000 HD
ENDBRANCH   1  20
BRANCH   1  24
ATOM     24  N   UNL     1      47.394   6.881  11.848  0.00  0.00    +0.000 N 
ATOM     25  C   UNL     1      46.073   6.915  11.496  0.00  0.00    +0.000 C 
ATOM     26  O   UNL     1      45.387   7.919  11.674  0.00  0.00    +0.000 OA
ATOM     27  H   UNL     1      47.917   6.016  11.775  0.00  0.00    +0.000 HD
BRANCH  25  28
ATOM     28  C   UNL     1      45.533   5.709  10.849  0.00  0.00    +0.000 A 
ATOM     29  C   UNL     1      45.714   5.520   9.485  0.00  0.00    +0.000 A 
ATOM     30  S   UNL     1      45.051   4.062   8.900  0.00  0.00    +0.000 S 
ATOM     31  C   UNL     1      44.450   3.651  10.436  0.00  0.00    +0.000 A 
ATOM     32  N   UNL     1      43.733   2.509  10.624  0.00  0.00    +0.000 NA
ATOM     33  C   UNL     1      43.308   2.337  11.829  0.00  0.00    +0.000 A 
ATOM     34  N   UNL     1      43.539   3.201  12.867  0.00  0.00    +0.000 N 
ATOM     35  C   UNL     1      44.298   4.340  12.736  0.00  0.00    +0.000 A 
ATOM     36  O   UNL     1      44.553   5.046  13.705  0.00  0.00    +0.000 OA
ATOM     37  C   UNL     1      44.776   4.599  11.391  0.00  0.00    +0.000 A 
ATOM     38  H   UNL     1      43.197   2.997  13.795  0.00  0.00    +0.000 HD
ENDBRANCH  25  28
ENDBRANCH   1  24
TORSDOF 7
ENDMDL
MODEL 7
REMARK VINA RESULT:    -6.752      3.889      5.765
REMARK INTER + INTRA:         -10.973
REMARK INTER:                 -10.401
REMARK INTRA:                  -0.572
REMARK UNBOUND:                -1.458
REMARK  Name = 
REMARK  7 active torsions:
REMARK  status: ('A' for Active; 'I' for Inactive)
REMARK    1  A    between atoms: C_2  and  C_4
REMARK    2  A    between atoms: C_4  and  N_5
REMARK    3  A    between atoms: C_4  and  C_18
REMARK    4  A    between atoms: C_6  and  C_8
REMARK    5  A    between atoms: C_21  and  C_22
REMARK    6  A    between atoms: C_22  and  N_23
REMARK    7  A    between atoms: C_24  and  C_26
REMARK                            x       y       z     vdW  Elec       q    Type
REMARK                         _______ _______ _______ _____ _____    ______ ____
ROOT
ATOM      1  C   UNL     1      48.744   4.623  17.662  0.00  0.00    +0.000 C 
ENDROOT
BRANCH   1   2
ATOM      2  C   UNL     1      48.303   5.276  16.358  0.00  0.00    +0.000 A 
ATOM      3  C   UNL     1      48.806   6.539  16.014  0.00  0.00    +0.000 A 
ATOM      4  C   UNL     1      48.472   7.129  14.793  0.00  0.00    +0.000 A 
ATOM      5  C   UNL     1      47.625   6.474  13.889  0.00  0.00    +0.000 A 
ATOM      6  C   UNL     1      47.129   5.209  14.227  0.00  0.00    +0.000 A 
ATOM      7  C   UNL     1      47.462   4.618  15.449  0.00  0.00    +0.000 A 
BRANCH   5   8
ATOM      8  C   UNL     1      47.280   7.111  12.570  0.00  0.00    +0.000 C 
BRANCH   8   9
ATOM      9  N   UNL     1      46.920   6.120  11.579  0.00  0.00    +0.000 N 
ATOM     10  C   UNL     1      45.592   5.866  11.307  0.00  0.00    +0.000 C 
ATOM     11  O   UNL     1      44.666   6.422  11.887  0.00  0.00    +0.000 OA
ATOM     12  H   UNL     1      47.639   5.811  10.941  0.00  0.00    +0.000 HD
BRANCH  10  13
ATOM     13  C   UNL     1      45.309   4.887  10.233  0.00  0.00    +0.000 A 
ATOM     14  C   UNL     1      44.531   3.744  10.430  0.00  0.00    +0.000 A 
ATOM     15  C   UNL     1      44.305   2.879   9.359  0.00  0.00    +0.000 A 
ATOM     16  C   UNL     1      44.864   3.192   8.129  0.00  0.00    +0.000 A 
ATOM     17  N   UNL     1      45.607   4.295   7.902  0.00  0.00    +0.000 NA
ATOM     18  C   UNL     1      45.805   5.125   8.957  0.00  0.00    +0.000 A 
ENDBRANCH  10  13
ENDBRANCH   8   9
ENDBRANCH   5   8
ENDBRANCH   1   2
BRANCH   1  20
ATOM     19  N   UNL     1      48.273   2.733  19.185  0.00  0.00    +0.000 N 
ATOM     20  C   UNL     1      47.814   3.464  18.117  0.00  0.00    +0.000 C 
ATOM     21  O   UNL     1      46.776   3.123  17.554  0.00  0.00    +0.000 OA
ATOM     22  H   UNL     1      47.751   1.897  19.415  0.00  0.00    +0.000 HD
ATOM     23  H   UNL     1      49.262   2.746  19.422  0.00  0.00    +0.000 HD
ENDBRANCH   1  20
BRANCH   1  24
ATOM     24  N   UNL     1      50.112   4.138  17.528  0.00  0.00    +0.000 N 
ATOM     25  C   UNL     1      51.041   4.268  18.523  0.00  0.00    +0.000 C 
ATOM     26  O   UNL     1      50.745   4.739  19.620  0.00  0.00    +0.000 OA
ATOM     27  H   UNL     1      50.398   3.831  16.605  0.00  0.00    +0.000 HD
BRANCH  25  28
ATOM     28  C   UNL     1      52.395   3.772  18.230  0.00  0.00    +0.000 A 
ATOM     29  C   UNL     1      53.480   4.631  18.334  0.00  0.00    +0.000 A 
ATOM     30  S   UNL     1      54.977   3.893  17.988  0.00  0.00    +0.000 S 
ATOM     31  C   UNL     1      54.228   2.409  17.632  0.00  0.00    +0.000 A 
ATOM     32  N   UNL     1      54.960   1.336  17.223  0.00  0.00    +0.000 NA
ATOM     33  C   UNL     1      54.263   0.285  16.953  0.00  0.00    +0.000 A 
ATOM     34  N   UNL     1      52.899   0.206  17.061  0.00  0.00    +0.000 N 
ATOM     35  C   UNL     1      52.124   1.246  17.516  0.00  0.00    +0.000 A 
ATOM     36  O   UNL     1      50.917   1.112  17.678  0.00  0.00    +0.000 OA
ATOM     37  C   UNL     1      52.856   2.466  17.804  0.00  0.00    +0.000 A 
ATOM     38  H   UNL     1      52.414  -0.656  16.856  0.00  0.00    +0.000 HD
ENDBRANCH  25  28
ENDBRANCH   1  24
TORSDOF 7
ENDMDL
MODEL 8
REMARK VINA RESULT:    -6.638      4.894      7.980
REMARK INTER + INTRA:         -10.813
REMARK INTER:                 -10.024
REMARK INTRA:                  -0.788
REMARK UNBOUND:                -1.458
REMARK  Name = 
REMARK  7 active torsions:
REMARK  status: ('A' for Active; 'I' for Inactive)
REMARK    1  A    between atoms: C_2  and  C_4
REMARK    2  A    between atoms: C_4  and  N_5
REMARK    3  A    between atoms: C_4  and  C_18
REMARK    4  A    between atoms: C_6  and  C_8
REMARK    5  A    between atoms: C_21  and  C_22
REMARK    6  A    between atoms: C_22  and  N_23
REMARK    7  A    between atoms: C_24  and  C_26
REMARK                            x       y       z     vdW  Elec       q    Type
REMARK                         _______ _______ _______ _____ _____    ______ ____
ROOT
ATOM      1  C   UNL     1      45.519   8.305  12.487  0.00  0.00    +0.000 C 
ENDROOT
BRANCH   1   2
ATOM      2  C   UNL     1      47.024   8.395  12.267  0.00  0.00    +0.000 A 
ATOM      3  C   UNL     1      47.752   9.415  12.894  0.00  0.00    +0.000 A 
ATOM      4  C   UNL     1      49.142   9.479  12.765  0.00  0.00    +0.000 A 
ATOM      5  C   UNL     1      49.834   8.529  12.002  0.00  0.00    +0.000 A 
ATOM      6  C   UNL     1      49.109   7.505  11.383  0.00  0.00    +0.000 A 
ATOM      7  C   UNL     1      47.718   7.440  11.511  0.00  0.00    +0.000 A 
BRANCH   5   8
ATOM      8  C   UNL     1      51.333   8.597  11.878  0.00  0.00    +0.000 C 
BRANCH   8   9
ATOM      9  N   UNL     1      51.836   7.604  10.954  0.00  0.00    +0.000 N 
ATOM     10  C   UNL     1      52.416   7.997   9.766  0.00  0.00    +0.000 C 
ATOM     11  O   UNL     1      52.512   9.169   9.418  0.00  0.00    +0.000 OA
ATOM     12  H   UNL     1      51.970   6.665  11.301  0.00  0.00    +0.000 HD
BRANCH  10  13
ATOM     13  C   UNL     1      52.965   6.924   8.907  0.00  0.00    +0.000 A 
ATOM     14  C   UNL     1      54.029   6.107   9.297  0.00  0.00    +0.000 A 
ATOM     15  C   UNL     1      54.478   5.111   8.430  0.00  0.00    +0.000 A 
ATOM     16  C   UNL     1      53.845   4.968   7.204  0.00  0.00    +0.000 A 
ATOM     17  N   UNL     1      52.806   5.730   6.804  0.00  0.00    +0.000 NA
ATOM     18  C   UNL     1      52.381   6.686   7.669  0.00  0.00    +0.000 A 
ENDBRANCH  10  13
ENDBRANCH   8   9
ENDBRANCH   5   8
ENDBRANCH   1   2
BRANCH   1  20
ATOM     19  N   UNL     1      44.016   9.159  10.718  0.00  0.00    +0.000 N 
ATOM     20  C   UNL     1      44.729   9.481  11.847  0.00  0.00    +0.000 C 
ATOM     21  O   UNL     1      44.766  10.650  12.225  0.00  0.00    +0.000 OA
ATOM     22  H   UNL     1      43.603   9.932  10.213  0.00  0.00    +0.000 HD
ATOM     23  H   UNL     1      44.258   8.328  10.185  0.00  0.00    +0.000 HD
ENDBRANCH   1  20
BRANCH   1  24
ATOM     24  N   UNL     1      45.023   7.036  11.969  0.00  0.00    +0.000 N 
ATOM     25  C   UNL     1      45.188   5.853  12.634  0.00  0.00    +0.000 C 
ATOM     26  O   UNL     1      45.701   5.811  13.751  0.00  0.00    +0.000 OA
ATOM     27  H   UNL     1      44.681   7.037  11.014  0.00  0.00    +0.000 HD
BRANCH  25  28
ATOM     28  C   UNL     1      44.675   4.645  11.969  0.00  0.00    +0.000 A 
ATOM     29  C   UNL     1      43.919   3.731  12.689  0.00  0.00    +0.000 A 
ATOM     30  S   UNL     1      43.381   2.403  11.765  0.00  0.00    +0.000 S 
ATOM     31  C   UNL     1      44.183   2.971  10.377  0.00  0.00    +0.000 A 
ATOM     32  N   UNL     1      44.155   2.263   9.215  0.00  0.00    +0.000 NA
ATOM     33  C   UNL     1      44.832   2.790   8.252  0.00  0.00    +0.000 A 
ATOM     34  N   UNL     1      45.533   3.964   8.344  0.00  0.00    +0.000 N 
ATOM     35  C   UNL     1      45.551   4.736   9.482  0.00  0.00    +0.000 A 
ATOM     36  O   UNL     1      46.120   5.821   9.501  0.00  0.00    +0.000 OA
ATOM     37  C   UNL     1      44.829   4.173  10.608  0.00  0.00    +0.000 A 
ATOM     38  H   UNL     1      46.026   4.335   7.545  0.00  0.00    +0.000 HD
ENDBRANCH  25  28
ENDBRANCH   1  24
TORSDOF 7
ENDMDL
MODEL 9
REMARK VINA RESULT:    -6.340      3.162      9.230
REMARK INTER + INTRA:         -10.393
REMARK INTER:                  -9.474
REMARK INTRA:                  -0.919
REMARK UNBOUND:                -1.458
REMARK  Name = 
REMARK  7 active torsions:
REMARK  status: ('A' for Active; 'I' for Inactive)
REMARK    1  A    between atoms: C_2  and  C_4
REMARK    2  A    between atoms: C_4  and  N_5
REMARK    3  A    between atoms: C_4  and  C_18
REMARK    4  A    between atoms: C_6  and  C_8
REMARK    5  A    between atoms: C_21  and  C_22
REMARK    6  A    between atoms: C_22  and  N_23
REMARK    7  A    between atoms: C_24  and  C_26
REMARK                            x       y       z     vdW  Elec       q    Type
REMARK                         _______ _______ _______ _____ _____    ______ ____
ROOT
ATOM      1  C   UNL     1      47.284   8.041  13.135  0.00  0.00    +0.000 C 
ENDROOT
BRANCH   1   2
ATOM      2  C   UNL     1      48.056   7.842  14.434  0.00  0.00    +0.000 A 
ATOM      3  C   UNL     1      48.735   6.636  14.655  0.00  0.00    +0.000 A 
ATOM      4  C   UNL     1      49.506   6.454  15.806  0.00  0.00    +0.000 A 
ATOM      5  C   UNL     1      49.614   7.473  16.763  0.00  0.00    +0.000 A 
ATOM      6  C   UNL     1      48.944   8.681  16.539  0.00  0.00    +0.000 A 
ATOM      7  C   UNL     1      48.171   8.863  15.388  0.00  0.00    +0.000 A 
BRANCH   5   8
ATOM      8  C   UNL     1      50.458   7.274  17.993  0.00  0.00    +0.000 C 
BRANCH   8   9
ATOM      9  N   UNL     1      51.177   6.020  17.948  0.00  0.00    +0.000 N 
ATOM     10  C   UNL     1      50.590   4.869  18.431  0.00  0.00    +0.000 C 
ATOM     11  O   UNL     1      49.474   4.842  18.937  0.00  0.00    +0.000 OA
ATOM     12  H   UNL     1      51.990   5.967  17.351  0.00  0.00    +0.000 HD
BRANCH  10  13
ATOM     13  C   UNL     1      51.366   3.616  18.286  0.00  0.00    +0.000 A 
ATOM     14  C   UNL     1      50.956   2.556  17.475  0.00  0.00    +0.000 A 
ATOM     15  C   UNL     1      51.753   1.415  17.388  0.00  0.00    +0.000 A 
ATOM     16  C   UNL     1      52.934   1.378  18.114  0.00  0.00    +0.000 A 
ATOM     17  N   UNL     1      53.366   2.390  18.895  0.00  0.00    +0.000 NA
ATOM     18  C   UNL     1      52.578   3.493  18.956  0.00  0.00    +0.000 A 
ENDBRANCH  10  13
ENDBRANCH   8   9
ENDBRANCH   5   8
ENDBRANCH   1   2
BRANCH   1  20
ATOM     19  N   UNL     1      48.078   9.853  11.653  0.00  0.00    +0.000 N 
ATOM     20  C   UNL     1      48.174   8.517  11.954  0.00  0.00    +0.000 C 
ATOM     21  O   UNL     1      48.869   7.788  11.250  0.00  0.00    +0.000 OA
ATOM     22  H   UNL     1      48.546  10.158  10.809  0.00  0.00    +0.000 HD
ATOM     23  H   UNL     1      47.265  10.384  11.954  0.00  0.00    +0.000 HD
ENDBRANCH   1  20
BRANCH   1  24
ATOM     24  N   UNL     1      46.603   6.803  12.776  0.00  0.00    +0.000 N 
ATOM     25  C   UNL     1      45.485   6.777  11.990  0.00  0.00    +0.000 C 
ATOM     26  O   UNL     1      45.036   7.802  11.479  0.00  0.00    +0.000 OA
ATOM     27  H   UNL     1      46.904   5.963  13.258  0.00  0.00    +0.000 HD
BRANCH  25  28
ATOM     28  C   UNL     1      44.880   5.458  11.747  0.00  0.00    +0.000 A 
ATOM     29  C   UNL     1      44.153   4.840  12.755  0.00  0.00    +0.000 A 
ATOM     30  S   UNL     1      43.497   3.332  12.303  0.00  0.00    +0.000 S 
ATOM     31  C   UNL     1      44.205   3.422  10.760  0.00  0.00    +0.000 A 
ATOM     32  N   UNL     1      44.059   2.408   9.864  0.00  0.00    +0.000 NA
ATOM     33  C   UNL     1      44.675   2.590   8.745  0.00  0.00    +0.000 A 
ATOM     34  N   UNL     1      45.421   3.698   8.439  0.00  0.00    +0.000 N 
ATOM     35  C   UNL     1      45.557   4.767   9.293  0.00  0.00    +0.000 A 
ATOM     36  O   UNL     1      46.163   5.776   8.952  0.00  0.00    +0.000 OA
ATOM     37  C   UNL     1      44.908   4.601  10.580  0.00  0.00    +0.000 A 
ATOM     38  H   UNL     1      45.862   3.790   7.535  0.00  0.00    +0.000 HD
ENDBRANCH  25  28
ENDBRANCH   1  24
TORSDOF 7
ENDMDL
