MODEL 1
REMARK VINA RESULT:    -8.072      0.000      0.000
REMARK INTER + INTRA:         -12.513
REMARK INTER:                 -11.375
REMARK INTRA:                  -1.138
REMARK UNBOUND:                -1.138
REMARK  Name = 
REMARK  9 active torsions:
REMARK  status: ('A' for Active; 'I' for Inactive)
REMARK    1  A    between atoms: C_1  and  C_2
REMARK    2  A    between atoms: C_2  and  C_3
REMARK    3  A    between atoms: C_2  and  O_4
REMARK    4  A    between atoms: C_2  and  C_14
REMARK    5  A    between atoms: O_4  and  C_5
REMARK    6  A    between atoms: C_8  and  C_9
REMARK    7  A    between atoms: C_18  and  C_19
REMARK    8  A    between atoms: C_24  and  O_25
REMARK    9  A    between atoms: O_25  and  C_26
REMARK                            x       y       z     vdW  Elec       q    Type
REMARK                         _______ _______ _______ _____ _____    ______ ____
ROOT
ATOM      1  C   UNL     1      46.785   7.665  12.223  0.00  0.00    +0.000 A 
ATOM      2  C   UNL     1      45.631   8.468  12.323  0.00  0.00    +0.000 A 
ATOM      3  C   UNL     1      44.427   8.089  11.745  0.00  0.00    +0.000 A 
ATOM      4  C   UNL     1      44.355   6.912  11.012  0.00  0.00    +0.000 A 
ATOM      5  C   UNL     1      45.490   6.111  10.774  0.00  0.00    +0.000 A 
ATOM      6  C   UNL     1      46.695   6.507  11.411  0.00  0.00    +0.000 A 
ENDROOT
BRANCH   5   7
ATOM      7  C   UNL     1      45.393   4.966   9.809  0.00  0.00    +0.000 A 
ATOM      8  C   UNL     1      46.148   5.027   8.610  0.00  0.00    +0.000 A 
ATOM      9  C   UNL     1      46.136   4.009   7.656  0.00  0.00    +0.000 A 
ATOM     10  C   UNL     1      45.419   2.851   7.909  0.00  0.00    +0.000 A 
ATOM     11  C   UNL     1      44.679   2.742   9.085  0.00  0.00    +0.000 A 
ATOM     12  C   UNL     1      44.601   3.808   9.999  0.00  0.00    +0.000 A 
BRANCH  12  13
ATOM     13  O   UNL     1      43.776   3.790  11.091  0.00  0.00    +0.000 OA
BRANCH  13  14
ATOM     14  C   UNL     1      44.273   3.311  12.331  0.00  0.00    +0.000 C 
ATOM     15  F   UNL     1      45.557   2.895  12.286  0.00  0.00    +0.000 F 
ATOM     16  F   UNL     1      44.154   4.275  13.270  0.00  0.00    +0.000 F 
ATOM     17  F   UNL     1      43.519   2.256  12.717  0.00  0.00    +0.000 F 
ENDBRANCH  13  14
ENDBRANCH  12  13
ENDBRANCH   5   7
BRANCH   1  19
ATOM     18  C   UNL     1      47.808   8.963  14.155  0.00  0.00    +0.000 C 
ATOM     19  C   UNL     1      48.124   8.118  12.889  0.00  0.00    +0.000 C 
ATOM     20  C   UNL     1      48.866   8.924  11.803  0.00  0.00    +0.000 C 
BRANCH  19  21
ATOM     21  O   UNL     1      48.871   6.925  13.263  0.00  0.00    +0.000 OA
BRANCH  21  22
ATOM     22  C   UNL     1      48.421   6.174  14.335  0.00  0.00    +0.000 A 
ATOM     23  C   UNL     1      48.931   6.441  15.603  0.00  0.00    +0.000 A 
ATOM     24  N   UNL     1      48.589   5.721  16.712  0.00  0.00    +0.000 NA
ATOM     25  C   UNL     1      47.697   4.711  16.488  0.00  0.00    +0.000 A 
ATOM     26  C   UNL     1      47.176   4.457  15.234  0.00  0.00    +0.000 A 
ATOM     27  N   UNL     1      47.518   5.190  14.146  0.00  0.00    +0.000 NA
BRANCH  25  28
ATOM     28  C   UNL     1      47.282   3.840  17.625  0.00  0.00    +0.000 C 
ATOM     29  N   UNL     1      47.725   4.227  18.862  0.00  0.00    +0.000 N 
ATOM     30  O   UNL     1      46.596   2.832  17.465  0.00  0.00    +0.000 OA
ATOM     31  H   UNL     1      48.304   5.053  18.964  0.00  0.00    +0.000 HD
ATOM     32  H   UNL     1      47.491   3.663  19.666  0.00  0.00    +0.000 HD
ENDBRANCH  25  28
ENDBRANCH  21  22
ENDBRANCH  19  21
ENDBRANCH   1  19
TORSDOF 7
ENDMDL
MODEL 2
REMARK VINA RESULT:    -7.164      2.815      6.903
REMARK INTER + INTRA:         -11.234
REMARK INTER:                  -9.727
REMARK INTRA:                  -1.507
REMARK UNBOUND:                -1.138
REMARK  Name = 
REMARK  9 active torsions:
REMARK  status: ('A' for Active; 'I' for Inactive)
REMARK    1  A    between atoms: C_1  and  C_2
REMARK    2  A    between atoms: C_2  and  C_3
REMARK    3  A    between atoms: C_2  and  O_4
REMARK    4  A    between atoms: C_2  and  C_14
REMARK    5  A    between atoms: O_4  and  C_5
REMARK    6  A    between atoms: C_8  and  C_9
REMARK    7  A    between atoms: C_18  and  C_19
REMARK    8  A    between atoms: C_24  and  O_25
REMARK    9  A    between atoms: O_25  and  C_26
REMARK                            x       y       z     vdW  Elec       q    Type
REMARK                         _______ _______ _______ _____ _____    ______ ____
ROOT
ATOM      1  C   UNL     1      48.660   7.586  13.863  0.00  0.00    +0.000 A 
ATOM      2  C   UNL     1      49.952   8.071  13.580  0.00  0.00    +0.000 A 
ATOM      3  C   UNL     1      51.013   7.866  14.451  0.00  0.00    +0.000 A 
ATOM      4  C   UNL     1      50.801   7.204  15.654  0.00  0.00    +0.000 A 
ATOM      5  C   UNL     1      49.518   6.786  16.057  0.00  0.00    +0.000 A 
ATOM      6  C   UNL     1      48.462   6.977  15.127  0.00  0.00    +0.000 A 
ENDROOT
BRANCH   5   7
ATOM      7  C   UNL     1      49.319   6.263  17.450  0.00  0.00    +0.000 A 
ATOM      8  C   UNL     1      49.465   7.163  18.537  0.00  0.00    +0.000 A 
ATOM      9  C   UNL     1      49.288   6.777  19.866  0.00  0.00    +0.000 A 
ATOM     10  C   UNL     1      48.883   5.484  20.149  0.00  0.00    +0.000 A 
ATOM     11  C   UNL     1      48.708   4.573  19.109  0.00  0.00    +0.000 A 
ATOM     12  C   UNL     1      48.989   4.926  17.776  0.00  0.00    +0.000 A 
BRANCH  12  13
ATOM     13  O   UNL     1      48.964   4.022  16.749  0.00  0.00    +0.000 OA
BRANCH  13  14
ATOM     14  C   UNL     1      47.742   3.385  16.410  0.00  0.00    +0.000 C 
ATOM     15  F   UNL     1      47.713   2.882  15.157  0.00  0.00    +0.000 F 
ATOM     16  F   UNL     1      47.489   2.393  17.290  0.00  0.00    +0.000 F 
ATOM     17  F   UNL     1      46.744   4.294  16.505  0.00  0.00    +0.000 F 
ENDBRANCH  13  14
ENDBRANCH  12  13
ENDBRANCH   5   7
BRANCH   1  19
ATOM     18  C   UNL     1      47.767   7.051  11.543  0.00  0.00    +0.000 C 
ATOM     19  C   UNL     1      47.486   7.829  12.859  0.00  0.00    +0.000 C 
ATOM     20  C   UNL     1      47.439   9.356  12.651  0.00  0.00    +0.000 C 
BRANCH  19  21
ATOM     21  O   UNL     1      46.258   7.342  13.471  0.00  0.00    +0.000 OA
BRANCH  21  22
ATOM     22  C   UNL     1      45.628   6.246  12.906  0.00  0.00    +0.000 A 
ATOM     23  C   UNL     1      45.974   4.971  13.347  0.00  0.00    +0.000 A 
ATOM     24  N   UNL     1      45.448   3.829  12.814  0.00  0.00    +0.000 NA
ATOM     25  C   UNL     1      44.543   4.027  11.810  0.00  0.00    +0.000 A 
ATOM     26  C   UNL     1      44.185   5.292  11.385  0.00  0.00    +0.000 A 
ATOM     27  N   UNL     1      44.709   6.416  11.933  0.00  0.00    +0.000 NA
BRANCH  25  28
ATOM     28  C   UNL     1      43.934   2.847  11.135  0.00  0.00    +0.000 C 
ATOM     29  N   UNL     1      44.625   2.354  10.060  0.00  0.00    +0.000 N 
ATOM     30  O   UNL     1      42.872   2.350  11.509  0.00  0.00    +0.000 OA
ATOM     31  H   UNL     1      45.489   2.792   9.761  0.00  0.00    +0.000 HD
ATOM     32  H   UNL     1      44.248   1.567   9.552  0.00  0.00    +0.000 HD
ENDBRANCH  25  28
ENDBRANCH  21  22
ENDBRANCH  19  21
ENDBRANCH   1  19
TORSDOF 7
ENDMDL
MODEL 3
REMARK VINA RESULT:    -7.056      2.775      6.754
REMARK INTER + INTRA:         -11.081
REMARK INTER:                  -9.663
REMARK INTRA:                  -1.418
REMARK UNBOUND:                -1.138
REMARK  Name = 
REMARK  9 active torsions:
REMARK  status: ('A' for Active; 'I' for Inactive)
REMARK    1  A    between atoms: C_1  and  C_2
REMARK    2  A    between atoms: C_2  and  C_3
REMARK    3  A    between atoms: C_2  and  O_4
REMARK    4  A    between atoms: C_2  and  C_14
REMARK    5  A    between atoms: O_4  and  C_5
REMARK    6  A    between atoms: C_8  and  C_9
REMARK    7  A    between atoms: C_18  and  C_19
REMARK    8  A    between atoms: C_24  and  O_25
REMARK    9  A    between atoms: O_25  and  C_26
REMARK                            x       y       z     vdW  Elec       q    Type
REMARK                         _______ _______ _______ _____ _____    ______ ____
ROOT
ATOM      1  C   UNL     1      48.219   8.047  14.511  0.00  0.00    +0.000 A 
ATOM      2  C   UNL     1      47.915   9.098  15.399  0.00  0.00    +0.000 A 
ATOM      3  C   UNL     1      48.431   9.135  16.687  0.00  0.00    +0.000 A 
ATOM      4  C   UNL     1      49.233   8.094  17.139  0.00  0.00    +0.000 A 
ATOM      5  C   UNL     1      49.492   6.957  16.350  0.00  0.00    +0.000 A 
ATOM      6  C   UNL     1      48.982   6.969  15.025  0.00  0.00    +0.000 A 
ENDROOT
BRANCH   5   7
ATOM      7  C   UNL     1      50.192   5.780  16.964  0.00  0.00    +0.000 A 
ATOM      8  C   UNL     1      51.610   5.742  16.927  0.00  0.00    +0.000 A 
ATOM      9  C   UNL     1      52.353   4.700  17.482  0.00  0.00    +0.000 A 
ATOM     10  C   UNL     1      51.698   3.687  18.163  0.00  0.00    +0.000 A 
ATOM     11  C   UNL     1      50.306   3.697  18.240  0.00  0.00    +0.000 A 
ATOM     12  C   UNL     1      49.547   4.687  17.590  0.00  0.00    +0.000 A 
BRANCH  12  13
ATOM     13  O   UNL     1      48.180   4.651  17.526  0.00  0.00    +0.000 OA
BRANCH  13  14
ATOM     14  C   UNL     1      47.544   3.600  16.816  0.00  0.00    +0.000 C 
ATOM     15  F   UNL     1      48.379   2.873  16.044  0.00  0.00    +0.000 F 
ATOM     16  F   UNL     1      46.919   2.778  17.687  0.00  0.00    +0.000 F 
ATOM     17  F   UNL     1      46.606   4.138  16.003  0.00  0.00    +0.000 F 
ENDBRANCH  13  14
ENDBRANCH  12  13
ENDBRANCH   5   7
BRANCH   1  19
ATOM     18  C   UNL     1      48.349   6.949  12.222  0.00  0.00    +0.000 C 
ATOM     19  C   UNL     1      47.627   8.038  13.064  0.00  0.00    +0.000 C 
ATOM     20  C   UNL     1      47.857   9.463  12.521  0.00  0.00    +0.000 C 
BRANCH  19  21
ATOM     21  O   UNL     1      46.207   7.732  13.157  0.00  0.00    +0.000 OA
BRANCH  21  22
ATOM     22  C   UNL     1      45.751   6.542  12.617  0.00  0.00    +0.000 A 
ATOM     23  C   UNL     1      45.154   6.561  11.358  0.00  0.00    +0.000 A 
ATOM     24  N   UNL     1      44.627   5.449  10.766  0.00  0.00    +0.000 NA
ATOM     25  C   UNL     1      44.732   4.302  11.501  0.00  0.00    +0.000 A 
ATOM     26  C   UNL     1      45.341   4.279  12.741  0.00  0.00    +0.000 A 
ATOM     27  N   UNL     1      45.869   5.390  13.309  0.00  0.00    +0.000 NA
BRANCH  25  28
ATOM     28  C   UNL     1      44.158   3.037  10.962  0.00  0.00    +0.000 C 
ATOM     29  N   UNL     1      44.928   2.382  10.037  0.00  0.00    +0.000 N 
ATOM     30  O   UNL     1      43.059   2.610  11.313  0.00  0.00    +0.000 OA
ATOM     31  H   UNL     1      45.822   2.763   9.752  0.00  0.00    +0.000 HD
ATOM     32  H   UNL     1      44.580   1.529   9.623  0.00  0.00    +0.000 HD
ENDBRANCH  25  28
ENDBRANCH  21  22
ENDBRANCH  19  21
ENDBRANCH   1  19
TORSDOF 7
ENDMDL
MODEL 4
REMARK VINA RESULT:    -7.022      2.965      7.355
REMARK INTER + INTRA:         -11.034
REMARK INTER:                  -9.352
REMARK INTRA:                  -1.682
REMARK UNBOUND:                -1.138
REMARK  Name = 
REMARK  9 active torsions:
REMARK  status: ('A' for Active; 'I' for Inactive)
REMARK    1  A    between atoms: C_1  and  C_2
REMARK    2  A    between atoms: C_2  and  C_3
REMARK    3  A    between atoms: C_2  and  O_4
REMARK    4  A    between atoms: C_2  and  C_14
REMARK    5  A    between atoms: O_4  and  C_5
REMARK    6  A    between atoms: C_8  and  C_9
REMARK    7  A    between atoms: C_18  and  C_19
REMARK    8  A    between atoms: C_24  and  O_25
REMARK    9  A    between atoms: O_25  and  C_26
REMARK                            x       y       z     vdW  Elec       q    Type
REMARK                         _______ _______ _______ _____ _____    ______ ____
ROOT
ATOM      1  C   UNL     1      49.558   7.248  14.712  0.00  0.00    +0.000 A 
ATOM      2  C   UNL     1      50.920   7.592  14.820  0.00  0.00    +0.000 A 
ATOM      3  C   UNL     1      51.607   7.482  16.021  0.00  0.00    +0.000 A 
ATOM      4  C   UNL     1      50.935   7.064  17.163  0.00  0.00    +0.000 A 
ATOM      5  C   UNL     1      49.550   6.806  17.161  0.00  0.00    +0.000 A 
ATOM      6  C   UNL     1      48.887   6.892  15.908  0.00  0.00    +0.000 A 
ENDROOT
BRANCH   5   7
ATOM      7  C   UNL     1      48.846   6.558  18.462  0.00  0.00    +0.000 A 
ATOM      8  C   UNL     1      48.584   7.664  19.312  0.00  0.00    +0.000 A 
ATOM      9  C   UNL     1      47.924   7.539  20.534  0.00  0.00    +0.000 A 
ATOM     10  C   UNL     1      47.435   6.301  20.918  0.00  0.00    +0.000 A 
ATOM     11  C   UNL     1      47.653   5.191  20.103  0.00  0.00    +0.000 A 
ATOM     12  C   UNL     1      48.411   5.292  18.922  0.00  0.00    +0.000 A 
BRANCH  12  13
ATOM     13  O   UNL     1      48.763   4.202  18.172  0.00  0.00    +0.000 OA
BRANCH  13  14
ATOM     14  C   UNL     1      47.793   3.587  17.339  0.00  0.00    +0.000 C 
ATOM     15  F   UNL     1      46.814   4.421  16.926  0.00  0.00    +0.000 F 
ATOM     16  F   UNL     1      48.400   3.049  16.258  0.00  0.00    +0.000 F 
ATOM     17  F   UNL     1      47.206   2.584  18.031  0.00  0.00    +0.000 F 
ENDBRANCH  13  14
ENDBRANCH  12  13
ENDBRANCH   5   7
BRANCH   1  19
ATOM     18  C   UNL     1      49.783   7.987  12.290  0.00  0.00    +0.000 C 
ATOM     19  C   UNL     1      48.815   7.379  13.343  0.00  0.00    +0.000 C 
ATOM     20  C   UNL     1      47.597   8.282  13.626  0.00  0.00    +0.000 C 
BRANCH  19  21
ATOM     21  O   UNL     1      48.398   6.048  12.924  0.00  0.00    +0.000 OA
BRANCH  21  22
ATOM     22  C   UNL     1      47.067   5.842  12.606  0.00  0.00    +0.000 A 
ATOM     23  C   UNL     1      46.251   5.185  13.524  0.00  0.00    +0.000 A 
ATOM     24  N   UNL     1      44.940   4.890  13.279  0.00  0.00    +0.000 NA
ATOM     25  C   UNL     1      44.479   5.294  12.058  0.00  0.00    +0.000 A 
ATOM     26  C   UNL     1      45.282   5.962  11.155  0.00  0.00    +0.000 A 
ATOM     27  N   UNL     1      46.579   6.257  11.419  0.00  0.00    +0.000 NA
BRANCH  25  28
ATOM     28  C   UNL     1      43.071   4.990  11.675  0.00  0.00    +0.000 C 
ATOM     29  N   UNL     1      42.191   6.036  11.769  0.00  0.00    +0.000 N 
ATOM     30  O   UNL     1      42.715   3.872  11.309  0.00  0.00    +0.000 OA
ATOM     31  H   UNL     1      42.506   6.944  12.090  0.00  0.00    +0.000 HD
ATOM     32  H   UNL     1      41.219   5.883  11.541  0.00  0.00    +0.000 HD
ENDBRANCH  25  28
ENDBRANCH  21  22
ENDBRANCH  19  21
ENDBRANCH   1  19
TORSDOF 7
ENDMDL
MODEL 5
REMARK VINA RESULT:    -6.383      2.298      2.868
REMARK INTER + INTRA:         -10.133
REMARK INTER:                  -8.833
REMARK INTRA:                  -1.300
REMARK UNBOUND:                -1.138
REMARK  Name = 
REMARK  9 active torsions:
REMARK  status: ('A' for Active; 'I' for Inactive)
REMARK    1  A    between atoms: C_1  and  C_2
REMARK    2  A    between atoms: C_2  and  C_3
REMARK    3  A    between atoms: C_2  and  O_4
REMARK    4  A    between atoms: C_2  and  C_14
REMARK    5  A    between atoms: O_4  and  C_5
REMARK    6  A    between atoms: C_8  and  C_9
REMARK    7  A    between atoms: C_18  and  C_19
REMARK    8  A    between atoms: C_24  and  O_25
REMARK    9  A    between atoms: O_25  and  C_26
REMARK                            x       y       z     vdW  Elec       q    Type
REMARK                         _______ _______ _______ _____ _____    ______ ____
ROOT
ATOM      1  C   UNL     1      47.017   7.527  12.512  0.00  0.00    +0.000 A 
ATOM      2  C   UNL     1      45.931   8.425  12.503  0.00  0.00    +0.000 A 
ATOM      3  C   UNL     1      44.740   8.121  11.857  0.00  0.00    +0.000 A 
ATOM      4  C   UNL     1      44.618   6.923  11.164  0.00  0.00    +0.000 A 
ATOM      5  C   UNL     1      45.694   6.023  11.035  0.00  0.00    +0.000 A 
ATOM      6  C   UNL     1      46.884   6.347  11.739  0.00  0.00    +0.000 A 
ENDROOT
BRANCH   5   7
ATOM      7  C   UNL     1      45.565   4.851  10.108  0.00  0.00    +0.000 A 
ATOM      8  C   UNL     1      45.861   5.039   8.734  0.00  0.00    +0.000 A 
ATOM      9  C   UNL     1      45.785   4.010   7.796  0.00  0.00    +0.000 A 
ATOM     10  C   UNL     1      45.477   2.728   8.219  0.00  0.00    +0.000 A 
ATOM     11  C   UNL     1      45.199   2.494   9.564  0.00  0.00    +0.000 A 
ATOM     12  C   UNL     1      45.169   3.548  10.496  0.00  0.00    +0.000 A 
BRANCH  12  13
ATOM     13  O   UNL     1      44.765   3.380  11.793  0.00  0.00    +0.000 OA
BRANCH  13  14
ATOM     14  C   UNL     1      43.383   3.228  12.078  0.00  0.00    +0.000 C 
ATOM     15  F   UNL     1      42.896   2.000  11.796  0.00  0.00    +0.000 F 
ATOM     16  F   UNL     1      43.156   3.505  13.380  0.00  0.00    +0.000 F 
ATOM     17  F   UNL     1      42.690   4.120  11.333  0.00  0.00    +0.000 F 
ENDBRANCH  13  14
ENDBRANCH  12  13
ENDBRANCH   5   7
BRANCH   1  19
ATOM     18  C   UNL     1      48.229   9.340  13.819  0.00  0.00    +0.000 C 
ATOM     19  C   UNL     1      48.343   7.897  13.253  0.00  0.00    +0.000 C 
ATOM     20  C   UNL     1      49.454   7.758  12.192  0.00  0.00    +0.000 C 
BRANCH  19  21
ATOM     21  O   UNL     1      48.533   6.950  14.343  0.00  0.00    +0.000 OA
BRANCH  21  22
ATOM     22  C   UNL     1      49.275   7.347  15.441  0.00  0.00    +0.000 A 
ATOM     23  C   UNL     1      50.662   7.230  15.393  0.00  0.00    +0.000 A 
ATOM     24  N   UNL     1      51.474   7.547  16.444  0.00  0.00    +0.000 NA
ATOM     25  C   UNL     1      50.824   7.996  17.558  0.00  0.00    +0.000 A 
ATOM     26  C   UNL     1      49.450   8.131  17.601  0.00  0.00    +0.000 A 
ATOM     27  N   UNL     1      48.659   7.823  16.543  0.00  0.00    +0.000 NA
BRANCH  25  28
ATOM     28  C   UNL     1      51.614   8.337  18.775  0.00  0.00    +0.000 C 
ATOM     29  N   UNL     1      52.897   8.761  18.551  0.00  0.00    +0.000 N 
ATOM     30  O   UNL     1      51.152   8.233  19.910  0.00  0.00    +0.000 OA
ATOM     31  H   UNL     1      53.260   8.821  17.607  0.00  0.00    +0.000 HD
ATOM     32  H   UNL     1      53.485   8.987  19.340  0.00  0.00    +0.000 HD
ENDBRANCH  25  28
ENDBRANCH  21  22
ENDBRANCH  19  21
ENDBRANCH   1  19
TORSDOF 7
ENDMDL
MODEL 6
REMARK VINA RESULT:    -6.117      2.435      3.286
REMARK INTER + INTRA:          -9.759
REMARK INTER:                  -9.084
REMARK INTRA:                  -0.675
REMARK UNBOUND:                -1.138
REMARK  Name = 
REMARK  9 active torsions:
REMARK  status: ('A' for Active; 'I' for Inactive)
REMARK    1  A    between atoms: C_1  and  C_2
REMARK    2  A    between atoms: C_2  and  C_3
REMARK    3  A    between atoms: C_2  and  O_4
REMARK    4  A    between atoms: C_2  and  C_14
REMARK    5  A    between atoms: O_4  and  C_5
REMARK    6  A    between atoms: C_8  and  C_9
REMARK    7  A    between atoms: C_18  and  C_19
REMARK    8  A    between atoms: C_24  and  O_25
REMARK    9  A    between atoms: O_25  and  C_26
REMARK                            x       y       z     vdW  Elec       q    Type
REMARK                         _______ _______ _______ _____ _____    ______ ____
ROOT
ATOM      1  C   UNL     1      47.522   7.811  12.482  0.00  0.00    +0.000 A 
ATOM      2  C   UNL     1      46.772   8.948  12.123  0.00  0.00    +0.000 A 
ATOM      3  C   UNL     1      45.424   8.862  11.807  0.00  0.00    +0.000 A 
ATOM      4  C   UNL     1      44.794   7.624  11.799  0.00  0.00    +0.000 A 
ATOM      5  C   UNL     1      45.500   6.428  12.040  0.00  0.00    +0.000 A 
ATOM      6  C   UNL     1      46.868   6.556  12.398  0.00  0.00    +0.000 A 
ENDROOT
BRANCH   5   7
ATOM      7  C   UNL     1      44.815   5.112  11.818  0.00  0.00    +0.000 A 
ATOM      8  C   UNL     1      44.158   4.498  12.916  0.00  0.00    +0.000 A 
ATOM      9  C   UNL     1      43.481   3.283  12.808  0.00  0.00    +0.000 A 
ATOM     10  C   UNL     1      43.375   2.673  11.570  0.00  0.00    +0.000 A 
ATOM     11  C   UNL     1      43.988   3.253  10.461  0.00  0.00    +0.000 A 
ATOM     12  C   UNL     1      44.762   4.421  10.584  0.00  0.00    +0.000 A 
BRANCH  12  13
ATOM     13  O   UNL     1      45.492   4.940   9.549  0.00  0.00    +0.000 OA
BRANCH  13  14
ATOM     14  C   UNL     1      45.750   4.138   8.407  0.00  0.00    +0.000 C 
ATOM     15  F   UNL     1      46.105   2.868   8.696  0.00  0.00    +0.000 F 
ATOM     16  F   UNL     1      44.660   4.121   7.609  0.00  0.00    +0.000 F 
ATOM     17  F   UNL     1      46.768   4.695   7.712  0.00  0.00    +0.000 F 
ENDBRANCH  13  14
ENDBRANCH  12  13
ENDBRANCH   5   7
BRANCH   1  19
ATOM     18  C   UNL     1      49.255   9.219  13.696  0.00  0.00    +0.000 C 
ATOM     19  C   UNL     1      49.038   7.942  12.839  0.00  0.00    +0.000 C 
ATOM     20  C   UNL     1      49.770   8.002  11.482  0.00  0.00    +0.000 C 
BRANCH  19  21
ATOM     21  O   UNL     1      49.429   6.762  13.597  0.00  0.00    +0.000 OA
BRANCH  21  22
ATOM     22  C   UNL     1      49.555   6.872  14.971  0.00  0.00    +0.000 A 
ATOM     23  C   UNL     1      50.790   7.229  15.506  0.00  0.00    +0.000 A 
ATOM     24  N   UNL     1      51.025   7.311  16.849  0.00  0.00    +0.000 NA
ATOM     25  C   UNL     1      49.950   7.022  17.640  0.00  0.00    +0.000 A 
ATOM     26  C   UNL     1      48.719   6.687  17.110  0.00  0.00    +0.000 A 
ATOM     27  N   UNL     1      48.500   6.621  15.773  0.00  0.00    +0.000 NA
BRANCH  25  28
ATOM     28  C   UNL     1      50.107   7.049  19.122  0.00  0.00    +0.000 C 
ATOM     29  N   UNL     1      51.309   6.597  19.600  0.00  0.00    +0.000 N 
ATOM     30  O   UNL     1      49.214   7.440  19.871  0.00  0.00    +0.000 OA
ATOM     31  H   UNL     1      52.022   6.264  18.962  0.00  0.00    +0.000 HD
ATOM     32  H   UNL     1      51.464   6.574  20.597  0.00  0.00    +0.000 HD
ENDBRANCH  25  28
ENDBRANCH  21  22
ENDBRANCH  19  21
ENDBRANCH   1  19
TORSDOF 7
ENDMDL
MODEL 7
REMARK VINA RESULT:    -6.112      3.013      4.601
REMARK INTER + INTRA:          -9.751
REMARK INTER:                  -8.092
REMARK INTRA:                  -1.659
REMARK UNBOUND:                -1.138
REMARK  Name = 
REMARK  9 active torsions:
REMARK  status: ('A' for Active; 'I' for Inactive)
REMARK    1  A    between atoms: C_1  and  C_2
REMARK    2  A    between atoms: C_2  and  C_3
REMARK    3  A    between atoms: C_2  and  O_4
REMARK    4  A    between atoms: C_2  and  C_14
REMARK    5  A    between atoms: O_4  and  C_5
REMARK    6  A    between atoms: C_8  and  C_9
REMARK    7  A    between atoms: C_18  and  C_19
REMARK    8  A    between atoms: C_24  and  O_25
REMARK    9  A    between atoms: O_25  and  C_26
REMARK                            x       y       z     vdW  Elec       q    Type
REMARK                         _______ _______ _______ _____ _____    ______ ____
ROOT
ATOM      1  C   UNL     1      49.847   8.831  14.089  0.00  0.00    +0.000 A 
ATOM      2  C   UNL     1      50.540   8.167  13.058  0.00  0.00    +0.000 A 
ATOM      3  C   UNL     1      50.104   8.210  11.742  0.00  0.00    +0.000 A 
ATOM      4  C   UNL     1      48.932   8.887  11.425  0.00  0.00    +0.000 A 
ATOM      5  C   UNL     1      48.126   9.483  12.415  0.00  0.00    +0.000 A 
ATOM      6  C   UNL     1      48.621   9.453  13.745  0.00  0.00    +0.000 A 
ENDROOT
BRANCH   5   7
ATOM      7  C   UNL     1      46.776  10.019  12.038  0.00  0.00    +0.000 A 
ATOM      8  C   UNL     1      46.709  11.254  11.343  0.00  0.00    +0.000 A 
ATOM      9  C   UNL     1      45.504  11.829  10.937  0.00  0.00    +0.000 A 
ATOM     10  C   UNL     1      44.320  11.143  11.151  0.00  0.00    +0.000 A 
ATOM     11  C   UNL     1      44.343   9.917  11.812  0.00  0.00    +0.000 A 
ATOM     12  C   UNL     1      45.543   9.384  12.318  0.00  0.00    +0.000 A 
BRANCH  12  13
ATOM     13  O   UNL     1      45.585   8.256  13.092  0.00  0.00    +0.000 OA
BRANCH  13  14
ATOM     14  C   UNL     1      45.676   6.985  12.467  0.00  0.00    +0.000 C 
ATOM     15  F   UNL     1      45.560   7.024  11.122  0.00  0.00    +0.000 F 
ATOM     16  F   UNL     1      46.851   6.404  12.791  0.00  0.00    +0.000 F 
ATOM     17  F   UNL     1      44.678   6.202  12.937  0.00  0.00    +0.000 F 
ENDBRANCH  13  14
ENDBRANCH  12  13
ENDBRANCH   5   7
BRANCH   1  19
ATOM     18  C   UNL     1      49.190   9.056  16.535  0.00  0.00    +0.000 C 
ATOM     19  C   UNL     1      50.368   8.767  15.562  0.00  0.00    +0.000 C 
ATOM     20  C   UNL     1      51.484   9.828  15.645  0.00  0.00    +0.000 C 
BRANCH  19  21
ATOM     21  O   UNL     1      50.892   7.430  15.800  0.00  0.00    +0.000 OA
BRANCH  21  22
ATOM     22  C   UNL     1      50.046   6.476  16.338  0.00  0.00    +0.000 A 
ATOM     23  C   UNL     1      50.329   5.963  17.602  0.00  0.00    +0.000 A 
ATOM     24  N   UNL     1      49.584   4.982  18.192  0.00  0.00    +0.000 NA
ATOM     25  C   UNL     1      48.528   4.537  17.450  0.00  0.00    +0.000 A 
ATOM     26  C   UNL     1      48.235   5.057  16.204  0.00  0.00    +0.000 A 
ATOM     27  N   UNL     1      48.979   6.040  15.637  0.00  0.00    +0.000 NA
BRANCH  25  28
ATOM     28  C   UNL     1      47.670   3.442  17.987  0.00  0.00    +0.000 C 
ATOM     29  N   UNL     1      48.096   2.874  19.158  0.00  0.00    +0.000 N 
ATOM     30  O   UNL     1      46.651   3.063  17.413  0.00  0.00    +0.000 OA
ATOM     31  H   UNL     1      48.949   3.193  19.603  0.00  0.00    +0.000 HD
ATOM     32  H   UNL     1      47.564   2.114  19.558  0.00  0.00    +0.000 HD
ENDBRANCH  25  28
ENDBRANCH  21  22
ENDBRANCH  19  21
ENDBRANCH   1  19
TORSDOF 7
ENDMDL
MODEL 8
REMARK VINA RESULT:    -6.027      3.152      4.721
REMARK INTER + INTRA:          -9.632
REMARK INTER:                  -8.571
REMARK INTRA:                  -1.061
REMARK UNBOUND:                -1.138
REMARK  Name = 
REMARK  9 active torsions:
REMARK  status: ('A' for Active; 'I' for Inactive)
REMARK    1  A    between atoms: C_1  and  C_2
REMARK    2  A    between atoms: C_2  and  C_3
REMARK    3  A    between atoms: C_2  and  O_4
REMARK    4  A    between atoms: C_2  and  C_14
REMARK    5  A    between atoms: O_4  and  C_5
REMARK    6  A    between atoms: C_8  and  C_9
REMARK    7  A    between atoms: C_18  and  C_19
REMARK    8  A    between atoms: C_24  and  O_25
REMARK    9  A    between atoms: O_25  and  C_26
REMARK                            x       y       z     vdW  Elec       q    Type
REMARK                         _______ _______ _______ _____ _____    ______ ____
ROOT
ATOM      1  C   UNL     1      47.243   8.082  12.461  0.00  0.00    +0.000 A 
ATOM      2  C   UNL     1      46.241   9.071  12.514  0.00  0.00    +0.000 A 
ATOM      3  C   UNL     1      44.977   8.858  11.983  0.00  0.00    +0.000 A 
ATOM      4  C   UNL     1      44.692   7.659  11.342  0.00  0.00    +0.000 A 
ATOM      5  C   UNL     1      45.671   6.664  11.153  0.00  0.00    +0.000 A 
ATOM      6  C   UNL     1      46.942   6.898  11.742  0.00  0.00    +0.000 A 
ENDROOT
BRANCH   5   7
ATOM      7  C   UNL     1      45.361   5.484  10.279  0.00  0.00    +0.000 A 
ATOM      8  C   UNL     1      46.055   5.353   9.048  0.00  0.00    +0.000 A 
ATOM      9  C   UNL     1      45.848   4.286   8.174  0.00  0.00    +0.000 A 
ATOM     10  C   UNL     1      44.985   3.266   8.540  0.00  0.00    +0.000 A 
ATOM     11  C   UNL     1      44.298   3.346   9.750  0.00  0.00    +0.000 A 
ATOM     12  C   UNL     1      44.422   4.471  10.585  0.00  0.00    +0.000 A 
BRANCH  12  13
ATOM     13  O   UNL     1      43.660   4.647  11.709  0.00  0.00    +0.000 OA
BRANCH  13  14
ATOM     14  C   UNL     1      44.097   4.096  12.941  0.00  0.00    +0.000 C 
ATOM     15  F   UNL     1      44.965   4.879  13.617  0.00  0.00    +0.000 F 
ATOM     16  F   UNL     1      43.029   3.839  13.727  0.00  0.00    +0.000 F 
ATOM     17  F   UNL     1      44.722   2.923  12.689  0.00  0.00    +0.000 F 
ENDBRANCH  13  14
ENDBRANCH  12  13
ENDBRANCH   5   7
BRANCH   1  19
ATOM     18  C   UNL     1      49.338   6.994  13.404  0.00  0.00    +0.000 C 
ATOM     19  C   UNL     1      48.656   8.351  13.074  0.00  0.00    +0.000 C 
ATOM     20  C   UNL     1      48.397   9.210  14.329  0.00  0.00    +0.000 C 
BRANCH  19  21
ATOM     21  O   UNL     1      49.445   9.078  12.091  0.00  0.00    +0.000 OA
BRANCH  21  22
ATOM     22  C   UNL     1      50.664   8.551  11.703  0.00  0.00    +0.000 A 
ATOM     23  C   UNL     1      51.819   8.980  12.352  0.00  0.00    +0.000 A 
ATOM     24  N   UNL     1      53.071   8.557  12.005  0.00  0.00    +0.000 NA
ATOM     25  C   UNL     1      53.111   7.669  10.967  0.00  0.00    +0.000 A 
ATOM     26  C   UNL     1      51.964   7.229  10.335  0.00  0.00    +0.000 A 
ATOM     27  N   UNL     1      50.728   7.650  10.700  0.00  0.00    +0.000 NA
BRANCH  25  28
ATOM     28  C   UNL     1      54.430   7.171  10.485  0.00  0.00    +0.000 C 
ATOM     29  N   UNL     1      55.078   6.302  11.322  0.00  0.00    +0.000 N 
ATOM     30  O   UNL     1      54.914   7.524   9.411  0.00  0.00    +0.000 OA
ATOM     31  H   UNL     1      54.665   6.040  12.210  0.00  0.00    +0.000 HD
ATOM     32  H   UNL     1      55.985   5.947  11.055  0.00  0.00    +0.000 HD
ENDBRANCH  25  28
ENDBRANCH  21  22
ENDBRANCH  19  21
ENDBRANCH   1  19
TORSDOF 7
ENDMDL
MODEL 9
REMARK VINA RESULT:    -5.826      4.085      7.182
REMARK INTER + INTRA:          -9.348
REMARK INTER:                  -8.108
REMARK INTRA:                  -1.240
REMARK UNBOUND:                -1.138
REMARK  Name = 
REMARK  9 active torsions:
REMARK  status: ('A' for Active; 'I' for Inactive)
REMARK    1  A    between atoms: C_1  and  C_2
REMARK    2  A    between atoms: C_2  and  C_3
REMARK    3  A    between atoms: C_2  and  O_4
REMARK    4  A    between atoms: C_2  and  C_14
REMARK    5  A    between atoms: O_4  and  C_5
REMARK    6  A    between atoms: C_8  and  C_9
REMARK    7  A    between atoms: C_18  and  C_19
REMARK    8  A    between atoms: C_24  and  O_25
REMARK    9  A    between atoms: O_25  and  C_26
REMARK                            x       y       z     vdW  Elec       q    Type
REMARK                         _______ _______ _______ _____ _____    ______ ____
ROOT
ATOM      1  C   UNL     1      50.080   8.035  13.681  0.00  0.00    +0.000 A 
ATOM      2  C   UNL     1      51.154   8.050  14.592  0.00  0.00    +0.000 A 
ATOM      3  C   UNL     1      52.337   8.721  14.314  0.00  0.00    +0.000 A 
ATOM      4  C   UNL     1      52.494   9.363  13.092  0.00  0.00    +0.000 A 
ATOM      5  C   UNL     1      51.509   9.302  12.086  0.00  0.00    +0.000 A 
ATOM      6  C   UNL     1      50.298   8.640  12.418  0.00  0.00    +0.000 A 
ENDROOT
BRANCH   5   7
ATOM      7  C   UNL     1      51.820   9.839  10.720  0.00  0.00    +0.000 A 
ATOM      8  C   UNL     1      51.163  11.022  10.293  0.00  0.00    +0.000 A 
ATOM      9  C   UNL     1      51.393  11.607   9.047  0.00  0.00    +0.000 A 
ATOM     10  C   UNL     1      52.352  11.064   8.210  0.00  0.00    +0.000 A 
ATOM     11  C   UNL     1      53.036   9.914   8.599  0.00  0.00    +0.000 A 
ATOM     12  C   UNL     1      52.731   9.258   9.806  0.00  0.00    +0.000 A 
BRANCH  12  13
ATOM     13  O   UNL     1      53.280   8.054  10.155  0.00  0.00    +0.000 OA
BRANCH  13  14
ATOM     14  C   UNL     1      52.763   6.861   9.587  0.00  0.00    +0.000 C 
ATOM     15  F   UNL     1      53.101   5.740  10.260  0.00  0.00    +0.000 F 
ATOM     16  F   UNL     1      51.417   6.942   9.512  0.00  0.00    +0.000 F 
ATOM     17  F   UNL     1      53.246   6.739   8.329  0.00  0.00    +0.000 F 
ENDBRANCH  13  14
ENDBRANCH  12  13
ENDBRANCH   5   7
BRANCH   1  19
ATOM     18  C   UNL     1      47.549   8.226  13.819  0.00  0.00    +0.000 C 
ATOM     19  C   UNL     1      48.759   7.274  14.027  0.00  0.00    +0.000 C 
ATOM     20  C   UNL     1      48.921   6.825  15.494  0.00  0.00    +0.000 C 
BRANCH  19  21
ATOM     21  O   UNL     1      48.649   6.129  13.134  0.00  0.00    +0.000 OA
BRANCH  21  22
ATOM     22  C   UNL     1      47.395   5.589  12.906  0.00  0.00    +0.000 A 
ATOM     23  C   UNL     1      46.931   4.586  13.753  0.00  0.00    +0.000 A 
ATOM     24  N   UNL     1      45.732   3.956  13.578  0.00  0.00    +0.000 NA
ATOM     25  C   UNL     1      45.009   4.387  12.502  0.00  0.00    +0.000 A 
ATOM     26  C   UNL     1      45.459   5.395  11.672  0.00  0.00    +0.000 A 
ATOM     27  N   UNL     1      46.647   6.018  11.868  0.00  0.00    +0.000 NA
BRANCH  25  28
ATOM     28  C   UNL     1      43.700   3.742  12.199  0.00  0.00    +0.000 C 
ATOM     29  N   UNL     1      43.617   2.405  12.484  0.00  0.00    +0.000 N 
ATOM     30  O   UNL     1      42.756   4.364  11.714  0.00  0.00    +0.000 OA
ATOM     31  H   UNL     1      44.414   1.911  12.867  0.00  0.00    +0.000 HD
ATOM     32  H   UNL     1      42.759   1.911  12.280  0.00  0.00    +0.000 HD
ENDBRANCH  25  28
ENDBRANCH  21  22
ENDBRANCH  19  21
ENDBRANCH   1  19
TORSDOF 7
ENDMDL
