MODEL 1
REMARK VINA RESULT:    -8.620      0.000      0.000
REMARK INTER + INTRA:         -12.867
REMARK INTER:                 -11.643
REMARK INTRA:                  -1.224
REMARK UNBOUND:                -1.224
REMARK  Name = 
REMARK  7 active torsions:
REMARK  status: ('A' for Active; 'I' for Inactive)
REMARK    1  A    between atoms: C_1  and  C_2
REMARK    2  A    between atoms: C_5  and  C_6
REMARK    3  A    between atoms: C_6  and  N_7
REMARK    4  A    between atoms: C_8  and  C_10
REMARK    5  A    between atoms: C_21  and  C_22
REMARK    6  A    between atoms: C_22  and  N_23
REMARK    7  A    between atoms: C_24  and  C_26
REMARK                            x       y       z     vdW  Elec       q    Type
REMARK                         _______ _______ _______ _____ _____    ______ ____
ROOT
ATOM      1  C   UNL     1      43.433   6.138  11.242  0.00  0.00    +0.000 C 
ATOM      2  C   UNL     1      44.452   5.408  12.073  0.00  0.00    +0.000 A 
ATOM      3  C   UNL     1      45.202   6.148  13.001  0.00  0.00    +0.000 A 
ATOM      4  C   UNL     1      46.142   5.531  13.823  0.00  0.00    +0.000 A 
ATOM      5  C   UNL     1      46.354   4.153  13.741  0.00  0.00    +0.000 A 
ATOM      6  C   UNL     1      45.631   3.410  12.793  0.00  0.00    +0.000 A 
ATOM      7  C   UNL     1      44.660   4.015  11.966  0.00  0.00    +0.000 A 
ENDROOT
BRANCH   5   8
ATOM      8  C   UNL     1      47.349   3.499  14.662  0.00  0.00    +0.000 C 
BRANCH   8   9
ATOM      9  N   UNL     1      47.712   4.362  15.757  0.00  0.00    +0.000 N 
ATOM     10  C   UNL     1      47.308   4.136  17.046  0.00  0.00    +0.000 C 
ATOM     11  O   UNL     1      46.598   3.182  17.356  0.00  0.00    +0.000 OA
ATOM     12  H   UNL     1      48.139   5.248  15.510  0.00  0.00    +0.000 HD
BRANCH  10  13
ATOM     13  C   UNL     1      47.832   5.059  18.063  0.00  0.00    +0.000 A 
ATOM     14  C   UNL     1      46.945   5.779  18.855  0.00  0.00    +0.000 A 
ATOM     15  S   UNL     1      47.708   6.768  20.014  0.00  0.00    +0.000 S 
ATOM     16  C   UNL     1      49.252   6.306  19.473  0.00  0.00    +0.000 A 
ATOM     17  N   UNL     1      50.373   6.822  20.043  0.00  0.00    +0.000 NA
ATOM     18  C   UNL     1      51.478   6.406  19.521  0.00  0.00    +0.000 A 
ATOM     19  N   UNL     1      51.564   5.516  18.482  0.00  0.00    +0.000 N 
ATOM     20  C   UNL     1      50.460   4.932  17.906  0.00  0.00    +0.000 A 
ATOM     21  O   UNL     1      50.580   4.077  17.035  0.00  0.00    +0.000 OA
ATOM     22  C   UNL     1      49.188   5.389  18.437  0.00  0.00    +0.000 A 
ATOM     23  H   UNL     1      52.461   5.212  18.137  0.00  0.00    +0.000 HD
ENDBRANCH  10  13
ENDBRANCH   8   9
ENDBRANCH   5   8
BRANCH   7  24
ATOM     24  C   UNL     1      43.892   3.146  10.992  0.00  0.00    +0.000 C 
BRANCH  24  25
ATOM     25  N   UNL     1      44.764   2.578   9.987  0.00  0.00    +0.000 N 
ATOM     26  C   UNL     1      44.986   3.214   8.783  0.00  0.00    +0.000 C 
ATOM     27  O   UNL     1      44.479   4.280   8.467  0.00  0.00    +0.000 OA
ATOM     28  H   UNL     1      45.395   1.850  10.288  0.00  0.00    +0.000 HD
BRANCH  26  29
ATOM     29  C   UNL     1      45.928   2.522   7.859  0.00  0.00    +0.000 A 
ATOM     30  C   UNL     1      46.240   1.172   8.035  0.00  0.00    +0.000 A 
ATOM     31  C   UNL     1      47.136   0.595   7.155  0.00  0.00    +0.000 A 
ATOM     32  N   UNL     1      47.718   1.260   6.135  0.00  0.00    +0.000 NA
ATOM     33  C   UNL     1      47.376   2.557   5.973  0.00  0.00    +0.000 A 
ATOM     34  C   UNL     1      46.487   3.227   6.794  0.00  0.00    +0.000 A 
ENDBRANCH  26  29
ENDBRANCH  24  25
ENDBRANCH   7  24
TORSDOF 6
ENDMDL
MODEL 2
REMARK VINA RESULT:    -8.444      1.831      2.661
REMARK INTER + INTRA:         -12.629
REMARK INTER:                 -11.539
REMARK INTRA:                  -1.090
REMARK UNBOUND:                -1.224
REMARK  Name = 
REMARK  7 active torsions:
REMARK  status: ('A' for Active; 'I' for Inactive)
REMARK    1  A    between atoms: C_1  and  C_2
REMARK    2  A    between atoms: C_5  and  C_6
REMARK    3  A    between atoms: C_6  and  N_7
REMARK    4  A    between atoms: C_8  and  C_10
REMARK    5  A    between atoms: C_21  and  C_22
REMARK    6  A    between atoms: C_22  and  N_23
REMARK    7  A    between atoms: C_24  and  C_26
REMARK                            x       y       z     vdW  Elec       q    Type
REMARK                         _______ _______ _______ _____ _____    ______ ____
ROOT
ATOM      1  C   UNL     1      43.220   2.472  11.539  0.00  0.00    +0.000 C 
ATOM      2  C   UNL     1      44.165   3.599  11.854  0.00  0.00    +0.000 A 
ATOM      3  C   UNL     1      44.726   3.653  13.141  0.00  0.00    +0.000 A 
ATOM      4  C   UNL     1      45.630   4.651  13.493  0.00  0.00    +0.000 A 
ATOM      5  C   UNL     1      46.003   5.623  12.562  0.00  0.00    +0.000 A 
ATOM      6  C   UNL     1      45.423   5.597  11.283  0.00  0.00    +0.000 A 
ATOM      7  C   UNL     1      44.521   4.580  10.903  0.00  0.00    +0.000 A 
ENDROOT
BRANCH   5   8
ATOM      8  C   UNL     1      47.009   6.674  12.950  0.00  0.00    +0.000 C 
BRANCH   8   9
ATOM      9  N   UNL     1      47.390   6.565  14.334  0.00  0.00    +0.000 N 
ATOM     10  C   UNL     1      48.677   6.742  14.767  0.00  0.00    +0.000 C 
ATOM     11  O   UNL     1      49.600   7.000  13.998  0.00  0.00    +0.000 OA
ATOM     12  H   UNL     1      46.696   6.177  14.964  0.00  0.00    +0.000 HD
BRANCH  10  13
ATOM     13  C   UNL     1      48.890   6.682  16.220  0.00  0.00    +0.000 A 
ATOM     14  C   UNL     1      49.282   7.827  16.902  0.00  0.00    +0.000 A 
ATOM     15  S   UNL     1      49.442   7.602  18.585  0.00  0.00    +0.000 S 
ATOM     16  C   UNL     1      49.037   5.955  18.458  0.00  0.00    +0.000 A 
ATOM     17  N   UNL     1      49.012   5.158  19.560  0.00  0.00    +0.000 NA
ATOM     18  C   UNL     1      48.715   3.925  19.320  0.00  0.00    +0.000 A 
ATOM     19  N   UNL     1      48.435   3.417  18.078  0.00  0.00    +0.000 N 
ATOM     20  C   UNL     1      48.402   4.194  16.943  0.00  0.00    +0.000 A 
ATOM     21  O   UNL     1      48.065   3.720  15.863  0.00  0.00    +0.000 OA
ATOM     22  C   UNL     1      48.758   5.586  17.153  0.00  0.00    +0.000 A 
ATOM     23  H   UNL     1      48.184   2.447  17.962  0.00  0.00    +0.000 HD
ENDBRANCH  10  13
ENDBRANCH   8   9
ENDBRANCH   5   8
BRANCH   7  24
ATOM     24  C   UNL     1      43.963   4.593   9.494  0.00  0.00    +0.000 C 
BRANCH  24  25
ATOM     25  N   UNL     1      44.637   3.632   8.649  0.00  0.00    +0.000 N 
ATOM     26  C   UNL     1      45.815   3.944   8.001  0.00  0.00    +0.000 C 
ATOM     27  O   UNL     1      46.376   5.028   8.081  0.00  0.00    +0.000 OA
ATOM     28  H   UNL     1      44.367   2.665   8.750  0.00  0.00    +0.000 HD
BRANCH  26  29
ATOM     29  C   UNL     1      46.406   2.846   7.187  0.00  0.00    +0.000 A 
ATOM     30  C   UNL     1      46.786   3.064   5.861  0.00  0.00    +0.000 A 
ATOM     31  C   UNL     1      47.310   1.997   5.154  0.00  0.00    +0.000 A 
ATOM     32  N   UNL     1      47.481   0.765   5.676  0.00  0.00    +0.000 NA
ATOM     33  C   UNL     1      47.131   0.591   6.969  0.00  0.00    +0.000 A 
ATOM     34  C   UNL     1      46.603   1.592   7.765  0.00  0.00    +0.000 A 
ENDBRANCH  26  29
ENDBRANCH  24  25
ENDBRANCH   7  24
TORSDOF 6
ENDMDL
MODEL 3
REMARK VINA RESULT:    -7.888      2.597      3.729
REMARK INTER + INTRA:         -11.878
REMARK INTER:                 -10.746
REMARK INTRA:                  -1.132
REMARK UNBOUND:                -1.224
REMARK  Name = 
REMARK  7 active torsions:
REMARK  status: ('A' for Active; 'I' for Inactive)
REMARK    1  A    between atoms: C_1  and  C_2
REMARK    2  A    between atoms: C_5  and  C_6
REMARK    3  A    between atoms: C_6  and  N_7
REMARK    4  A    between atoms: C_8  and  C_10
REMARK    5  A    between atoms: C_21  and  C_22
REMARK    6  A    between atoms: C_22  and  N_23
REMARK    7  A    between atoms: C_24  and  C_26
REMARK                            x       y       z     vdW  Elec       q    Type
REMARK                         _______ _______ _______ _____ _____    ______ ____
ROOT
ATOM      1  C   UNL     1      43.260   9.426  10.878  0.00  0.00    +0.000 C 
ATOM      2  C   UNL     1      44.626   9.123  11.432  0.00  0.00    +0.000 A 
ATOM      3  C   UNL     1      45.477  10.202  11.721  0.00  0.00    +0.000 A 
ATOM      4  C   UNL     1      46.744   9.995  12.263  0.00  0.00    +0.000 A 
ATOM      5  C   UNL     1      47.191   8.702  12.534  0.00  0.00    +0.000 A 
ATOM      6  C   UNL     1      46.359   7.614  12.217  0.00  0.00    +0.000 A 
ATOM      7  C   UNL     1      45.065   7.806  11.688  0.00  0.00    +0.000 A 
ENDROOT
BRANCH   5   8
ATOM      8  C   UNL     1      48.549   8.500  13.152  0.00  0.00    +0.000 C 
BRANCH   8   9
ATOM      9  N   UNL     1      48.489   7.649  14.311  0.00  0.00    +0.000 N 
ATOM     10  C   UNL     1      49.595   7.313  15.046  0.00  0.00    +0.000 C 
ATOM     11  O   UNL     1      50.721   7.711  14.758  0.00  0.00    +0.000 OA
ATOM     12  H   UNL     1      47.614   7.160  14.467  0.00  0.00    +0.000 HD
BRANCH  10  13
ATOM     13  C   UNL     1      49.356   6.505  16.250  0.00  0.00    +0.000 A 
ATOM     14  C   UNL     1      50.009   6.831  17.433  0.00  0.00    +0.000 A 
ATOM     15  S   UNL     1      49.591   5.827  18.746  0.00  0.00    +0.000 S 
ATOM     16  C   UNL     1      48.556   4.892  17.773  0.00  0.00    +0.000 A 
ATOM     17  N   UNL     1      47.886   3.829  18.291  0.00  0.00    +0.000 NA
ATOM     18  C   UNL     1      47.155   3.191  17.439  0.00  0.00    +0.000 A 
ATOM     19  N   UNL     1      47.030   3.525  16.115  0.00  0.00    +0.000 N 
ATOM     20  C   UNL     1      47.650   4.619  15.558  0.00  0.00    +0.000 A 
ATOM     21  O   UNL     1      47.446   4.933  14.390  0.00  0.00    +0.000 OA
ATOM     22  C   UNL     1      48.509   5.354  16.468  0.00  0.00    +0.000 A 
ATOM     23  H   UNL     1      46.420   2.999  15.507  0.00  0.00    +0.000 HD
ENDBRANCH  10  13
ENDBRANCH   8   9
ENDBRANCH   5   8
BRANCH   7  24
ATOM     24  C   UNL     1      44.209   6.589  11.405  0.00  0.00    +0.000 C 
BRANCH  24  25
ATOM     25  N   UNL     1      44.862   5.684  10.485  0.00  0.00    +0.000 N 
ATOM     26  C   UNL     1      44.316   4.455  10.173  0.00  0.00    +0.000 C 
ATOM     27  O   UNL     1      43.264   4.035  10.634  0.00  0.00    +0.000 OA
ATOM     28  H   UNL     1      45.579   6.073   9.891  0.00  0.00    +0.000 HD
BRANCH  26  29
ATOM     29  C   UNL     1      45.088   3.643   9.192  0.00  0.00    +0.000 A 
ATOM     30  C   UNL     1      45.133   2.252   9.293  0.00  0.00    +0.000 A 
ATOM     31  C   UNL     1      45.885   1.559   8.361  0.00  0.00    +0.000 A 
ATOM     32  N   UNL     1      46.567   2.151   7.360  0.00  0.00    +0.000 NA
ATOM     33  C   UNL     1      46.482   3.497   7.270  0.00  0.00    +0.000 A 
ATOM     34  C   UNL     1      45.755   4.282   8.147  0.00  0.00    +0.000 A 
ENDBRANCH  26  29
ENDBRANCH  24  25
ENDBRANCH   7  24
TORSDOF 6
ENDMDL
MODEL 4
REMARK VINA RESULT:    -7.764      3.733      9.043
REMARK INTER + INTRA:         -11.711
REMARK INTER:                 -10.558
REMARK INTRA:                  -1.154
REMARK UNBOUND:                -1.224
REMARK  Name = 
REMARK  7 active torsions:
REMARK  status: ('A' for Active; 'I' for Inactive)
REMARK    1  A    between atoms: C_1  and  C_2
REMARK    2  A    between atoms: C_5  and  C_6
REMARK    3  A    between atoms: C_6  and  N_7
REMARK    4  A    between atoms: C_8  and  C_10
REMARK    5  A    between atoms: C_21  and  C_22
REMARK    6  A    between atoms: C_22  and  N_23
REMARK    7  A    between atoms: C_24  and  C_26
REMARK                            x       y       z     vdW  Elec       q    Type
REMARK                         _______ _______ _______ _____ _____    ______ ____
ROOT
ATOM      1  C   UNL     1      48.650   4.884  20.737  0.00  0.00    +0.000 C 
ATOM      2  C   UNL     1      48.677   5.563  19.395  0.00  0.00    +0.000 A 
ATOM      3  C   UNL     1      48.576   6.963  19.359  0.00  0.00    +0.000 A 
ATOM      4  C   UNL     1      48.623   7.659  18.153  0.00  0.00    +0.000 A 
ATOM      5  C   UNL     1      48.778   6.971  16.949  0.00  0.00    +0.000 A 
ATOM      6  C   UNL     1      48.847   5.568  16.972  0.00  0.00    +0.000 A 
ATOM      7  C   UNL     1      48.822   4.848  18.186  0.00  0.00    +0.000 A 
ENDROOT
BRANCH   5   8
ATOM      8  C   UNL     1      48.862   7.743  15.659  0.00  0.00    +0.000 C 
BRANCH   8   9
ATOM      9  N   UNL     1      47.762   7.438  14.781  0.00  0.00    +0.000 N 
ATOM     10  C   UNL     1      47.913   6.730  13.618  0.00  0.00    +0.000 C 
ATOM     11  O   UNL     1      49.004   6.312  13.239  0.00  0.00    +0.000 OA
ATOM     12  H   UNL     1      46.889   7.919  14.968  0.00  0.00    +0.000 HD
BRANCH  10  13
ATOM     13  C   UNL     1      46.681   6.428  12.875  0.00  0.00    +0.000 A 
ATOM     14  C   UNL     1      45.977   7.462  12.269  0.00  0.00    +0.000 A 
ATOM     15  S   UNL     1      44.600   6.942  11.410  0.00  0.00    +0.000 S 
ATOM     16  C   UNL     1      44.867   5.322  11.853  0.00  0.00    +0.000 A 
ATOM     17  N   UNL     1      44.014   4.341  11.453  0.00  0.00    +0.000 NA
ATOM     18  C   UNL     1      44.320   3.161  11.879  0.00  0.00    +0.000 A 
ATOM     19  N   UNL     1      45.405   2.873  12.665  0.00  0.00    +0.000 N 
ATOM     20  C   UNL     1      46.320   3.823  13.053  0.00  0.00    +0.000 A 
ATOM     21  O   UNL     1      47.325   3.511  13.685  0.00  0.00    +0.000 OA
ATOM     22  C   UNL     1      46.007   5.174  12.625  0.00  0.00    +0.000 A 
ATOM     23  H   UNL     1      45.602   1.923  12.942  0.00  0.00    +0.000 HD
ENDBRANCH  10  13
ENDBRANCH   8   9
ENDBRANCH   5   8
BRANCH   7  24
ATOM     24  C   UNL     1      48.939   3.338  18.137  0.00  0.00    +0.000 C 
BRANCH  24  25
ATOM     25  N   UNL     1      50.311   2.908  18.294  0.00  0.00    +0.000 N 
ATOM     26  C   UNL     1      50.919   2.087  17.366  0.00  0.00    +0.000 C 
ATOM     27  O   UNL     1      50.368   1.663  16.360  0.00  0.00    +0.000 OA
ATOM     28  H   UNL     1      50.880   3.422  18.951  0.00  0.00    +0.000 HD
BRANCH  26  29
ATOM     29  C   UNL     1      52.342   1.749  17.647  0.00  0.00    +0.000 A 
ATOM     30  C   UNL     1      52.858   0.495  17.315  0.00  0.00    +0.000 A 
ATOM     31  C   UNL     1      54.182   0.238  17.621  0.00  0.00    +0.000 A 
ATOM     32  N   UNL     1      55.001   1.132  18.214  0.00  0.00    +0.000 NA
ATOM     33  C   UNL     1      54.481   2.347  18.499  0.00  0.00    +0.000 A 
ATOM     34  C   UNL     1      53.173   2.706  18.229  0.00  0.00    +0.000 A 
ENDBRANCH  26  29
ENDBRANCH  24  25
ENDBRANCH   7  24
TORSDOF 6
ENDMDL
MODEL 5
REMARK VINA RESULT:    -7.551      3.995      8.746
REMARK INTER + INTRA:         -11.423
REMARK INTER:                  -9.879
REMARK INTRA:                  -1.544
REMARK UNBOUND:                -1.224
REMARK  Name = 
REMARK  7 active torsions:
REMARK  status: ('A' for Active; 'I' for Inactive)
REMARK    1  A    between atoms: C_1  and  C_2
REMARK    2  A    between atoms: C_5  and  C_6
REMARK    3  A    between atoms: C_6  and  N_7
REMARK    4  A    between atoms: C_8  and  C_10
REMARK    5  A    between atoms: C_21  and  C_22
REMARK    6  A    between atoms: C_22  and  N_23
REMARK    7  A    between atoms: C_24  and  C_26
REMARK                            x       y       z     vdW  Elec       q    Type
REMARK                         _______ _______ _______ _____ _____    ______ ____
ROOT
ATOM      1  C   UNL     1      47.124   8.968  21.708  0.00  0.00    +0.000 C 
ATOM      2  C   UNL     1      47.440   8.976  20.237  0.00  0.00    +0.000 A 
ATOM      3  C   UNL     1      47.524  10.217  19.585  0.00  0.00    +0.000 A 
ATOM      4  C   UNL     1      47.840  10.300  18.231  0.00  0.00    +0.000 A 
ATOM      5  C   UNL     1      48.088   9.142  17.494  0.00  0.00    +0.000 A 
ATOM      6  C   UNL     1      47.975   7.894  18.130  0.00  0.00    +0.000 A 
ATOM      7  C   UNL     1      47.675   7.792  19.505  0.00  0.00    +0.000 A 
ENDROOT
BRANCH   5   8
ATOM      8  C   UNL     1      48.464   9.254  16.040  0.00  0.00    +0.000 C 
BRANCH   8   9
ATOM      9  N   UNL     1      47.528   8.563  15.191  0.00  0.00    +0.000 N 
ATOM     10  C   UNL     1      47.565   8.642  13.824  0.00  0.00    +0.000 C 
ATOM     11  O   UNL     1      48.399   9.318  13.227  0.00  0.00    +0.000 OA
ATOM     12  H   UNL     1      46.724   8.148  15.650  0.00  0.00    +0.000 HD
BRANCH  10  13
ATOM     13  C   UNL     1      46.595   7.811  13.097  0.00  0.00    +0.000 A 
ATOM     14  C   UNL     1      45.688   8.415  12.235  0.00  0.00    +0.000 A 
ATOM     15  S   UNL     1      44.664   7.312  11.435  0.00  0.00    +0.000 S 
ATOM     16  C   UNL     1      45.363   5.990  12.245  0.00  0.00    +0.000 A 
ATOM     17  N   UNL     1      44.916   4.725  12.026  0.00  0.00    +0.000 NA
ATOM     18  C   UNL     1      45.516   3.819  12.723  0.00  0.00    +0.000 A 
ATOM     19  N   UNL     1      46.527   4.064  13.616  0.00  0.00    +0.000 N 
ATOM     20  C   UNL     1      47.044   5.320  13.834  0.00  0.00    +0.000 A 
ATOM     21  O   UNL     1      48.005   5.487  14.578  0.00  0.00    +0.000 OA
ATOM     22  C   UNL     1      46.383   6.381  13.096  0.00  0.00    +0.000 A 
ATOM     23  H   UNL     1      46.972   3.306  14.111  0.00  0.00    +0.000 HD
ENDBRANCH  10  13
ENDBRANCH   8   9
ENDBRANCH   5   8
BRANCH   7  24
ATOM     24  C   UNL     1      47.606   6.415  20.133  0.00  0.00    +0.000 C 
BRANCH  24  25
ATOM     25  N   UNL     1      47.890   5.377  19.167  0.00  0.00    +0.000 N 
ATOM     26  C   UNL     1      49.146   4.814  19.062  0.00  0.00    +0.000 C 
ATOM     27  O   UNL     1      50.101   5.134  19.756  0.00  0.00    +0.000 OA
ATOM     28  H   UNL     1      47.098   4.904  18.757  0.00  0.00    +0.000 HD
BRANCH  26  29
ATOM     29  C   UNL     1      49.280   3.739  18.040  0.00  0.00    +0.000 A 
ATOM     30  C   UNL     1      48.202   3.386  17.227  0.00  0.00    +0.000 A 
ATOM     31  C   UNL     1      48.388   2.367  16.311  0.00  0.00    +0.000 A 
ATOM     32  N   UNL     1      49.552   1.703  16.156  0.00  0.00    +0.000 NA
ATOM     33  C   UNL     1      50.586   2.085  16.936  0.00  0.00    +0.000 A 
ATOM     34  C   UNL     1      50.507   3.095  17.879  0.00  0.00    +0.000 A 
ENDBRANCH  26  29
ENDBRANCH  24  25
ENDBRANCH   7  24
TORSDOF 6
ENDMDL
MODEL 6
REMARK VINA RESULT:    -7.477      4.156      8.421
REMARK INTER + INTRA:         -11.324
REMARK INTER:                  -9.824
REMARK INTRA:                  -1.500
REMARK UNBOUND:                -1.224
REMARK  Name = 
REMARK  7 active torsions:
REMARK  status: ('A' for Active; 'I' for Inactive)
REMARK    1  A    between atoms: C_1  and  C_2
REMARK    2  A    between atoms: C_5  and  C_6
REMARK    3  A    between atoms: C_6  and  N_7
REMARK    4  A    between atoms: C_8  and  C_10
REMARK    5  A    between atoms: C_21  and  C_22
REMARK    6  A    between atoms: C_22  and  N_23
REMARK    7  A    between atoms: C_24  and  C_26
REMARK                            x       y       z     vdW  Elec       q    Type
REMARK                         _______ _______ _______ _____ _____    ______ ____
ROOT
ATOM      1  C   UNL     1      52.850   4.460  18.010  0.00  0.00    +0.000 C 
ATOM      2  C   UNL     1      51.412   4.270  17.614  0.00  0.00    +0.000 A 
ATOM      3  C   UNL     1      50.863   2.980  17.708  0.00  0.00    +0.000 A 
ATOM      4  C   UNL     1      49.531   2.738  17.384  0.00  0.00    +0.000 A 
ATOM      5  C   UNL     1      48.708   3.783  16.962  0.00  0.00    +0.000 A 
ATOM      6  C   UNL     1      49.255   5.070  16.834  0.00  0.00    +0.000 A 
ATOM      7  C   UNL     1      50.598   5.337  17.177  0.00  0.00    +0.000 A 
ENDROOT
BRANCH   5   8
ATOM      8  C   UNL     1      47.261   3.508  16.650  0.00  0.00    +0.000 C 
BRANCH   8   9
ATOM      9  N   UNL     1      46.732   4.445  15.693  0.00  0.00    +0.000 N 
ATOM     10  C   UNL     1      46.776   4.230  14.341  0.00  0.00    +0.000 C 
ATOM     11  O   UNL     1      47.279   3.222  13.850  0.00  0.00    +0.000 OA
ATOM     12  H   UNL     1      46.479   5.359  16.050  0.00  0.00    +0.000 HD
BRANCH  10  13
ATOM     13  C   UNL     1      46.119   5.241  13.500  0.00  0.00    +0.000 A 
ATOM     14  C   UNL     1      46.770   6.440  13.237  0.00  0.00    +0.000 A 
ATOM     15  S   UNL     1      45.896   7.484  12.211  0.00  0.00    +0.000 S 
ATOM     16  C   UNL     1      44.596   6.392  12.116  0.00  0.00    +0.000 A 
ATOM     17  N   UNL     1      43.484   6.695  11.393  0.00  0.00    +0.000 NA
ATOM     18  C   UNL     1      42.564   5.790  11.425  0.00  0.00    +0.000 A 
ATOM     19  N   UNL     1      42.657   4.607  12.111  0.00  0.00    +0.000 N 
ATOM     20  C   UNL     1      43.779   4.237  12.815  0.00  0.00    +0.000 A 
ATOM     21  O   UNL     1      43.857   3.134  13.346  0.00  0.00    +0.000 OA
ATOM     22  C   UNL     1      44.835   5.234  12.836  0.00  0.00    +0.000 A 
ATOM     23  H   UNL     1      41.910   3.930  12.074  0.00  0.00    +0.000 HD
ENDBRANCH  10  13
ENDBRANCH   8   9
ENDBRANCH   5   8
BRANCH   7  24
ATOM     24  C   UNL     1      51.111   6.758  17.049  0.00  0.00    +0.000 C 
BRANCH  24  25
ATOM     25  N   UNL     1      50.791   7.322  15.757  0.00  0.00    +0.000 N 
ATOM     26  C   UNL     1      49.723   8.180  15.590  0.00  0.00    +0.000 C 
ATOM     27  O   UNL     1      48.974   8.527  16.492  0.00  0.00    +0.000 OA
ATOM     28  H   UNL     1      51.508   7.278  15.048  0.00  0.00    +0.000 HD
BRANCH  26  29
ATOM     29  C   UNL     1      49.532   8.701  14.208  0.00  0.00    +0.000 A 
ATOM     30  C   UNL     1      48.831   9.887  13.981  0.00  0.00    +0.000 A 
ATOM     31  C   UNL     1      48.673  10.305  12.672  0.00  0.00    +0.000 A 
ATOM     32  N   UNL     1      49.164   9.638  11.608  0.00  0.00    +0.000 NA
ATOM     33  C   UNL     1      49.863   8.509  11.860  0.00  0.00    +0.000 A 
ATOM     34  C   UNL     1      50.082   8.007  13.130  0.00  0.00    +0.000 A 
ENDBRANCH  26  29
ENDBRANCH  24  25
ENDBRANCH   7  24
TORSDOF 6
ENDMDL
MODEL 7
REMARK VINA RESULT:    -7.322      3.877     10.297
REMARK INTER + INTRA:         -11.114
REMARK INTER:                  -9.991
REMARK INTRA:                  -1.123
REMARK UNBOUND:                -1.224
REMARK  Name = 
REMARK  7 active torsions:
REMARK  status: ('A' for Active; 'I' for Inactive)
REMARK    1  A    between atoms: C_1  and  C_2
REMARK    2  A    between atoms: C_5  and  C_6
REMARK    3  A    between atoms: C_6  and  N_7
REMARK    4  A    between atoms: C_8  and  C_10
REMARK    5  A    between atoms: C_21  and  C_22
REMARK    6  A    between atoms: C_22  and  N_23
REMARK    7  A    between atoms: C_24  and  C_26
REMARK                            x       y       z     vdW  Elec       q    Type
REMARK                         _______ _______ _______ _____ _____    ______ ____
ROOT
ATOM      1  C   UNL     1      52.896   3.888  18.204  0.00  0.00    +0.000 C 
ATOM      2  C   UNL     1      51.442   3.827  17.827  0.00  0.00    +0.000 A 
ATOM      3  C   UNL     1      50.919   2.596  17.398  0.00  0.00    +0.000 A 
ATOM      4  C   UNL     1      49.575   2.462  17.060  0.00  0.00    +0.000 A 
ATOM      5  C   UNL     1      48.714   3.557  17.147  0.00  0.00    +0.000 A 
ATOM      6  C   UNL     1      49.234   4.800  17.543  0.00  0.00    +0.000 A 
ATOM      7  C   UNL     1      50.589   4.950  17.909  0.00  0.00    +0.000 A 
ENDROOT
BRANCH   5   8
ATOM      8  C   UNL     1      47.256   3.384  16.811  0.00  0.00    +0.000 C 
BRANCH   8   9
ATOM      9  N   UNL     1      46.807   4.366  15.859  0.00  0.00    +0.000 N 
ATOM     10  C   UNL     1      46.862   4.169  14.505  0.00  0.00    +0.000 C 
ATOM     11  O   UNL     1      47.309   3.137  14.008  0.00  0.00    +0.000 OA
ATOM     12  H   UNL     1      46.605   5.290  16.225  0.00  0.00    +0.000 HD
BRANCH  10  13
ATOM     13  C   UNL     1      46.286   5.231  13.668  0.00  0.00    +0.000 A 
ATOM     14  C   UNL     1      46.954   6.443  13.546  0.00  0.00    +0.000 A 
ATOM     15  S   UNL     1      46.181   7.551  12.506  0.00  0.00    +0.000 S 
ATOM     16  C   UNL     1      44.902   6.468  12.215  0.00  0.00    +0.000 A 
ATOM     17  N   UNL     1      43.865   6.817  11.406  0.00  0.00    +0.000 NA
ATOM     18  C   UNL     1      42.951   5.913  11.291  0.00  0.00    +0.000 A 
ATOM     19  N   UNL     1      42.981   4.690  11.907  0.00  0.00    +0.000 N 
ATOM     20  C   UNL     1      44.030   4.275  12.694  0.00  0.00    +0.000 A 
ATOM     21  O   UNL     1      44.060   3.141  13.160  0.00  0.00    +0.000 OA
ATOM     22  C   UNL     1      45.074   5.267  12.881  0.00  0.00    +0.000 A 
ATOM     23  H   UNL     1      42.245   4.018  11.754  0.00  0.00    +0.000 HD
ENDBRANCH  10  13
ENDBRANCH   8   9
ENDBRANCH   5   8
BRANCH   7  24
ATOM     24  C   UNL     1      51.073   6.312  18.363  0.00  0.00    +0.000 C 
BRANCH  24  25
ATOM     25  N   UNL     1      49.973   7.152  18.783  0.00  0.00    +0.000 N 
ATOM     26  C   UNL     1      49.637   7.288  20.115  0.00  0.00    +0.000 C 
ATOM     27  O   UNL     1      50.222   6.726  21.030  0.00  0.00    +0.000 OA
ATOM     28  H   UNL     1      49.629   7.825  18.113  0.00  0.00    +0.000 HD
BRANCH  26  29
ATOM     29  C   UNL     1      48.499   8.206  20.396  0.00  0.00    +0.000 A 
ATOM     30  C   UNL     1      47.966   9.014  19.390  0.00  0.00    +0.000 A 
ATOM     31  C   UNL     1      46.923   9.858  19.722  0.00  0.00    +0.000 A 
ATOM     32  N   UNL     1      46.389   9.938  20.959  0.00  0.00    +0.000 NA
ATOM     33  C   UNL     1      46.906   9.124  21.905  0.00  0.00    +0.000 A 
ATOM     34  C   UNL     1      47.945   8.241  21.676  0.00  0.00    +0.000 A 
ENDBRANCH  26  29
ENDBRANCH  24  25
ENDBRANCH   7  24
TORSDOF 6
ENDMDL
MODEL 8
REMARK VINA RESULT:    -7.289      4.840      5.903
REMARK INTER + INTRA:         -11.070
REMARK INTER:                 -10.280
REMARK INTRA:                  -0.789
REMARK UNBOUND:                -1.224
REMARK  Name = 
REMARK  7 active torsions:
REMARK  status: ('A' for Active; 'I' for Inactive)
REMARK    1  A    between atoms: C_1  and  C_2
REMARK    2  A    between atoms: C_5  and  C_6
REMARK    3  A    between atoms: C_6  and  N_7
REMARK    4  A    between atoms: C_8  and  C_10
REMARK    5  A    between atoms: C_21  and  C_22
REMARK    6  A    between atoms: C_22  and  N_23
REMARK    7  A    between atoms: C_24  and  C_26
REMARK                            x       y       z     vdW  Elec       q    Type
REMARK                         _______ _______ _______ _____ _____    ______ ____
ROOT
ATOM      1  C   UNL     1      45.232   2.897  12.324  0.00  0.00    +0.000 C 
ATOM      2  C   UNL     1      45.379   4.394  12.290  0.00  0.00    +0.000 A 
ATOM      3  C   UNL     1      46.212   4.999  13.245  0.00  0.00    +0.000 A 
ATOM      4  C   UNL     1      46.416   6.377  13.254  0.00  0.00    +0.000 A 
ATOM      5  C   UNL     1      45.795   7.187  12.302  0.00  0.00    +0.000 A 
ATOM      6  C   UNL     1      44.934   6.595  11.363  0.00  0.00    +0.000 A 
ATOM      7  C   UNL     1      44.732   5.198  11.327  0.00  0.00    +0.000 A 
ENDROOT
BRANCH   5   8
ATOM      8  C   UNL     1      46.056   8.670  12.306  0.00  0.00    +0.000 C 
BRANCH   8   9
ATOM      9  N   UNL     1      47.351   8.987  11.763  0.00  0.00    +0.000 N 
ATOM     10  C   UNL     1      47.882  10.249  11.794  0.00  0.00    +0.000 C 
ATOM     11  O   UNL     1      47.281  11.204  12.282  0.00  0.00    +0.000 OA
ATOM     12  H   UNL     1      47.790   8.270  11.196  0.00  0.00    +0.000 HD
BRANCH  10  13
ATOM     13  C   UNL     1      49.250  10.393  11.275  0.00  0.00    +0.000 A 
ATOM     14  C   UNL     1      49.558  11.470  10.452  0.00  0.00    +0.000 A 
ATOM     15  S   UNL     1      51.194  11.519   9.973  0.00  0.00    +0.000 S 
ATOM     16  C   UNL     1      51.540  10.080  10.811  0.00  0.00    +0.000 A 
ATOM     17  N   UNL     1      52.790   9.545  10.789  0.00  0.00    +0.000 NA
ATOM     18  C   UNL     1      52.909   8.440  11.445  0.00  0.00    +0.000 A 
ATOM     19  N   UNL     1      51.892   7.823  12.126  0.00  0.00    +0.000 N 
ATOM     20  C   UNL     1      50.625   8.351  12.216  0.00  0.00    +0.000 A 
ATOM     21  O   UNL     1      49.764   7.813  12.905  0.00  0.00    +0.000 OA
ATOM     22  C   UNL     1      50.429   9.581  11.470  0.00  0.00    +0.000 A 
ATOM     23  H   UNL     1      52.058   6.972  12.641  0.00  0.00    +0.000 HD
ENDBRANCH  10  13
ENDBRANCH   8   9
ENDBRANCH   5   8
BRANCH   7  24
ATOM     24  C   UNL     1      43.818   4.624  10.263  0.00  0.00    +0.000 C 
BRANCH  24  25
ATOM     25  N   UNL     1      44.510   3.662   9.434  0.00  0.00    +0.000 N 
ATOM     26  C   UNL     1      45.488   4.051   8.541  0.00  0.00    +0.000 C 
ATOM     27  O   UNL     1      45.844   5.209   8.376  0.00  0.00    +0.000 OA
ATOM     28  H   UNL     1      44.443   2.692   9.705  0.00  0.00    +0.000 HD
BRANCH  26  29
ATOM     29  C   UNL     1      46.130   2.946   7.775  0.00  0.00    +0.000 A 
ATOM     30  C   UNL     1      46.730   3.188   6.538  0.00  0.00    +0.000 A 
ATOM     31  C   UNL     1      47.291   2.115   5.870  0.00  0.00    +0.000 A 
ATOM     32  N   UNL     1      47.297   0.854   6.349  0.00  0.00    +0.000 NA
ATOM     33  C   UNL     1      46.733   0.655   7.562  0.00  0.00    +0.000 A 
ATOM     34  C   UNL     1      46.150   1.660   8.313  0.00  0.00    +0.000 A 
ENDBRANCH  26  29
ENDBRANCH  24  25
ENDBRANCH   7  24
TORSDOF 6
ENDMDL
MODEL 9
REMARK VINA RESULT:    -7.107      3.808      6.827
REMARK INTER + INTRA:         -10.824
REMARK INTER:                  -8.696
REMARK INTRA:                  -2.128
REMARK UNBOUND:                -1.224
REMARK  Name = 
REMARK  7 active torsions:
REMARK  status: ('A' for Active; 'I' for Inactive)
REMARK    1  A    between atoms: C_1  and  C_2
REMARK    2  A    between atoms: C_5  and  C_6
REMARK    3  A    between atoms: C_6  and  N_7
REMARK    4  A    between atoms: C_8  and  C_10
REMARK    5  A    between atoms: C_21  and  C_22
REMARK    6  A    between atoms: C_22  and  N_23
REMARK    7  A    between atoms: C_24  and  C_26
REMARK                            x       y       z     vdW  Elec       q    Type
REMARK                         _______ _______ _______ _____ _____    ______ ____
ROOT
ATOM      1  C   UNL     1      44.122   3.165  12.033  0.00  0.00    +0.000 C 
ATOM      2  C   UNL     1      44.628   4.565  12.244  0.00  0.00    +0.000 A 
ATOM      3  C   UNL     1      43.944   5.619  11.614  0.00  0.00    +0.000 A 
ATOM      4  C   UNL     1      44.341   6.942  11.788  0.00  0.00    +0.000 A 
ATOM      5  C   UNL     1      45.432   7.248  12.603  0.00  0.00    +0.000 A 
ATOM      6  C   UNL     1      46.142   6.199  13.211  0.00  0.00    +0.000 A 
ATOM      7  C   UNL     1      45.742   4.855  13.062  0.00  0.00    +0.000 A 
ENDROOT
BRANCH   5   8
ATOM      8  C   UNL     1      45.825   8.687  12.807  0.00  0.00    +0.000 C 
BRANCH   8   9
ATOM      9  N   UNL     1      46.786   8.834  13.869  0.00  0.00    +0.000 N 
ATOM     10  C   UNL     1      48.008   9.427  13.689  0.00  0.00    +0.000 C 
ATOM     11  O   UNL     1      48.371   9.868  12.602  0.00  0.00    +0.000 OA
ATOM     12  H   UNL     1      46.596   8.323  14.724  0.00  0.00    +0.000 HD
BRANCH  10  13
ATOM     13  C   UNL     1      48.842   9.577  14.890  0.00  0.00    +0.000 A 
ATOM     14  C   UNL     1      49.047  10.842  15.427  0.00  0.00    +0.000 A 
ATOM     15  S   UNL     1      49.998  10.840  16.842  0.00  0.00    +0.000 S 
ATOM     16  C   UNL     1      50.208   9.155  16.765  0.00  0.00    +0.000 A 
ATOM     17  N   UNL     1      50.960   8.504  17.693  0.00  0.00    +0.000 NA
ATOM     18  C   UNL     1      51.059   7.231  17.502  0.00  0.00    +0.000 A 
ATOM     19  N   UNL     1      50.469   6.548  16.471  0.00  0.00    +0.000 N 
ATOM     20  C   UNL     1      49.662   7.156  15.537  0.00  0.00    +0.000 A 
ATOM     21  O   UNL     1      49.083   6.498  14.679  0.00  0.00    +0.000 OA
ATOM     22  C   UNL     1      49.541   8.595  15.689  0.00  0.00    +0.000 A 
ATOM     23  H   UNL     1      50.564   5.547  16.394  0.00  0.00    +0.000 HD
ENDBRANCH  10  13
ENDBRANCH   8   9
ENDBRANCH   5   8
BRANCH   7  24
ATOM     24  C   UNL     1      46.532   3.777  13.777  0.00  0.00    +0.000 C 
BRANCH  24  25
ATOM     25  N   UNL     1      46.915   4.197  15.108  0.00  0.00    +0.000 N 
ATOM     26  C   UNL     1      47.815   3.470  15.861  0.00  0.00    +0.000 C 
ATOM     27  O   UNL     1      48.350   2.438  15.482  0.00  0.00    +0.000 OA
ATOM     28  H   UNL     1      46.711   5.152  15.363  0.00  0.00    +0.000 HD
BRANCH  26  29
ATOM     29  C   UNL     1      48.132   4.039  17.200  0.00  0.00    +0.000 A 
ATOM     30  C   UNL     1      49.289   3.658  17.883  0.00  0.00    +0.000 A 
ATOM     31  C   UNL     1      49.515   4.209  19.131  0.00  0.00    +0.000 A 
ATOM     32  N   UNL     1      48.686   5.095  19.720  0.00  0.00    +0.000 NA
ATOM     33  C   UNL     1      47.588   5.466  19.024  0.00  0.00    +0.000 A 
ATOM     34  C   UNL     1      47.273   4.980  17.768  0.00  0.00    +0.000 A 
ENDBRANCH  26  29
ENDBRANCH  24  25
ENDBRANCH   7  24
TORSDOF 6
ENDMDL
