MODEL 1
REMARK VINA RESULT:    -7.269      0.000      0.000
REMARK INTER + INTRA:         -12.642
REMARK INTER:                 -10.881
REMARK INTRA:                  -1.760
REMARK UNBOUND:                -1.760
REMARK  Name = 
REMARK  10 active torsions:
REMARK  status: ('A' for Active; 'I' for Inactive)
REMARK    1  A    between atoms: C_1  and  C_2
REMARK    2  A    between atoms: C_2  and  C_3
REMARK    3  A    between atoms: C_3  and  N_4
REMARK    4  A    between atoms: N_4  and  C_5
REMARK    5  A    between atoms: C_5  and  C_6
REMARK    6  A    between atoms: C_9  and  C_10
REMARK    7  A    between atoms: C_10  and  N_11
REMARK    8  A    between atoms: N_11  and  C_12
REMARK    9  A    between atoms: C_17  and  N_18
REMARK   10  A    between atoms: C_21  and  C_23
REMARK                            x       y       z     vdW  Elec       q    Type
REMARK                         _______ _______ _______ _____ _____    ______ ____
ROOT
ATOM      1  C   UNL     1      47.483   6.455  12.292  0.00  0.00    +0.000 C 
ENDROOT
BRANCH   1   2
ATOM      2  C   UNL     1      47.612   5.909  13.705  0.00  0.00    +0.000 A 
ATOM      3  C   UNL     1      47.007   4.718  14.137  0.00  0.00    +0.000 A 
ATOM      4  C   UNL     1      47.178   4.247  15.445  0.00  0.00    +0.000 A 
ATOM      5  C   UNL     1      47.934   4.974  16.370  0.00  0.00    +0.000 A 
ATOM      6  C   UNL     1      48.551   6.156  15.941  0.00  0.00    +0.000 A 
ATOM      7  C   UNL     1      48.402   6.609  14.627  0.00  0.00    +0.000 A 
BRANCH   5   8
ATOM      8  C   UNL     1      48.047   4.536  17.812  0.00  0.00    +0.000 C 
BRANCH   8   9
ATOM      9  N   UNL     1      47.116   5.183  18.740  0.00  0.00    +0.000 NA
ATOM     10  H   UNL     1      46.713   4.465  19.337  0.00  0.00    +0.000 HD
BRANCH   9  11
ATOM     11  C   UNL     1      47.718   6.222  19.595  0.00  0.00    +0.000 C 
ATOM     12  C   UNL     1      47.327   7.652  19.184  0.00  0.00    +0.000 C 
ATOM     13  C   UNL     1      48.031   8.675  20.073  0.00  0.00    +0.000 C 
ATOM     14  C   UNL     1      47.710   8.457  21.547  0.00  0.00    +0.000 C 
ATOM     15  C   UNL     1      48.016   7.027  21.990  0.00  0.00    +0.000 C 
ATOM     16  C   UNL     1      47.325   5.993  21.091  0.00  0.00    +0.000 C 
BRANCH  16  17
ATOM     17  N   UNL     1      47.674   4.645  21.569  0.00  0.00    +0.000 NA
ATOM     18  H   UNL     1      47.569   4.608  22.582  0.00  0.00    +0.000 HD
ATOM     19  H   UNL     1      48.656   4.468  21.365  0.00  0.00    +0.000 HD
ENDBRANCH  16  17
ENDBRANCH   9  11
ENDBRANCH   8   9
ENDBRANCH   5   8
ENDBRANCH   1   2
BRANCH   1  20
ATOM     20  N   UNL     1      46.301   7.284  12.070  0.00  0.00    +0.000 N 
ATOM     21  C   UNL     1      44.996   6.850  11.747  0.00  0.00    +0.000 C 
ATOM     22  O   UNL     1      44.129   7.703  11.563  0.00  0.00    +0.000 OA
BRANCH  21  23
ATOM     23  C   UNL     1      44.607   5.413  11.665  0.00  0.00    +0.000 A 
ATOM     24  C   UNL     1      43.919   4.667  12.608  0.00  0.00    +0.000 A 
ATOM     25  S   UNL     1      43.499   3.086  12.138  0.00  0.00    +0.000 S 
ATOM     26  C   UNL     1      44.211   3.310  10.621  0.00  0.00    +0.000 A 
ATOM     27  N   UNL     1      44.144   2.316   9.701  0.00  0.00    +0.000 NA
ATOM     28  C   UNL     1      44.686   2.613   8.566  0.00  0.00    +0.000 A 
ATOM     29  N   UNL     1      45.299   3.801   8.285  0.00  0.00    +0.000 N 
ATOM     30  C   UNL     1      45.506   4.789   9.231  0.00  0.00    +0.000 A 
ATOM     31  O   UNL     1      46.279   5.703   8.982  0.00  0.00    +0.000 OA
ATOM     32  C   UNL     1      44.813   4.553  10.495  0.00  0.00    +0.000 A 
ATOM     33  H   UNL     1      45.775   3.938   7.408  0.00  0.00    +0.000 HD
ENDBRANCH  21  23
BRANCH  20  34
ATOM     34  C   UNL     1      46.531   8.740  12.166  0.00  0.00    +0.000 C 
BRANCH  34  36
ATOM     35  C   UNL     1      48.560  10.024  13.079  0.00  0.00    +0.000 C 
ATOM     36  C   UNL     1      47.994   9.167  11.958  0.00  0.00    +0.000 C 
ENDBRANCH  34  36
ENDBRANCH  20  34
ENDBRANCH   1  20
TORSDOF 9
ENDMDL
MODEL 2
REMARK VINA RESULT:    -7.237      3.089      8.833
REMARK INTER + INTRA:         -12.593
REMARK INTER:                 -10.960
REMARK INTRA:                  -1.633
REMARK UNBOUND:                -1.760
REMARK  Name = 
REMARK  10 active torsions:
REMARK  status: ('A' for Active; 'I' for Inactive)
REMARK    1  A    between atoms: C_1  and  C_2
REMARK    2  A    between atoms: C_2  and  C_3
REMARK    3  A    between atoms: C_3  and  N_4
REMARK    4  A    between atoms: N_4  and  C_5
REMARK    5  A    between atoms: C_5  and  C_6
REMARK    6  A    between atoms: C_9  and  C_10
REMARK    7  A    between atoms: C_10  and  N_11
REMARK    8  A    between atoms: N_11  and  C_12
REMARK    9  A    between atoms: C_17  and  N_18
REMARK   10  A    between atoms: C_21  and  C_23
REMARK                            x       y       z     vdW  Elec       q    Type
REMARK                         _______ _______ _______ _____ _____    ______ ____
ROOT
ATOM      1  C   UNL     1      47.376   7.798  13.737  0.00  0.00    +0.000 C 
ENDROOT
BRANCH   1   2
ATOM      2  C   UNL     1      46.601   6.589  13.241  0.00  0.00    +0.000 A 
ATOM      3  C   UNL     1      46.915   5.265  13.591  0.00  0.00    +0.000 A 
ATOM      4  C   UNL     1      46.152   4.188  13.123  0.00  0.00    +0.000 A 
ATOM      5  C   UNL     1      45.070   4.402  12.263  0.00  0.00    +0.000 A 
ATOM      6  C   UNL     1      44.743   5.720  11.922  0.00  0.00    +0.000 A 
ATOM      7  C   UNL     1      45.489   6.796  12.413  0.00  0.00    +0.000 A 
BRANCH   5   8
ATOM      8  C   UNL     1      44.297   3.247  11.668  0.00  0.00    +0.000 C 
BRANCH   8   9
ATOM      9  N   UNL     1      44.074   3.320  10.222  0.00  0.00    +0.000 NA
ATOM     10  H   UNL     1      43.781   4.267   9.994  0.00  0.00    +0.000 HD
BRANCH   9  11
ATOM     11  C   UNL     1      45.248   2.981   9.398  0.00  0.00    +0.000 C 
ATOM     12  C   UNL     1      45.173   1.573   8.781  0.00  0.00    +0.000 C 
ATOM     13  C   UNL     1      46.444   1.268   7.992  0.00  0.00    +0.000 C 
ATOM     14  C   UNL     1      46.689   2.299   6.895  0.00  0.00    +0.000 C 
ATOM     15  C   UNL     1      46.702   3.724   7.447  0.00  0.00    +0.000 C 
ATOM     16  C   UNL     1      45.435   4.032   8.255  0.00  0.00    +0.000 C 
BRANCH  16  17
ATOM     17  N   UNL     1      45.525   5.411   8.763  0.00  0.00    +0.000 NA
ATOM     18  H   UNL     1      45.400   5.408   9.774  0.00  0.00    +0.000 HD
ATOM     19  H   UNL     1      44.760   5.957   8.371  0.00  0.00    +0.000 HD
ENDBRANCH  16  17
ENDBRANCH   9  11
ENDBRANCH   8   9
ENDBRANCH   5   8
ENDBRANCH   1   2
BRANCH   1  20
ATOM     20  N   UNL     1      48.822   7.603  13.805  0.00  0.00    +0.000 N 
ATOM     21  C   UNL     1      49.655   7.745  14.937  0.00  0.00    +0.000 C 
ATOM     22  O   UNL     1      50.865   7.570  14.794  0.00  0.00    +0.000 OA
BRANCH  21  23
ATOM     23  C   UNL     1      49.138   8.046  16.303  0.00  0.00    +0.000 A 
ATOM     24  C   UNL     1      49.008   9.287  16.905  0.00  0.00    +0.000 A 
ATOM     25  S   UNL     1      48.237   9.297  18.422  0.00  0.00    +0.000 S 
ATOM     26  C   UNL     1      48.017   7.622  18.360  0.00  0.00    +0.000 A 
ATOM     27  N   UNL     1      47.352   6.999  19.365  0.00  0.00    +0.000 NA
ATOM     28  C   UNL     1      47.209   5.727  19.193  0.00  0.00    +0.000 A 
ATOM     29  N   UNL     1      47.686   5.031  18.119  0.00  0.00    +0.000 N 
ATOM     30  C   UNL     1      48.481   5.598  17.139  0.00  0.00    +0.000 A 
ATOM     31  O   UNL     1      49.080   4.872  16.359  0.00  0.00    +0.000 OA
ATOM     32  C   UNL     1      48.576   7.054  17.224  0.00  0.00    +0.000 A 
ATOM     33  H   UNL     1      47.614   4.026  18.085  0.00  0.00    +0.000 HD
ENDBRANCH  21  23
BRANCH  20  34
ATOM     34  C   UNL     1      49.467   7.253  12.523  0.00  0.00    +0.000 C 
BRANCH  34  36
ATOM     35  C   UNL     1      49.892   9.637  11.666  0.00  0.00    +0.000 C 
ATOM     36  C   UNL     1      49.252   8.283  11.402  0.00  0.00    +0.000 C 
ENDBRANCH  34  36
ENDBRANCH  20  34
ENDBRANCH   1  20
TORSDOF 9
ENDMDL
MODEL 3
REMARK VINA RESULT:    -7.068      3.451      8.439
REMARK INTER + INTRA:         -12.340
REMARK INTER:                 -10.523
REMARK INTRA:                  -1.816
REMARK UNBOUND:                -1.760
REMARK  Name = 
REMARK  10 active torsions:
REMARK  status: ('A' for Active; 'I' for Inactive)
REMARK    1  A    between atoms: C_1  and  C_2
REMARK    2  A    between atoms: C_2  and  C_3
REMARK    3  A    between atoms: C_3  and  N_4
REMARK    4  A    between atoms: N_4  and  C_5
REMARK    5  A    between atoms: C_5  and  C_6
REMARK    6  A    between atoms: C_9  and  C_10
REMARK    7  A    between atoms: C_10  and  N_11
REMARK    8  A    between atoms: N_11  and  C_12
REMARK    9  A    between atoms: C_17  and  N_18
REMARK   10  A    between atoms: C_21  and  C_23
REMARK                            x       y       z     vdW  Elec       q    Type
REMARK                         _______ _______ _______ _____ _____    ______ ____
ROOT
ATOM      1  C   UNL     1      49.312   7.023  15.083  0.00  0.00    +0.000 C 
ENDROOT
BRANCH   1   2
ATOM      2  C   UNL     1      48.168   6.845  14.098  0.00  0.00    +0.000 A 
ATOM      3  C   UNL     1      47.386   5.682  14.015  0.00  0.00    +0.000 A 
ATOM      4  C   UNL     1      46.327   5.579  13.104  0.00  0.00    +0.000 A 
ATOM      5  C   UNL     1      46.042   6.628  12.223  0.00  0.00    +0.000 A 
ATOM      6  C   UNL     1      46.810   7.796  12.310  0.00  0.00    +0.000 A 
ATOM      7  C   UNL     1      47.847   7.907  13.241  0.00  0.00    +0.000 A 
BRANCH   5   8
ATOM      8  C   UNL     1      44.970   6.498  11.166  0.00  0.00    +0.000 C 
BRANCH   8   9
ATOM      9  N   UNL     1      44.190   5.258  11.212  0.00  0.00    +0.000 NA
ATOM     10  H   UNL     1      43.209   5.504  11.308  0.00  0.00    +0.000 HD
BRANCH   9  11
ATOM     11  C   UNL     1      44.343   4.389  10.031  0.00  0.00    +0.000 C 
ATOM     12  C   UNL     1      45.539   4.772   9.142  0.00  0.00    +0.000 C 
ATOM     13  C   UNL     1      45.601   3.870   7.911  0.00  0.00    +0.000 C 
ATOM     14  C   UNL     1      45.695   2.398   8.296  0.00  0.00    +0.000 C 
ATOM     15  C   UNL     1      44.565   1.982   9.237  0.00  0.00    +0.000 C 
ATOM     16  C   UNL     1      44.487   2.895  10.468  0.00  0.00    +0.000 C 
BRANCH  16  17
ATOM     17  N   UNL     1      43.373   2.443  11.318  0.00  0.00    +0.000 NA
ATOM     18  H   UNL     1      42.506   2.870  10.995  0.00  0.00    +0.000 HD
ATOM     19  H   UNL     1      43.530   2.772  12.269  0.00  0.00    +0.000 HD
ENDBRANCH  16  17
ENDBRANCH   9  11
ENDBRANCH   8   9
ENDBRANCH   5   8
ENDBRANCH   1   2
BRANCH   1  20
ATOM     20  N   UNL     1      48.914   7.565  16.380  0.00  0.00    +0.000 N 
ATOM     21  C   UNL     1      48.467   6.845  17.510  0.00  0.00    +0.000 C 
ATOM     22  O   UNL     1      48.141   7.480  18.512  0.00  0.00    +0.000 OA
BRANCH  21  23
ATOM     23  C   UNL     1      48.416   5.355  17.566  0.00  0.00    +0.000 A 
ATOM     24  C   UNL     1      47.296   4.542  17.495  0.00  0.00    +0.000 A 
ATOM     25  S   UNL     1      47.599   2.869  17.435  0.00  0.00    +0.000 S 
ATOM     26  C   UNL     1      49.268   3.134  17.489  0.00  0.00    +0.000 A 
ATOM     27  N   UNL     1      50.113   2.075  17.415  0.00  0.00    +0.000 NA
ATOM     28  C   UNL     1      51.363   2.398  17.424  0.00  0.00    +0.000 A 
ATOM     29  N   UNL     1      51.834   3.677  17.520  0.00  0.00    +0.000 N 
ATOM     30  C   UNL     1      51.015   4.773  17.730  0.00  0.00    +0.000 A 
ATOM     31  O   UNL     1      51.515   5.838  18.061  0.00  0.00    +0.000 OA
ATOM     32  C   UNL     1      49.589   4.477  17.610  0.00  0.00    +0.000 A 
ATOM     33  H   UNL     1      52.822   3.856  17.607  0.00  0.00    +0.000 HD
ENDBRANCH  21  23
BRANCH  20  34
ATOM     34  C   UNL     1      48.959   9.037  16.484  0.00  0.00    +0.000 C 
BRANCH  34  36
ATOM     35  C   UNL     1      49.614  10.855  14.792  0.00  0.00    +0.000 C 
ATOM     36  C   UNL     1      50.078   9.697  15.661  0.00  0.00    +0.000 C 
ENDBRANCH  34  36
ENDBRANCH  20  34
ENDBRANCH   1  20
TORSDOF 9
ENDMDL
MODEL 4
REMARK VINA RESULT:    -6.777      1.748      2.590
REMARK INTER + INTRA:         -11.905
REMARK INTER:                 -10.184
REMARK INTRA:                  -1.721
REMARK UNBOUND:                -1.760
REMARK  Name = 
REMARK  10 active torsions:
REMARK  status: ('A' for Active; 'I' for Inactive)
REMARK    1  A    between atoms: C_1  and  C_2
REMARK    2  A    between atoms: C_2  and  C_3
REMARK    3  A    between atoms: C_3  and  N_4
REMARK    4  A    between atoms: N_4  and  C_5
REMARK    5  A    between atoms: C_5  and  C_6
REMARK    6  A    between atoms: C_9  and  C_10
REMARK    7  A    between atoms: C_10  and  N_11
REMARK    8  A    between atoms: N_11  and  C_12
REMARK    9  A    between atoms: C_17  and  N_18
REMARK   10  A    between atoms: C_21  and  C_23
REMARK                            x       y       z     vdW  Elec       q    Type
REMARK                         _______ _______ _______ _____ _____    ______ ____
ROOT
ATOM      1  C   UNL     1      47.711   6.534  12.627  0.00  0.00    +0.000 C 
ENDROOT
BRANCH   1   2
ATOM      2  C   UNL     1      47.767   5.879  13.997  0.00  0.00    +0.000 A 
ATOM      3  C   UNL     1      48.526   6.377  15.068  0.00  0.00    +0.000 A 
ATOM      4  C   UNL     1      48.523   5.747  16.319  0.00  0.00    +0.000 A 
ATOM      5  C   UNL     1      47.785   4.577  16.524  0.00  0.00    +0.000 A 
ATOM      6  C   UNL     1      47.015   4.082  15.464  0.00  0.00    +0.000 A 
ATOM      7  C   UNL     1      46.997   4.730  14.225  0.00  0.00    +0.000 A 
BRANCH   5   8
ATOM      8  C   UNL     1      47.848   3.827  17.835  0.00  0.00    +0.000 C 
BRANCH   8   9
ATOM      9  N   UNL     1      47.716   4.653  19.038  0.00  0.00    +0.000 NA
ATOM     10  H   UNL     1      46.868   4.373  19.523  0.00  0.00    +0.000 HD
BRANCH   9  11
ATOM     11  C   UNL     1      48.848   4.560  19.977  0.00  0.00    +0.000 C 
ATOM     12  C   UNL     1      50.182   5.034  19.374  0.00  0.00    +0.000 C 
ATOM     13  C   UNL     1      51.317   4.856  20.380  0.00  0.00    +0.000 C 
ATOM     14  C   UNL     1      51.042   5.606  21.679  0.00  0.00    +0.000 C 
ATOM     15  C   UNL     1      49.693   5.221  22.284  0.00  0.00    +0.000 C 
ATOM     16  C   UNL     1      48.550   5.383  21.273  0.00  0.00    +0.000 C 
BRANCH  16  17
ATOM     17  N   UNL     1      47.289   4.984  21.921  0.00  0.00    +0.000 NA
ATOM     18  H   UNL     1      46.642   5.770  21.914  0.00  0.00    +0.000 HD
ATOM     19  H   UNL     1      47.477   4.761  22.897  0.00  0.00    +0.000 HD
ENDBRANCH  16  17
ENDBRANCH   9  11
ENDBRANCH   8   9
ENDBRANCH   5   8
ENDBRANCH   1   2
BRANCH   1  20
ATOM     20  N   UNL     1      46.605   7.471  12.450  0.00  0.00    +0.000 N 
ATOM     21  C   UNL     1      45.466   7.310  11.630  0.00  0.00    +0.000 C 
ATOM     22  O   UNL     1      44.649   8.228  11.583  0.00  0.00    +0.000 OA
BRANCH  21  23
ATOM     23  C   UNL     1      45.179   6.064  10.861  0.00  0.00    +0.000 A 
ATOM     24  C   UNL     1      45.632   5.728   9.595  0.00  0.00    +0.000 A 
ATOM     25  S   UNL     1      45.245   4.158   9.064  0.00  0.00    +0.000 S 
ATOM     26  C   UNL     1      44.448   3.825  10.518  0.00  0.00    +0.000 A 
ATOM     27  N   UNL     1      43.922   2.591  10.722  0.00  0.00    +0.000 NA
ATOM     28  C   UNL     1      43.373   2.438  11.881  0.00  0.00    +0.000 A 
ATOM     29  N   UNL     1      43.292   3.412  12.836  0.00  0.00    +0.000 N 
ATOM     30  C   UNL     1      43.695   4.718  12.624  0.00  0.00    +0.000 A 
ATOM     31  O   UNL     1      43.359   5.585  13.418  0.00  0.00    +0.000 OA
ATOM     32  C   UNL     1      44.427   4.916  11.374  0.00  0.00    +0.000 A 
ATOM     33  H   UNL     1      42.777   3.254  13.688  0.00  0.00    +0.000 HD
ENDBRANCH  21  23
BRANCH  20  34
ATOM     34  C   UNL     1      46.734   8.740  13.195  0.00  0.00    +0.000 C 
BRANCH  34  36
ATOM     35  C   UNL     1      48.226  10.044  11.560  0.00  0.00    +0.000 C 
ATOM     36  C   UNL     1      48.062   9.480  12.962  0.00  0.00    +0.000 C 
ENDBRANCH  34  36
ENDBRANCH  20  34
ENDBRANCH   1  20
TORSDOF 9
ENDMDL
MODEL 5
REMARK VINA RESULT:    -6.719      2.064      3.136
REMARK INTER + INTRA:         -11.818
REMARK INTER:                 -10.202
REMARK INTRA:                  -1.616
REMARK UNBOUND:                -1.760
REMARK  Name = 
REMARK  10 active torsions:
REMARK  status: ('A' for Active; 'I' for Inactive)
REMARK    1  A    between atoms: C_1  and  C_2
REMARK    2  A    between atoms: C_2  and  C_3
REMARK    3  A    between atoms: C_3  and  N_4
REMARK    4  A    between atoms: N_4  and  C_5
REMARK    5  A    between atoms: C_5  and  C_6
REMARK    6  A    between atoms: C_9  and  C_10
REMARK    7  A    between atoms: C_10  and  N_11
REMARK    8  A    between atoms: N_11  and  C_12
REMARK    9  A    between atoms: C_17  and  N_18
REMARK   10  A    between atoms: C_21  and  C_23
REMARK                            x       y       z     vdW  Elec       q    Type
REMARK                         _______ _______ _______ _____ _____    ______ ____
ROOT
ATOM      1  C   UNL     1      47.420   6.460  12.222  0.00  0.00    +0.000 C 
ENDROOT
BRANCH   1   2
ATOM      2  C   UNL     1      47.626   5.968  13.646  0.00  0.00    +0.000 A 
ATOM      3  C   UNL     1      47.044   4.797  14.157  0.00  0.00    +0.000 A 
ATOM      4  C   UNL     1      47.287   4.377  15.471  0.00  0.00    +0.000 A 
ATOM      5  C   UNL     1      48.095   5.137  16.323  0.00  0.00    +0.000 A 
ATOM      6  C   UNL     1      48.689   6.298  15.815  0.00  0.00    +0.000 A 
ATOM      7  C   UNL     1      48.468   6.700  14.494  0.00  0.00    +0.000 A 
BRANCH   5   8
ATOM      8  C   UNL     1      48.288   4.754  17.773  0.00  0.00    +0.000 C 
BRANCH   8   9
ATOM      9  N   UNL     1      49.626   5.004  18.315  0.00  0.00    +0.000 NA
ATOM     10  H   UNL     1      49.521   5.424  19.235  0.00  0.00    +0.000 HD
BRANCH   9  11
ATOM     11  C   UNL     1      50.476   3.806  18.439  0.00  0.00    +0.000 C 
ATOM     12  C   UNL     1      50.263   2.787  17.306  0.00  0.00    +0.000 C 
ATOM     13  C   UNL     1      51.130   1.550  17.529  0.00  0.00    +0.000 C 
ATOM     14  C   UNL     1      52.608   1.908  17.629  0.00  0.00    +0.000 C 
ATOM     15  C   UNL     1      52.866   2.971  18.696  0.00  0.00    +0.000 C 
ATOM     16  C   UNL     1      51.986   4.211  18.487  0.00  0.00    +0.000 C 
BRANCH  16  17
ATOM     17  N   UNL     1      52.279   5.181  19.555  0.00  0.00    +0.000 NA
ATOM     18  H   UNL     1      51.820   6.066  19.343  0.00  0.00    +0.000 HD
ATOM     19  H   UNL     1      53.281   5.362  19.569  0.00  0.00    +0.000 HD
ENDBRANCH  16  17
ENDBRANCH   9  11
ENDBRANCH   8   9
ENDBRANCH   5   8
ENDBRANCH   1   2
BRANCH   1  20
ATOM     20  N   UNL     1      46.218   7.268  12.030  0.00  0.00    +0.000 N 
ATOM     21  C   UNL     1      44.920   6.812  11.711  0.00  0.00    +0.000 C 
ATOM     22  O   UNL     1      44.032   7.650  11.554  0.00  0.00    +0.000 OA
BRANCH  21  23
ATOM     23  C   UNL     1      44.560   5.369  11.604  0.00  0.00    +0.000 A 
ATOM     24  C   UNL     1      43.878   4.594  12.529  0.00  0.00    +0.000 A 
ATOM     25  S   UNL     1      43.495   3.013  12.031  0.00  0.00    +0.000 S 
ATOM     26  C   UNL     1      44.217   3.275  10.525  0.00  0.00    +0.000 A 
ATOM     27  N   UNL     1      44.179   2.294   9.588  0.00  0.00    +0.000 NA
ATOM     28  C   UNL     1      44.725   2.619   8.464  0.00  0.00    +0.000 A 
ATOM     29  N   UNL     1      45.317   3.823   8.207  0.00  0.00    +0.000 N 
ATOM     30  C   UNL     1      45.495   4.801   9.170  0.00  0.00    +0.000 A 
ATOM     31  O   UNL     1      46.252   5.733   8.942  0.00  0.00    +0.000 OA
ATOM     32  C   UNL     1      44.794   4.532  10.423  0.00  0.00    +0.000 A 
ATOM     33  H   UNL     1      45.799   3.983   7.337  0.00  0.00    +0.000 HD
ENDBRANCH  21  23
BRANCH  20  34
ATOM     34  C   UNL     1      46.418   8.726  12.153  0.00  0.00    +0.000 C 
BRANCH  34  36
ATOM     35  C   UNL     1      48.446  10.072  12.975  0.00  0.00    +0.000 C 
ATOM     36  C   UNL     1      47.857   9.195  11.881  0.00  0.00    +0.000 C 
ENDBRANCH  34  36
ENDBRANCH  20  34
ENDBRANCH   1  20
TORSDOF 9
ENDMDL
MODEL 6
REMARK VINA RESULT:    -6.498      2.491      3.847
REMARK INTER + INTRA:         -11.487
REMARK INTER:                  -9.768
REMARK INTRA:                  -1.718
REMARK UNBOUND:                -1.760
REMARK  Name = 
REMARK  10 active torsions:
REMARK  status: ('A' for Active; 'I' for Inactive)
REMARK    1  A    between atoms: C_1  and  C_2
REMARK    2  A    between atoms: C_2  and  C_3
REMARK    3  A    between atoms: C_3  and  N_4
REMARK    4  A    between atoms: N_4  and  C_5
REMARK    5  A    between atoms: C_5  and  C_6
REMARK    6  A    between atoms: C_9  and  C_10
REMARK    7  A    between atoms: C_10  and  N_11
REMARK    8  A    between atoms: N_11  and  C_12
REMARK    9  A    between atoms: C_17  and  N_18
REMARK   10  A    between atoms: C_21  and  C_23
REMARK                            x       y       z     vdW  Elec       q    Type
REMARK                         _______ _______ _______ _____ _____    ______ ____
ROOT
ATOM      1  C   UNL     1      47.650   6.902  12.195  0.00  0.00    +0.000 C 
ENDROOT
BRANCH   1   2
ATOM      2  C   UNL     1      47.983   6.478  13.616  0.00  0.00    +0.000 A 
ATOM      3  C   UNL     1      47.337   5.426  14.286  0.00  0.00    +0.000 A 
ATOM      4  C   UNL     1      47.700   5.061  15.588  0.00  0.00    +0.000 A 
ATOM      5  C   UNL     1      48.698   5.762  16.272  0.00  0.00    +0.000 A 
ATOM      6  C   UNL     1      49.355   6.803  15.604  0.00  0.00    +0.000 A 
ATOM      7  C   UNL     1      49.011   7.147  14.293  0.00  0.00    +0.000 A 
BRANCH   5   8
ATOM      8  C   UNL     1      49.034   5.449  17.712  0.00  0.00    +0.000 C 
BRANCH   8   9
ATOM      9  N   UNL     1      49.222   4.028  18.018  0.00  0.00    +0.000 NA
ATOM     10  H   UNL     1      48.549   3.496  17.473  0.00  0.00    +0.000 HD
BRANCH   9  11
ATOM     11  C   UNL     1      50.572   3.509  17.734  0.00  0.00    +0.000 C 
ATOM     12  C   UNL     1      51.566   3.732  18.888  0.00  0.00    +0.000 C 
ATOM     13  C   UNL     1      52.954   3.224  18.504  0.00  0.00    +0.000 C 
ATOM     14  C   UNL     1      52.928   1.747  18.123  0.00  0.00    +0.000 C 
ATOM     15  C   UNL     1      51.904   1.460  17.026  0.00  0.00    +0.000 C 
ATOM     16  C   UNL     1      50.511   1.983  17.398  0.00  0.00    +0.000 C 
BRANCH  16  17
ATOM     17  N   UNL     1      49.585   1.683  16.293  0.00  0.00    +0.000 NA
ATOM     18  H   UNL     1      50.080   1.165  15.569  0.00  0.00    +0.000 HD
ATOM     19  H   UNL     1      49.277   2.558  15.875  0.00  0.00    +0.000 HD
ENDBRANCH  16  17
ENDBRANCH   9  11
ENDBRANCH   8   9
ENDBRANCH   5   8
ENDBRANCH   1   2
BRANCH   1  20
ATOM     20  N   UNL     1      46.428   7.693  12.070  0.00  0.00    +0.000 N 
ATOM     21  C   UNL     1      45.241   7.338  11.391  0.00  0.00    +0.000 C 
ATOM     22  O   UNL     1      44.320   8.153  11.366  0.00  0.00    +0.000 OA
BRANCH  21  23
ATOM     23  C   UNL     1      45.031   6.008  10.748  0.00  0.00    +0.000 A 
ATOM     24  C   UNL     1      45.483   5.586   9.508  0.00  0.00    +0.000 A 
ATOM     25  S   UNL     1      45.200   3.950   9.135  0.00  0.00    +0.000 S 
ATOM     26  C   UNL     1      44.456   3.701  10.632  0.00  0.00    +0.000 A 
ATOM     27  N   UNL     1      44.024   2.458  10.963  0.00  0.00    +0.000 NA
ATOM     28  C   UNL     1      43.509   2.377  12.145  0.00  0.00    +0.000 A 
ATOM     29  N   UNL     1      43.375   3.429  13.007  0.00  0.00    +0.000 N 
ATOM     30  C   UNL     1      43.680   4.734  12.664  0.00  0.00    +0.000 A 
ATOM     31  O   UNL     1      43.297   5.646  13.383  0.00  0.00    +0.000 OA
ATOM     32  C   UNL     1      44.372   4.864  11.384  0.00  0.00    +0.000 A 
ATOM     33  H   UNL     1      42.888   3.316  13.882  0.00  0.00    +0.000 HD
ENDBRANCH  21  23
BRANCH  20  34
ATOM     34  C   UNL     1      46.477   9.025  12.704  0.00  0.00    +0.000 C 
BRANCH  34  36
ATOM     35  C   UNL     1      48.532  10.560  12.848  0.00  0.00    +0.000 C 
ATOM     36  C   UNL     1      47.392  10.035  11.990  0.00  0.00    +0.000 C 
ENDBRANCH  34  36
ENDBRANCH  20  34
ENDBRANCH   1  20
TORSDOF 9
ENDMDL
MODEL 7
REMARK VINA RESULT:    -6.486      3.694      8.166
REMARK INTER + INTRA:         -11.469
REMARK INTER:                  -9.545
REMARK INTRA:                  -1.924
REMARK UNBOUND:                -1.760
REMARK  Name = 
REMARK  10 active torsions:
REMARK  status: ('A' for Active; 'I' for Inactive)
REMARK    1  A    between atoms: C_1  and  C_2
REMARK    2  A    between atoms: C_2  and  C_3
REMARK    3  A    between atoms: C_3  and  N_4
REMARK    4  A    between atoms: N_4  and  C_5
REMARK    5  A    between atoms: C_5  and  C_6
REMARK    6  A    between atoms: C_9  and  C_10
REMARK    7  A    between atoms: C_10  and  N_11
REMARK    8  A    between atoms: N_11  and  C_12
REMARK    9  A    between atoms: C_17  and  N_18
REMARK   10  A    between atoms: C_21  and  C_23
REMARK                            x       y       z     vdW  Elec       q    Type
REMARK                         _______ _______ _______ _____ _____    ______ ____
ROOT
ATOM      1  C   UNL     1      50.326   7.524  16.780  0.00  0.00    +0.000 C 
ENDROOT
BRANCH   1   2
ATOM      2  C   UNL     1      49.251   7.663  15.714  0.00  0.00    +0.000 A 
ATOM      3  C   UNL     1      48.439   8.799  15.572  0.00  0.00    +0.000 A 
ATOM      4  C   UNL     1      47.479   8.885  14.556  0.00  0.00    +0.000 A 
ATOM      5  C   UNL     1      47.280   7.819  13.673  0.00  0.00    +0.000 A 
ATOM      6  C   UNL     1      48.096   6.689  13.801  0.00  0.00    +0.000 A 
ATOM      7  C   UNL     1      49.074   6.618  14.798  0.00  0.00    +0.000 A 
BRANCH   5   8
ATOM      8  C   UNL     1      46.181   7.852  12.635  0.00  0.00    +0.000 C 
BRANCH   8   9
ATOM      9  N   UNL     1      44.978   7.085  12.970  0.00  0.00    +0.000 NA
ATOM     10  H   UNL     1      44.235   7.743  13.191  0.00  0.00    +0.000 HD
BRANCH   9  11
ATOM     11  C   UNL     1      44.504   6.182  11.906  0.00  0.00    +0.000 C 
ATOM     12  C   UNL     1      45.635   5.658  11.004  0.00  0.00    +0.000 C 
ATOM     13  C   UNL     1      45.067   4.778   9.892  0.00  0.00    +0.000 C 
ATOM     14  C   UNL     1      44.268   3.607  10.452  0.00  0.00    +0.000 C 
ATOM     15  C   UNL     1      43.173   4.071  11.411  0.00  0.00    +0.000 C 
ATOM     16  C   UNL     1      43.735   4.969  12.522  0.00  0.00    +0.000 C 
BRANCH  16  17
ATOM     17  N   UNL     1      42.625   5.386  13.396  0.00  0.00    +0.000 NA
ATOM     18  H   UNL     1      42.235   6.262  13.052  0.00  0.00    +0.000 HD
ATOM     19  H   UNL     1      42.992   5.569  14.328  0.00  0.00    +0.000 HD
ENDBRANCH  16  17
ENDBRANCH   9  11
ENDBRANCH   8   9
ENDBRANCH   5   8
ENDBRANCH   1   2
BRANCH   1  20
ATOM     20  N   UNL     1      49.823   7.534  18.151  0.00  0.00    +0.000 N 
ATOM     21  C   UNL     1      49.042   6.542  18.786  0.00  0.00    +0.000 C 
ATOM     22  O   UNL     1      48.681   6.741  19.945  0.00  0.00    +0.000 OA
BRANCH  21  23
ATOM     23  C   UNL     1      48.677   5.248  18.141  0.00  0.00    +0.000 A 
ATOM     24  C   UNL     1      47.481   4.917  17.525  0.00  0.00    +0.000 A 
ATOM     25  S   UNL     1      47.442   3.403  16.749  0.00  0.00    +0.000 S 
ATOM     26  C   UNL     1      49.047   3.099  17.187  0.00  0.00    +0.000 A 
ATOM     27  N   UNL     1      49.645   1.955  16.770  0.00  0.00    +0.000 NA
ATOM     28  C   UNL     1      50.882   1.848  17.128  0.00  0.00    +0.000 A 
ATOM     29  N   UNL     1      51.556   2.771  17.876  0.00  0.00    +0.000 N 
ATOM     30  C   UNL     1      50.952   3.884  18.433  0.00  0.00    +0.000 A 
ATOM     31  O   UNL     1      51.544   4.519  19.293  0.00  0.00    +0.000 OA
ATOM     32  C   UNL     1      49.587   4.113  17.963  0.00  0.00    +0.000 A 
ATOM     33  H   UNL     1      52.495   2.588  18.193  0.00  0.00    +0.000 HD
ENDBRANCH  21  23
BRANCH  20  34
ATOM     34  C   UNL     1      50.151   8.745  18.930  0.00  0.00    +0.000 C 
BRANCH  34  36
ATOM     35  C   UNL     1      50.098  11.145  18.016  0.00  0.00    +0.000 C 
ATOM     36  C   UNL     1      50.871   9.841  18.126  0.00  0.00    +0.000 C 
ENDBRANCH  34  36
ENDBRANCH  20  34
ENDBRANCH   1  20
TORSDOF 9
ENDMDL
MODEL 8
REMARK VINA RESULT:    -6.480      3.438      8.339
REMARK INTER + INTRA:         -11.460
REMARK INTER:                  -9.702
REMARK INTRA:                  -1.758
REMARK UNBOUND:                -1.760
REMARK  Name = 
REMARK  10 active torsions:
REMARK  status: ('A' for Active; 'I' for Inactive)
REMARK    1  A    between atoms: C_1  and  C_2
REMARK    2  A    between atoms: C_2  and  C_3
REMARK    3  A    between atoms: C_3  and  N_4
REMARK    4  A    between atoms: N_4  and  C_5
REMARK    5  A    between atoms: C_5  and  C_6
REMARK    6  A    between atoms: C_9  and  C_10
REMARK    7  A    between atoms: C_10  and  N_11
REMARK    8  A    between atoms: N_11  and  C_12
REMARK    9  A    between atoms: C_17  and  N_18
REMARK   10  A    between atoms: C_21  and  C_23
REMARK                            x       y       z     vdW  Elec       q    Type
REMARK                         _______ _______ _______ _____ _____    ______ ____
ROOT
ATOM      1  C   UNL     1      49.352   8.507  16.243  0.00  0.00    +0.000 C 
ENDROOT
BRANCH   1   2
ATOM      2  C   UNL     1      48.553   8.041  15.038  0.00  0.00    +0.000 A 
ATOM      3  C   UNL     1      47.547   8.807  14.426  0.00  0.00    +0.000 A 
ATOM      4  C   UNL     1      46.857   8.338  13.302  0.00  0.00    +0.000 A 
ATOM      5  C   UNL     1      47.129   7.071  12.777  0.00  0.00    +0.000 A 
ATOM      6  C   UNL     1      48.140   6.308  13.373  0.00  0.00    +0.000 A 
ATOM      7  C   UNL     1      48.848   6.790  14.478  0.00  0.00    +0.000 A 
BRANCH   5   8
ATOM      8  C   UNL     1      46.326   6.507  11.627  0.00  0.00    +0.000 C 
BRANCH   8   9
ATOM      9  N   UNL     1      45.245   5.593  12.006  0.00  0.00    +0.000 NA
ATOM     10  H   UNL     1      44.473   6.147  12.366  0.00  0.00    +0.000 HD
BRANCH   9  11
ATOM     11  C   UNL     1      44.743   4.743  10.911  0.00  0.00    +0.000 C 
ATOM     12  C   UNL     1      45.450   4.998   9.568  0.00  0.00    +0.000 C 
ATOM     13  C   UNL     1      44.841   4.128   8.470  0.00  0.00    +0.000 C 
ATOM     14  C   UNL     1      44.916   2.645   8.820  0.00  0.00    +0.000 C 
ATOM     15  C   UNL     1      44.288   2.349  10.181  0.00  0.00    +0.000 C 
ATOM     16  C   UNL     1      44.883   3.231  11.285  0.00  0.00    +0.000 C 
BRANCH  16  17
ATOM     17  N   UNL     1      44.224   2.899  12.559  0.00  0.00    +0.000 NA
ATOM     18  H   UNL     1      44.913   2.911  13.310  0.00  0.00    +0.000 HD
ATOM     19  H   UNL     1      43.860   1.950  12.504  0.00  0.00    +0.000 HD
ENDBRANCH  16  17
ENDBRANCH   9  11
ENDBRANCH   8   9
ENDBRANCH   5   8
ENDBRANCH   1   2
BRANCH   1  20
ATOM     20  N   UNL     1      48.737   8.202  17.532  0.00  0.00    +0.000 N 
ATOM     21  C   UNL     1      48.926   7.045  18.321  0.00  0.00    +0.000 C 
ATOM     22  O   UNL     1      48.292   6.948  19.371  0.00  0.00    +0.000 OA
BRANCH  21  23
ATOM     23  C   UNL     1      49.889   5.962  17.970  0.00  0.00    +0.000 A 
ATOM     24  C   UNL     1      51.262   5.955  18.160  0.00  0.00    +0.000 A 
ATOM     25  S   UNL     1      52.053   4.495  17.788  0.00  0.00    +0.000 S 
ATOM     26  C   UNL     1      50.588   3.771  17.355  0.00  0.00    +0.000 A 
ATOM     27  N   UNL     1      50.574   2.467  16.982  0.00  0.00    +0.000 NA
ATOM     28  C   UNL     1      49.397   2.009  16.713  0.00  0.00    +0.000 A 
ATOM     29  N   UNL     1      48.247   2.745  16.767  0.00  0.00    +0.000 N 
ATOM     30  C   UNL     1      48.228   4.106  17.013  0.00  0.00    +0.000 A 
ATOM     31  O   UNL     1      47.206   4.740  16.793  0.00  0.00    +0.000 OA
ATOM     32  C   UNL     1      49.517   4.648  17.438  0.00  0.00    +0.000 A 
ATOM     33  H   UNL     1      47.370   2.351  16.464  0.00  0.00    +0.000 HD
ENDBRANCH  21  23
BRANCH  20  34
ATOM     34  C   UNL     1      47.787   9.217  18.029  0.00  0.00    +0.000 C 
BRANCH  34  36
ATOM     35  C   UNL     1      47.357  11.736  18.297  0.00  0.00    +0.000 C 
ATOM     36  C   UNL     1      48.388  10.623  18.193  0.00  0.00    +0.000 C 
ENDBRANCH  34  36
ENDBRANCH  20  34
ENDBRANCH   1  20
TORSDOF 9
ENDMDL
MODEL 9
REMARK VINA RESULT:    -6.397      4.242      8.764
REMARK INTER + INTRA:         -11.335
REMARK INTER:                  -9.910
REMARK INTRA:                  -1.425
REMARK UNBOUND:                -1.760
REMARK  Name = 
REMARK  10 active torsions:
REMARK  status: ('A' for Active; 'I' for Inactive)
REMARK    1  A    between atoms: C_1  and  C_2
REMARK    2  A    between atoms: C_2  and  C_3
REMARK    3  A    between atoms: C_3  and  N_4
REMARK    4  A    between atoms: N_4  and  C_5
REMARK    5  A    between atoms: C_5  and  C_6
REMARK    6  A    between atoms: C_9  and  C_10
REMARK    7  A    between atoms: C_10  and  N_11
REMARK    8  A    between atoms: N_11  and  C_12
REMARK    9  A    between atoms: C_17  and  N_18
REMARK   10  A    between atoms: C_21  and  C_23
REMARK                            x       y       z     vdW  Elec       q    Type
REMARK                         _______ _______ _______ _____ _____    ______ ____
ROOT
ATOM      1  C   UNL     1      49.955   6.597  16.509  0.00  0.00    +0.000 C 
ENDROOT
BRANCH   1   2
ATOM      2  C   UNL     1      48.944   6.820  15.396  0.00  0.00    +0.000 A 
ATOM      3  C   UNL     1      48.150   5.799  14.849  0.00  0.00    +0.000 A 
ATOM      4  C   UNL     1      47.216   6.065  13.840  0.00  0.00    +0.000 A 
ATOM      5  C   UNL     1      47.074   7.357  13.324  0.00  0.00    +0.000 A 
ATOM      6  C   UNL     1      47.853   8.382  13.874  0.00  0.00    +0.000 A 
ATOM      7  C   UNL     1      48.764   8.120  14.902  0.00  0.00    +0.000 A 
BRANCH   5   8
ATOM      8  C   UNL     1      46.145   7.644  12.167  0.00  0.00    +0.000 C 
BRANCH   8   9
ATOM      9  N   UNL     1      44.751   7.235  12.365  0.00  0.00    +0.000 NA
ATOM     10  H   UNL     1      44.157   8.039  12.181  0.00  0.00    +0.000 HD
BRANCH   9  11
ATOM     11  C   UNL     1      44.308   6.117  11.512  0.00  0.00    +0.000 C 
ATOM     12  C   UNL     1      45.416   5.578  10.590  0.00  0.00    +0.000 C 
ATOM     13  C   UNL     1      44.872   4.465   9.696  0.00  0.00    +0.000 C 
ATOM     14  C   UNL     1      44.281   3.323  10.515  0.00  0.00    +0.000 C 
ATOM     15  C   UNL     1      43.222   3.817  11.500  0.00  0.00    +0.000 C 
ATOM     16  C   UNL     1      43.756   4.947  12.389  0.00  0.00    +0.000 C 
BRANCH  16  17
ATOM     17  N   UNL     1      42.681   5.378  13.298  0.00  0.00    +0.000 NA
ATOM     18  H   UNL     1      41.800   4.962  13.001  0.00  0.00    +0.000 HD
ATOM     19  H   UNL     1      42.573   6.388  13.224  0.00  0.00    +0.000 HD
ENDBRANCH  16  17
ENDBRANCH   9  11
ENDBRANCH   8   9
ENDBRANCH   5   8
ENDBRANCH   1   2
BRANCH   1  20
ATOM     20  N   UNL     1      49.364   6.311  17.814  0.00  0.00    +0.000 N 
ATOM     21  C   UNL     1      49.861   5.441  18.810  0.00  0.00    +0.000 C 
ATOM     22  O   UNL     1      49.204   5.301  19.841  0.00  0.00    +0.000 OA
BRANCH  21  23
ATOM     23  C   UNL     1      51.164   4.724  18.696  0.00  0.00    +0.000 A 
ATOM     24  C   UNL     1      52.388   5.102  19.224  0.00  0.00    +0.000 A 
ATOM     25  S   UNL     1      53.653   3.978  19.040  0.00  0.00    +0.000 S 
ATOM     26  C   UNL     1      52.624   2.899  18.243  0.00  0.00    +0.000 A 
ATOM     27  N   UNL     1      53.098   1.687  17.858  0.00  0.00    +0.000 NA
ATOM     28  C   UNL     1      52.215   0.931  17.296  0.00  0.00    +0.000 A 
ATOM     29  N   UNL     1      50.916   1.290  17.071  0.00  0.00    +0.000 N 
ATOM     30  C   UNL     1      50.424   2.558  17.325  0.00  0.00    +0.000 A 
ATOM     31  O   UNL     1      49.339   2.882  16.865  0.00  0.00    +0.000 OA
ATOM     32  C   UNL     1      51.347   3.413  18.067  0.00  0.00    +0.000 A 
ATOM     33  H   UNL     1      50.299   0.686  16.552  0.00  0.00    +0.000 HD
ENDBRANCH  21  23
BRANCH  20  34
ATOM     34  C   UNL     1      48.083   6.994  18.084  0.00  0.00    +0.000 C 
BRANCH  34  36
ATOM     35  C   UNL     1      47.421   8.738  19.851  0.00  0.00    +0.000 C 
ATOM     36  C   UNL     1      48.228   8.437  18.598  0.00  0.00    +0.000 C 
ENDBRANCH  34  36
ENDBRANCH  20  34
ENDBRANCH   1  20
TORSDOF 9
ENDMDL
