MODEL 1
REMARK VINA RESULT:    -8.771      0.000      0.000
REMARK INTER + INTRA:         -14.639
REMARK INTER:                 -12.873
REMARK INTRA:                  -1.766
REMARK UNBOUND:                -1.766
REMARK  Name = 
REMARK  10 active torsions:
REMARK  status: ('A' for Active; 'I' for Inactive)
REMARK    1  A    between atoms: C_1  and  C_2
REMARK    2  A    between atoms: N_4  and  C_5
REMARK    3  A    between atoms: C_11  and  C_12
REMARK    4  A    between atoms: N_14  and  C_15
REMARK    5  A    between atoms: C_15  and  C_16
REMARK    6  A    between atoms: C_19  and  C_20
REMARK    7  A    between atoms: C_20  and  N_21
REMARK    8  A    between atoms: N_21  and  C_22
REMARK    9  A    between atoms: C_22  and  C_23
REMARK   10  A    between atoms: N_32  and  C_33
REMARK                            x       y       z     vdW  Elec       q    Type
REMARK                         _______ _______ _______ _____ _____    ______ ____
ROOT
ATOM      1  C   UNL     1      48.876   6.704  16.088  0.00  0.00    +0.000 C 
ATOM      2  O   UNL     1      49.919   6.084  15.889  0.00  0.00    +0.000 OA
ATOM      3  N   UNL     1      48.006   6.978  15.066  0.00  0.00    +0.000 N 
ATOM      4  H   UNL     1      47.154   7.497  15.225  0.00  0.00    +0.000 HD
ENDROOT
BRANCH   1  11
ATOM      5  C   UNL     1      48.539   5.029  18.964  0.00  0.00    +0.000 A 
ATOM      6  N   UNL     1      48.366   4.674  20.255  0.00  0.00    +0.000 NA
ATOM      7  C   UNL     1      48.040   5.614  21.151  0.00  0.00    +0.000 A 
ATOM      8  N   UNL     1      47.857   6.925  20.934  0.00  0.00    +0.000 NA
ATOM      9  C   UNL     1      48.057   7.249  19.646  0.00  0.00    +0.000 A 
ATOM     10  C   UNL     1      48.414   6.389  18.613  0.00  0.00    +0.000 A 
ATOM     11  C   UNL     1      48.514   7.189  17.414  0.00  0.00    +0.000 A 
ATOM     12  C   UNL     1      48.185   8.490  17.780  0.00  0.00    +0.000 A 
ATOM     13  N   UNL     1      47.913   8.505  19.125  0.00  0.00    +0.000 N 
ATOM     14  C   UNL     1      47.500   9.662  19.889  0.00  0.00    +0.000 C 
BRANCH   5  18
ATOM     15  C   UNL     1      48.486   2.368  16.329  0.00  0.00    +0.000 C 
ATOM     16  C   UNL     1      47.870   3.348  17.293  0.00  0.00    +0.000 C 
ATOM     17  O   UNL     1      46.650   3.460  17.368  0.00  0.00    +0.000 OA
ATOM     18  N   UNL     1      48.815   4.057  17.996  0.00  0.00    +0.000 N 
ATOM     19  H   UNL     1      49.785   3.975  17.702  0.00  0.00    +0.000 HD
ENDBRANCH   5  18
ENDBRANCH   1  11
BRANCH   3  20
ATOM     20  C   UNL     1      48.325   6.533  13.734  0.00  0.00    +0.000 C 
BRANCH  20  21
ATOM     21  C   UNL     1      47.095   6.119  12.985  0.00  0.00    +0.000 A 
ATOM     22  C   UNL     1      46.177   5.234  13.559  0.00  0.00    +0.000 A 
ATOM     23  C   UNL     1      45.040   4.842  12.854  0.00  0.00    +0.000 A 
ATOM     24  C   UNL     1      44.798   5.332  11.559  0.00  0.00    +0.000 A 
ATOM     25  C   UNL     1      45.728   6.207  10.983  0.00  0.00    +0.000 A 
ATOM     26  C   UNL     1      46.868   6.594  11.687  0.00  0.00    +0.000 A 
BRANCH  24  27
ATOM     27  C   UNL     1      43.561   4.920  10.797  0.00  0.00    +0.000 C 
BRANCH  27  28
ATOM     28  N   UNL     1      43.910   4.417   9.471  0.00  0.00    +0.000 NA
ATOM     29  H   UNL     1      44.662   4.988   9.088  0.00  0.00    +0.000 HD
BRANCH  28  30
ATOM     30  C   UNL     1      44.353   3.026   9.519  0.00  0.00    +0.000 C 
BRANCH  30  31
ATOM     31  C   UNL     1      45.445   2.777   8.504  0.00  0.00    +0.000 A 
ATOM     32  C   UNL     1      46.001   1.499   8.355  0.00  0.00    +0.000 A 
ATOM     33  C   UNL     1      47.019   1.272   7.426  0.00  0.00    +0.000 A 
ATOM     34  C   UNL     1      47.492   2.318   6.636  0.00  0.00    +0.000 A 
ATOM     35  C   UNL     1      46.943   3.592   6.769  0.00  0.00    +0.000 A 
ATOM     36  C   UNL     1      45.922   3.820   7.694  0.00  0.00    +0.000 A 
ENDBRANCH  30  31
ENDBRANCH  28  30
ENDBRANCH  27  28
ENDBRANCH  24  27
ENDBRANCH  20  21
ENDBRANCH   3  20
TORSDOF 8
ENDMDL
MODEL 2
REMARK VINA RESULT:    -7.663      1.712      3.525
REMARK INTER + INTRA:         -13.013
REMARK INTER:                 -11.460
REMARK INTRA:                  -1.553
REMARK UNBOUND:                -1.766
REMARK  Name = 
REMARK  10 active torsions:
REMARK  status: ('A' for Active; 'I' for Inactive)
REMARK    1  A    between atoms: C_1  and  C_2
REMARK    2  A    between atoms: N_4  and  C_5
REMARK    3  A    between atoms: C_11  and  C_12
REMARK    4  A    between atoms: N_14  and  C_15
REMARK    5  A    between atoms: C_15  and  C_16
REMARK    6  A    between atoms: C_19  and  C_20
REMARK    7  A    between atoms: C_20  and  N_21
REMARK    8  A    between atoms: N_21  and  C_22
REMARK    9  A    between atoms: C_22  and  C_23
REMARK   10  A    between atoms: N_32  and  C_33
REMARK                            x       y       z     vdW  Elec       q    Type
REMARK                         _______ _______ _______ _____ _____    ______ ____
ROOT
ATOM      1  C   UNL     1      48.892   6.947  15.168  0.00  0.00    +0.000 C 
ATOM      2  O   UNL     1      49.994   6.908  14.623  0.00  0.00    +0.000 OA
ATOM      3  N   UNL     1      47.736   6.930  14.434  0.00  0.00    +0.000 N 
ATOM      4  H   UNL     1      46.829   6.971  14.878  0.00  0.00    +0.000 HD
ENDROOT
BRANCH   1  11
ATOM      5  C   UNL     1      48.010   9.526  17.107  0.00  0.00    +0.000 A 
ATOM      6  N   UNL     1      47.660  10.323  18.139  0.00  0.00    +0.000 NA
ATOM      7  C   UNL     1      47.683   9.827  19.382  0.00  0.00    +0.000 A 
ATOM      8  N   UNL     1      48.018   8.585  19.763  0.00  0.00    +0.000 NA
ATOM      9  C   UNL     1      48.341   7.812  18.714  0.00  0.00    +0.000 A 
ATOM     10  C   UNL     1      48.346   8.182  17.373  0.00  0.00    +0.000 A 
ATOM     11  C   UNL     1      48.757   7.022  16.617  0.00  0.00    +0.000 A 
ATOM     12  C   UNL     1      49.007   6.016  17.544  0.00  0.00    +0.000 A 
ATOM     13  N   UNL     1      48.752   6.510  18.798  0.00  0.00    +0.000 N 
ATOM     14  C   UNL     1      48.919   5.788  20.040  0.00  0.00    +0.000 C 
BRANCH   5  18
ATOM     15  C   UNL     1      48.904  11.025  13.793  0.00  0.00    +0.000 C 
ATOM     16  C   UNL     1      49.180  10.543  15.194  0.00  0.00    +0.000 C 
ATOM     17  O   UNL     1      50.314  10.610  15.659  0.00  0.00    +0.000 OA
ATOM     18  N   UNL     1      48.058  10.036  15.805  0.00  0.00    +0.000 N 
ATOM     19  H   UNL     1      47.230   9.891  15.232  0.00  0.00    +0.000 HD
ENDBRANCH   5  18
ENDBRANCH   1  11
BRANCH   3  20
ATOM     20  C   UNL     1      47.817   6.870  12.997  0.00  0.00    +0.000 C 
BRANCH  20  21
ATOM     21  C   UNL     1      46.745   5.994  12.423  0.00  0.00    +0.000 A 
ATOM     22  C   UNL     1      46.313   4.856  13.112  0.00  0.00    +0.000 A 
ATOM     23  C   UNL     1      45.324   4.036  12.569  0.00  0.00    +0.000 A 
ATOM     24  C   UNL     1      44.746   4.342  11.325  0.00  0.00    +0.000 A 
ATOM     25  C   UNL     1      45.193   5.475  10.633  0.00  0.00    +0.000 A 
ATOM     26  C   UNL     1      46.186   6.291  11.174  0.00  0.00    +0.000 A 
BRANCH  24  27
ATOM     27  C   UNL     1      43.666   3.465  10.740  0.00  0.00    +0.000 C 
BRANCH  27  28
ATOM     28  N   UNL     1      44.008   3.054   9.382  0.00  0.00    +0.000 NA
ATOM     29  H   UNL     1      44.344   3.865   8.864  0.00  0.00    +0.000 HD
BRANCH  28  30
ATOM     30  C   UNL     1      45.047   2.027   9.372  0.00  0.00    +0.000 C 
BRANCH  30  31
ATOM     31  C   UNL     1      45.919   2.160   8.144  0.00  0.00    +0.000 A 
ATOM     32  C   UNL     1      45.916   3.344   7.394  0.00  0.00    +0.000 A 
ATOM     33  C   UNL     1      46.712   3.463   6.252  0.00  0.00    +0.000 A 
ATOM     34  C   UNL     1      47.518   2.401   5.848  0.00  0.00    +0.000 A 
ATOM     35  C   UNL     1      47.536   1.221   6.589  0.00  0.00    +0.000 A 
ATOM     36  C   UNL     1      46.744   1.102   7.733  0.00  0.00    +0.000 A 
ENDBRANCH  30  31
ENDBRANCH  28  30
ENDBRANCH  27  28
ENDBRANCH  24  27
ENDBRANCH  20  21
ENDBRANCH   3  20
TORSDOF 8
ENDMDL
MODEL 3
REMARK VINA RESULT:    -7.650      1.369      3.023
REMARK INTER + INTRA:         -12.994
REMARK INTER:                 -11.438
REMARK INTRA:                  -1.556
REMARK UNBOUND:                -1.766
REMARK  Name = 
REMARK  10 active torsions:
REMARK  status: ('A' for Active; 'I' for Inactive)
REMARK    1  A    between atoms: C_1  and  C_2
REMARK    2  A    between atoms: N_4  and  C_5
REMARK    3  A    between atoms: C_11  and  C_12
REMARK    4  A    between atoms: N_14  and  C_15
REMARK    5  A    between atoms: C_15  and  C_16
REMARK    6  A    between atoms: C_19  and  C_20
REMARK    7  A    between atoms: C_20  and  N_21
REMARK    8  A    between atoms: N_21  and  C_22
REMARK    9  A    between atoms: C_22  and  C_23
REMARK   10  A    between atoms: N_32  and  C_33
REMARK                            x       y       z     vdW  Elec       q    Type
REMARK                         _______ _______ _______ _____ _____    ______ ____
ROOT
ATOM      1  C   UNL     1      48.334   5.033  17.007  0.00  0.00    +0.000 C 
ATOM      2  O   UNL     1      49.479   4.717  16.689  0.00  0.00    +0.000 OA
ATOM      3  N   UNL     1      47.250   4.582  16.301  0.00  0.00    +0.000 N 
ATOM      4  H   UNL     1      46.309   4.848  16.554  0.00  0.00    +0.000 HD
ENDROOT
BRANCH   1  11
ATOM      5  C   UNL     1      48.200   8.373  17.149  0.00  0.00    +0.000 A 
ATOM      6  N   UNL     1      48.037   9.658  17.531  0.00  0.00    +0.000 NA
ATOM      7  C   UNL     1      47.742   9.924  18.809  0.00  0.00    +0.000 A 
ATOM      8  N   UNL     1      47.572   9.049  19.811  0.00  0.00    +0.000 NA
ATOM      9  C   UNL     1      47.720   7.781  19.395  0.00  0.00    +0.000 A 
ATOM     10  C   UNL     1      48.009   7.353  18.104  0.00  0.00    +0.000 A 
ATOM     11  C   UNL     1      48.069   5.910  18.141  0.00  0.00    +0.000 A 
ATOM     12  C   UNL     1      47.841   5.540  19.462  0.00  0.00    +0.000 A 
ATOM     13  N   UNL     1      47.634   6.678  20.200  0.00  0.00    +0.000 N 
ATOM     14  C   UNL     1      47.393   6.727  21.625  0.00  0.00    +0.000 C 
BRANCH   5  18
ATOM     15  C   UNL     1      49.939   7.629  13.916  0.00  0.00    +0.000 C 
ATOM     16  C   UNL     1      49.868   7.954  15.386  0.00  0.00    +0.000 C 
ATOM     17  O   UNL     1      50.896   8.065  16.046  0.00  0.00    +0.000 OA
ATOM     18  N   UNL     1      48.574   8.069  15.835  0.00  0.00    +0.000 N 
ATOM     19  H   UNL     1      47.827   7.782  15.208  0.00  0.00    +0.000 HD
ENDBRANCH   5  18
ENDBRANCH   1  11
BRANCH   3  20
ATOM     20  C   UNL     1      47.461   3.724  15.164  0.00  0.00    +0.000 C 
BRANCH  20  21
ATOM     21  C   UNL     1      46.806   4.275  13.934  0.00  0.00    +0.000 A 
ATOM     22  C   UNL     1      47.018   5.602  13.549  0.00  0.00    +0.000 A 
ATOM     23  C   UNL     1      46.396   6.115  12.411  0.00  0.00    +0.000 A 
ATOM     24  C   UNL     1      45.551   5.305  11.633  0.00  0.00    +0.000 A 
ATOM     25  C   UNL     1      45.331   3.980  12.030  0.00  0.00    +0.000 A 
ATOM     26  C   UNL     1      45.948   3.471  13.172  0.00  0.00    +0.000 A 
BRANCH  24  27
ATOM     27  C   UNL     1      44.887   5.852  10.392  0.00  0.00    +0.000 C 
BRANCH  27  28
ATOM     28  N   UNL     1      45.496   5.295   9.188  0.00  0.00    +0.000 NA
ATOM     29  H   UNL     1      46.458   5.031   9.395  0.00  0.00    +0.000 HD
BRANCH  28  30
ATOM     30  C   UNL     1      44.777   4.116   8.712  0.00  0.00    +0.000 C 
BRANCH  30  31
ATOM     31  C   UNL     1      45.730   3.126   8.082  0.00  0.00    +0.000 A 
ATOM     32  C   UNL     1      45.709   1.777   8.461  0.00  0.00    +0.000 A 
ATOM     33  C   UNL     1      46.597   0.864   7.888  0.00  0.00    +0.000 A 
ATOM     34  C   UNL     1      47.517   1.289   6.931  0.00  0.00    +0.000 A 
ATOM     35  C   UNL     1      47.544   2.626   6.540  0.00  0.00    +0.000 A 
ATOM     36  C   UNL     1      46.653   3.539   7.109  0.00  0.00    +0.000 A 
ENDBRANCH  30  31
ENDBRANCH  28  30
ENDBRANCH  27  28
ENDBRANCH  24  27
ENDBRANCH  20  21
ENDBRANCH   3  20
TORSDOF 8
ENDMDL
MODEL 4
REMARK VINA RESULT:    -7.230      2.158      3.509
REMARK INTER + INTRA:         -12.377
REMARK INTER:                 -10.799
REMARK INTRA:                  -1.578
REMARK UNBOUND:                -1.766
REMARK  Name = 
REMARK  10 active torsions:
REMARK  status: ('A' for Active; 'I' for Inactive)
REMARK    1  A    between atoms: C_1  and  C_2
REMARK    2  A    between atoms: N_4  and  C_5
REMARK    3  A    between atoms: C_11  and  C_12
REMARK    4  A    between atoms: N_14  and  C_15
REMARK    5  A    between atoms: C_15  and  C_16
REMARK    6  A    between atoms: C_19  and  C_20
REMARK    7  A    between atoms: C_20  and  N_21
REMARK    8  A    between atoms: N_21  and  C_22
REMARK    9  A    between atoms: C_22  and  C_23
REMARK   10  A    between atoms: N_32  and  C_33
REMARK                            x       y       z     vdW  Elec       q    Type
REMARK                         _______ _______ _______ _____ _____    ______ ____
ROOT
ATOM      1  C   UNL     1      48.844   6.977  15.640  0.00  0.00    +0.000 C 
ATOM      2  O   UNL     1      48.928   8.202  15.570  0.00  0.00    +0.000 OA
ATOM      3  N   UNL     1      48.343   6.239  14.600  0.00  0.00    +0.000 N 
ATOM      4  H   UNL     1      48.263   5.233  14.658  0.00  0.00    +0.000 HD
ENDROOT
BRANCH   1  11
ATOM      5  C   UNL     1      51.920   6.269  16.748  0.00  0.00    +0.000 A 
ATOM      6  N   UNL     1      52.986   5.866  17.472  0.00  0.00    +0.000 NA
ATOM      7  C   UNL     1      52.782   5.194  18.612  0.00  0.00    +0.000 A 
ATOM      8  N   UNL     1      51.608   4.854  19.165  0.00  0.00    +0.000 NA
ATOM      9  C   UNL     1      50.569   5.287  18.432  0.00  0.00    +0.000 A 
ATOM     10  C   UNL     1      50.626   6.007  17.243  0.00  0.00    +0.000 A 
ATOM     11  C   UNL     1      49.263   6.247  16.829  0.00  0.00    +0.000 A 
ATOM     12  C   UNL     1      48.450   5.634  17.777  0.00  0.00    +0.000 A 
ATOM     13  N   UNL     1      49.253   5.063  18.732  0.00  0.00    +0.000 N 
ATOM     14  C   UNL     1      48.796   4.303  19.874  0.00  0.00    +0.000 C 
BRANCH   5  18
ATOM     15  C   UNL     1      52.493   8.648  13.912  0.00  0.00    +0.000 C 
ATOM     16  C   UNL     1      52.352   8.258  15.360  0.00  0.00    +0.000 C 
ATOM     17  O   UNL     1      52.481   9.100  16.244  0.00  0.00    +0.000 OA
ATOM     18  N   UNL     1      52.105   6.915  15.520  0.00  0.00    +0.000 N 
ATOM     19  H   UNL     1      52.195   6.316  14.704  0.00  0.00    +0.000 HD
ENDBRANCH   5  18
ENDBRANCH   1  11
BRANCH   3  20
ATOM     20  C   UNL     1      47.902   6.915  13.408  0.00  0.00    +0.000 C 
BRANCH  20  21
ATOM     21  C   UNL     1      46.726   6.223  12.788  0.00  0.00    +0.000 A 
ATOM     22  C   UNL     1      46.178   6.690  11.589  0.00  0.00    +0.000 A 
ATOM     23  C   UNL     1      45.076   6.050  11.021  0.00  0.00    +0.000 A 
ATOM     24  C   UNL     1      44.503   4.928  11.643  0.00  0.00    +0.000 A 
ATOM     25  C   UNL     1      45.047   4.473  12.851  0.00  0.00    +0.000 A 
ATOM     26  C   UNL     1      46.145   5.117  13.420  0.00  0.00    +0.000 A 
BRANCH  24  27
ATOM     27  C   UNL     1      43.318   4.224  11.025  0.00  0.00    +0.000 C 
BRANCH  27  28
ATOM     28  N   UNL     1      43.659   3.692   9.709  0.00  0.00    +0.000 NA
ATOM     29  H   UNL     1      44.104   4.425   9.160  0.00  0.00    +0.000 HD
BRANCH  28  30
ATOM     30  C   UNL     1      44.570   2.555   9.804  0.00  0.00    +0.000 C 
BRANCH  30  31
ATOM     31  C   UNL     1      45.542   2.551   8.646  0.00  0.00    +0.000 A 
ATOM     32  C   UNL     1      46.182   1.366   8.258  0.00  0.00    +0.000 A 
ATOM     33  C   UNL     1      47.090   1.364   7.195  0.00  0.00    +0.000 A 
ATOM     34  C   UNL     1      47.367   2.545   6.510  0.00  0.00    +0.000 A 
ATOM     35  C   UNL     1      46.731   3.729   6.881  0.00  0.00    +0.000 A 
ATOM     36  C   UNL     1      45.821   3.731   7.940  0.00  0.00    +0.000 A 
ENDBRANCH  30  31
ENDBRANCH  28  30
ENDBRANCH  27  28
ENDBRANCH  24  27
ENDBRANCH  20  21
ENDBRANCH   3  20
TORSDOF 8
ENDMDL
MODEL 5
REMARK VINA RESULT:    -7.143      4.461      7.278
REMARK INTER + INTRA:         -12.249
REMARK INTER:                 -10.415
REMARK INTRA:                  -1.834
REMARK UNBOUND:                -1.766
REMARK  Name = 
REMARK  10 active torsions:
REMARK  status: ('A' for Active; 'I' for Inactive)
REMARK    1  A    between atoms: C_1  and  C_2
REMARK    2  A    between atoms: N_4  and  C_5
REMARK    3  A    between atoms: C_11  and  C_12
REMARK    4  A    between atoms: N_14  and  C_15
REMARK    5  A    between atoms: C_15  and  C_16
REMARK    6  A    between atoms: C_19  and  C_20
REMARK    7  A    between atoms: C_20  and  N_21
REMARK    8  A    between atoms: N_21  and  C_22
REMARK    9  A    between atoms: C_22  and  C_23
REMARK   10  A    between atoms: N_32  and  C_33
REMARK                            x       y       z     vdW  Elec       q    Type
REMARK                         _______ _______ _______ _____ _____    ______ ____
ROOT
ATOM      1  C   UNL     1      50.385   7.952  12.261  0.00  0.00    +0.000 C 
ATOM      2  O   UNL     1      50.604   8.406  13.382  0.00  0.00    +0.000 OA
ATOM      3  N   UNL     1      49.289   7.168  12.014  0.00  0.00    +0.000 N 
ATOM      4  H   UNL     1      49.112   6.785  11.096  0.00  0.00    +0.000 HD
ENDROOT
BRANCH   1  11
ATOM      5  C   UNL     1      51.403  10.862  10.962  0.00  0.00    +0.000 A 
ATOM      6  N   UNL     1      52.019  11.829  10.250  0.00  0.00    +0.000 NA
ATOM      7  C   UNL     1      52.843  11.478   9.254  0.00  0.00    +0.000 A 
ATOM      8  N   UNL     1      53.159  10.239   8.849  0.00  0.00    +0.000 NA
ATOM      9  C   UNL     1      52.546   9.301   9.590  0.00  0.00    +0.000 A 
ATOM     10  C   UNL     1      51.683   9.513  10.660  0.00  0.00    +0.000 A 
ATOM     11  C   UNL     1      51.280   8.212  11.141  0.00  0.00    +0.000 A 
ATOM     12  C   UNL     1      51.899   7.279  10.316  0.00  0.00    +0.000 A 
ATOM     13  N   UNL     1      52.655   7.953   9.391  0.00  0.00    +0.000 N 
ATOM     14  C   UNL     1      53.432   7.346   8.333  0.00  0.00    +0.000 C 
BRANCH   5  18
ATOM     15  C   UNL     1      48.411  11.640  13.077  0.00  0.00    +0.000 C 
ATOM     16  C   UNL     1      49.121  11.226  11.815  0.00  0.00    +0.000 C 
ATOM     17  O   UNL     1      48.479  10.938  10.809  0.00  0.00    +0.000 OA
ATOM     18  N   UNL     1      50.487  11.200  11.965  0.00  0.00    +0.000 N 
ATOM     19  H   UNL     1      50.862  11.299  12.905  0.00  0.00    +0.000 HD
ENDBRANCH   5  18
ENDBRANCH   1  11
BRANCH   3  20
ATOM     20  C   UNL     1      48.382   6.870  13.092  0.00  0.00    +0.000 C 
BRANCH  20  21
ATOM     21  C   UNL     1      47.143   6.189  12.593  0.00  0.00    +0.000 A 
ATOM     22  C   UNL     1      46.590   6.536  11.357  0.00  0.00    +0.000 A 
ATOM     23  C   UNL     1      45.430   5.910  10.902  0.00  0.00    +0.000 A 
ATOM     24  C   UNL     1      44.802   4.920  11.677  0.00  0.00    +0.000 A 
ATOM     25  C   UNL     1      45.353   4.586  12.921  0.00  0.00    +0.000 A 
ATOM     26  C   UNL     1      46.509   5.218  13.377  0.00  0.00    +0.000 A 
BRANCH  24  27
ATOM     27  C   UNL     1      43.554   4.229  11.183  0.00  0.00    +0.000 C 
BRANCH  27  28
ATOM     28  N   UNL     1      43.721   3.779   9.804  0.00  0.00    +0.000 NA
ATOM     29  H   UNL     1      44.259   4.476   9.291  0.00  0.00    +0.000 HD
BRANCH  28  30
ATOM     30  C   UNL     1      44.418   2.498   9.732  0.00  0.00    +0.000 C 
BRANCH  30  31
ATOM     31  C   UNL     1      45.457   2.516   8.634  0.00  0.00    +0.000 A 
ATOM     32  C   UNL     1      45.737   3.700   7.938  0.00  0.00    +0.000 A 
ATOM     33  C   UNL     1      46.688   3.714   6.915  0.00  0.00    +0.000 A 
ATOM     34  C   UNL     1      47.369   2.546   6.577  0.00  0.00    +0.000 A 
ATOM     35  C   UNL     1      47.106   1.364   7.266  0.00  0.00    +0.000 A 
ATOM     36  C   UNL     1      46.159   1.349   8.291  0.00  0.00    +0.000 A 
ENDBRANCH  30  31
ENDBRANCH  28  30
ENDBRANCH  27  28
ENDBRANCH  24  27
ENDBRANCH  20  21
ENDBRANCH   3  20
TORSDOF 8
ENDMDL
MODEL 6
REMARK VINA RESULT:    -7.113      2.478      2.907
REMARK INTER + INTRA:         -12.205
REMARK INTER:                 -10.945
REMARK INTRA:                  -1.260
REMARK UNBOUND:                -1.766
REMARK  Name = 
REMARK  10 active torsions:
REMARK  status: ('A' for Active; 'I' for Inactive)
REMARK    1  A    between atoms: C_1  and  C_2
REMARK    2  A    between atoms: N_4  and  C_5
REMARK    3  A    between atoms: C_11  and  C_12
REMARK    4  A    between atoms: N_14  and  C_15
REMARK    5  A    between atoms: C_15  and  C_16
REMARK    6  A    between atoms: C_19  and  C_20
REMARK    7  A    between atoms: C_20  and  N_21
REMARK    8  A    between atoms: N_21  and  C_22
REMARK    9  A    between atoms: C_22  and  C_23
REMARK   10  A    between atoms: N_32  and  C_33
REMARK                            x       y       z     vdW  Elec       q    Type
REMARK                         _______ _______ _______ _____ _____    ______ ____
ROOT
ATOM      1  C   UNL     1      48.672   8.103  14.615  0.00  0.00    +0.000 C 
ATOM      2  O   UNL     1      47.537   8.370  15.006  0.00  0.00    +0.000 OA
ATOM      3  N   UNL     1      49.068   8.391  13.336  0.00  0.00    +0.000 N 
ATOM      4  H   UNL     1      49.996   8.164  13.008  0.00  0.00    +0.000 HD
ENDROOT
BRANCH   1  11
ATOM      5  C   UNL     1      48.560   5.125  16.135  0.00  0.00    +0.000 A 
ATOM      6  N   UNL     1      48.843   4.003  16.831  0.00  0.00    +0.000 NA
ATOM      7  C   UNL     1      50.010   3.919  17.482  0.00  0.00    +0.000 A 
ATOM      8  N   UNL     1      50.986   4.837  17.537  0.00  0.00    +0.000 NA
ATOM      9  C   UNL     1      50.683   5.930  16.820  0.00  0.00    +0.000 A 
ATOM     10  C   UNL     1      49.525   6.152  16.082  0.00  0.00    +0.000 A 
ATOM     11  C   UNL     1      49.650   7.461  15.483  0.00  0.00    +0.000 A 
ATOM     12  C   UNL     1      50.868   7.976  15.913  0.00  0.00    +0.000 A 
ATOM     13  N   UNL     1      51.474   7.042  16.715  0.00  0.00    +0.000 N 
ATOM     14  C   UNL     1      52.744   7.203  17.387  0.00  0.00    +0.000 C 
BRANCH   5  18
ATOM     15  C   UNL     1      45.503   4.908  13.981  0.00  0.00    +0.000 C 
ATOM     16  C   UNL     1      46.875   4.500  14.450  0.00  0.00    +0.000 C 
ATOM     17  O   UNL     1      47.458   3.560  13.918  0.00  0.00    +0.000 OA
ATOM     18  N   UNL     1      47.321   5.267  15.500  0.00  0.00    +0.000 N 
ATOM     19  H   UNL     1      46.656   5.897  15.943  0.00  0.00    +0.000 HD
ENDBRANCH   5  18
ENDBRANCH   1  11
BRANCH   3  20
ATOM     20  C   UNL     1      48.133   9.013  12.435  0.00  0.00    +0.000 C 
BRANCH  20  21
ATOM     21  C   UNL     1      47.080   8.047  11.984  0.00  0.00    +0.000 A 
ATOM     22  C   UNL     1      45.724   8.335  12.171  0.00  0.00    +0.000 A 
ATOM     23  C   UNL     1      44.747   7.428  11.762  0.00  0.00    +0.000 A 
ATOM     24  C   UNL     1      45.110   6.213  11.155  0.00  0.00    +0.000 A 
ATOM     25  C   UNL     1      46.470   5.923  10.983  0.00  0.00    +0.000 A 
ATOM     26  C   UNL     1      47.445   6.829  11.398  0.00  0.00    +0.000 A 
BRANCH  24  27
ATOM     27  C   UNL     1      44.056   5.234  10.698  0.00  0.00    +0.000 C 
BRANCH  27  28
ATOM     28  N   UNL     1      44.364   4.720   9.366  0.00  0.00    +0.000 NA
ATOM     29  H   UNL     1      45.270   5.083   9.073  0.00  0.00    +0.000 HD
BRANCH  28  30
ATOM     30  C   UNL     1      44.412   3.261   9.346  0.00  0.00    +0.000 C 
BRANCH  30  31
ATOM     31  C   UNL     1      45.523   2.775   8.443  0.00  0.00    +0.000 A 
ATOM     32  C   UNL     1      45.883   1.420   8.422  0.00  0.00    +0.000 A 
ATOM     33  C   UNL     1      46.918   0.973   7.597  0.00  0.00    +0.000 A 
ATOM     34  C   UNL     1      47.604   1.874   6.786  0.00  0.00    +0.000 A 
ATOM     35  C   UNL     1      47.253   3.223   6.792  0.00  0.00    +0.000 A 
ATOM     36  C   UNL     1      46.215   3.670   7.613  0.00  0.00    +0.000 A 
ENDBRANCH  30  31
ENDBRANCH  28  30
ENDBRANCH  27  28
ENDBRANCH  24  27
ENDBRANCH  20  21
ENDBRANCH   3  20
TORSDOF 8
ENDMDL
MODEL 7
REMARK VINA RESULT:    -7.002      2.407      4.110
REMARK INTER + INTRA:         -12.042
REMARK INTER:                 -10.550
REMARK INTRA:                  -1.492
REMARK UNBOUND:                -1.766
REMARK  Name = 
REMARK  10 active torsions:
REMARK  status: ('A' for Active; 'I' for Inactive)
REMARK    1  A    between atoms: C_1  and  C_2
REMARK    2  A    between atoms: N_4  and  C_5
REMARK    3  A    between atoms: C_11  and  C_12
REMARK    4  A    between atoms: N_14  and  C_15
REMARK    5  A    between atoms: C_15  and  C_16
REMARK    6  A    between atoms: C_19  and  C_20
REMARK    7  A    between atoms: C_20  and  N_21
REMARK    8  A    between atoms: N_21  and  C_22
REMARK    9  A    between atoms: C_22  and  C_23
REMARK   10  A    between atoms: N_32  and  C_33
REMARK                            x       y       z     vdW  Elec       q    Type
REMARK                         _______ _______ _______ _____ _____    ______ ____
ROOT
ATOM      1  C   UNL     1      48.909   7.422  15.692  0.00  0.00    +0.000 C 
ATOM      2  O   UNL     1      49.847   6.647  15.871  0.00  0.00    +0.000 OA
ATOM      3  N   UNL     1      47.962   7.182  14.731  0.00  0.00    +0.000 N 
ATOM      4  H   UNL     1      47.197   7.822  14.574  0.00  0.00    +0.000 HD
ENDROOT
BRANCH   1  11
ATOM      5  C   UNL     1      49.262  10.623  14.786  0.00  0.00    +0.000 A 
ATOM      6  N   UNL     1      49.284  11.972  14.742  0.00  0.00    +0.000 NA
ATOM      7  C   UNL     1      49.012  12.664  15.855  0.00  0.00    +0.000 A 
ATOM      8  N   UNL     1      48.702  12.179  17.067  0.00  0.00    +0.000 NA
ATOM      9  C   UNL     1      48.669  10.837  17.073  0.00  0.00    +0.000 A 
ATOM     10  C   UNL     1      48.910   9.990  15.996  0.00  0.00    +0.000 A 
ATOM     11  C   UNL     1      48.758   8.638  16.481  0.00  0.00    +0.000 A 
ATOM     12  C   UNL     1      48.460   8.736  17.836  0.00  0.00    +0.000 A 
ATOM     13  N   UNL     1      48.411  10.066  18.173  0.00  0.00    +0.000 N 
ATOM     14  C   UNL     1      48.160  10.592  19.495  0.00  0.00    +0.000 C 
BRANCH   5  18
ATOM     15  C   UNL     1      50.908   8.617  12.085  0.00  0.00    +0.000 C 
ATOM     16  C   UNL     1      50.857   9.370  13.388  0.00  0.00    +0.000 C 
ATOM     17  O   UNL     1      51.859   9.460  14.091  0.00  0.00    +0.000 OA
ATOM     18  N   UNL     1      49.606   9.874  13.655  0.00  0.00    +0.000 N 
ATOM     19  H   UNL     1      48.837   9.572  13.062  0.00  0.00    +0.000 HD
ENDBRANCH   5  18
ENDBRANCH   1  11
BRANCH   3  20
ATOM     20  C   UNL     1      48.075   6.000  13.915  0.00  0.00    +0.000 C 
BRANCH  20  21
ATOM     21  C   UNL     1      46.838   5.778  13.098  0.00  0.00    +0.000 A 
ATOM     22  C   UNL     1      45.834   4.916  13.549  0.00  0.00    +0.000 A 
ATOM     23  C   UNL     1      44.690   4.702  12.781  0.00  0.00    +0.000 A 
ATOM     24  C   UNL     1      44.528   5.351  11.545  0.00  0.00    +0.000 A 
ATOM     25  C   UNL     1      45.543   6.203  11.091  0.00  0.00    +0.000 A 
ATOM     26  C   UNL     1      46.689   6.411  11.858  0.00  0.00    +0.000 A 
BRANCH  24  27
ATOM     27  C   UNL     1      43.285   5.133  10.716  0.00  0.00    +0.000 C 
BRANCH  27  28
ATOM     28  N   UNL     1      43.608   4.457   9.463  0.00  0.00    +0.000 NA
ATOM     29  H   UNL     1      44.250   5.040   8.928  0.00  0.00    +0.000 HD
BRANCH  28  30
ATOM     30  C   UNL     1      44.233   3.158   9.694  0.00  0.00    +0.000 C 
BRANCH  30  31
ATOM     31  C   UNL     1      45.349   2.918   8.702  0.00  0.00    +0.000 A 
ATOM     32  C   UNL     1      45.841   1.624   8.483  0.00  0.00    +0.000 A 
ATOM     33  C   UNL     1      46.880   1.403   7.576  0.00  0.00    +0.000 A 
ATOM     34  C   UNL     1      47.439   2.473   6.879  0.00  0.00    +0.000 A 
ATOM     35  C   UNL     1      46.953   3.764   7.081  0.00  0.00    +0.000 A 
ATOM     36  C   UNL     1      45.912   3.985   7.984  0.00  0.00    +0.000 A 
ENDBRANCH  30  31
ENDBRANCH  28  30
ENDBRANCH  27  28
ENDBRANCH  24  27
ENDBRANCH  20  21
ENDBRANCH   3  20
TORSDOF 8
ENDMDL
MODEL 8
REMARK VINA RESULT:    -6.731      3.326      5.622
REMARK INTER + INTRA:         -11.645
REMARK INTER:                 -10.082
REMARK INTRA:                  -1.564
REMARK UNBOUND:                -1.766
REMARK  Name = 
REMARK  10 active torsions:
REMARK  status: ('A' for Active; 'I' for Inactive)
REMARK    1  A    between atoms: C_1  and  C_2
REMARK    2  A    between atoms: N_4  and  C_5
REMARK    3  A    between atoms: C_11  and  C_12
REMARK    4  A    between atoms: N_14  and  C_15
REMARK    5  A    between atoms: C_15  and  C_16
REMARK    6  A    between atoms: C_19  and  C_20
REMARK    7  A    between atoms: C_20  and  N_21
REMARK    8  A    between atoms: N_21  and  C_22
REMARK    9  A    between atoms: C_22  and  C_23
REMARK   10  A    between atoms: N_32  and  C_33
REMARK                            x       y       z     vdW  Elec       q    Type
REMARK                         _______ _______ _______ _____ _____    ______ ____
ROOT
ATOM      1  C   UNL     1      49.933   7.692  13.719  0.00  0.00    +0.000 C 
ATOM      2  O   UNL     1      50.319   7.320  14.825  0.00  0.00    +0.000 OA
ATOM      3  N   UNL     1      48.802   7.171  13.148  0.00  0.00    +0.000 N 
ATOM      4  H   UNL     1      48.488   7.468  12.234  0.00  0.00    +0.000 HD
ENDROOT
BRANCH   1  11
ATOM      5  C   UNL     1      50.015  11.017  14.081  0.00  0.00    +0.000 A 
ATOM      6  N   UNL     1      50.295  12.334  13.983  0.00  0.00    +0.000 NA
ATOM      7  C   UNL     1      51.132  12.752  13.025  0.00  0.00    +0.000 A 
ATOM      8  N   UNL     1      51.767  12.007  12.108  0.00  0.00    +0.000 NA
ATOM      9  C   UNL     1      51.484  10.701  12.245  0.00  0.00    +0.000 A 
ATOM     10  C   UNL     1      50.652  10.121  13.197  0.00  0.00    +0.000 A 
ATOM     11  C   UNL     1      50.659   8.697  12.953  0.00  0.00    +0.000 A 
ATOM     12  C   UNL     1      51.476   8.492  11.846  0.00  0.00    +0.000 A 
ATOM     13  N   UNL     1      51.962   9.708  11.435  0.00  0.00    +0.000 N 
ATOM     14  C   UNL     1      52.824   9.931  10.296  0.00  0.00    +0.000 C 
BRANCH   5  18
ATOM     15  C   UNL     1      48.179   9.777  17.101  0.00  0.00    +0.000 C 
ATOM     16  C   UNL     1      49.387  10.252  16.336  0.00  0.00    +0.000 C 
ATOM     17  O   UNL     1      50.475  10.349  16.895  0.00  0.00    +0.000 OA
ATOM     18  N   UNL     1      49.093  10.560  15.029  0.00  0.00    +0.000 N 
ATOM     19  H   UNL     1      48.113  10.592  14.758  0.00  0.00    +0.000 HD
ENDBRANCH   5  18
ENDBRANCH   1  11
BRANCH   3  20
ATOM     20  C   UNL     1      48.057   6.164  13.859  0.00  0.00    +0.000 C 
BRANCH  20  21
ATOM     21  C   UNL     1      46.833   5.750  13.100  0.00  0.00    +0.000 A 
ATOM     22  C   UNL     1      45.963   4.789  13.625  0.00  0.00    +0.000 A 
ATOM     23  C   UNL     1      44.832   4.397  12.910  0.00  0.00    +0.000 A 
ATOM     24  C   UNL     1      44.548   4.962  11.655  0.00  0.00    +0.000 A 
ATOM     25  C   UNL     1      45.431   5.914  11.128  0.00  0.00    +0.000 A 
ATOM     26  C   UNL     1      46.565   6.300  11.840  0.00  0.00    +0.000 A 
BRANCH  24  27
ATOM     27  C   UNL     1      43.317   4.551  10.884  0.00  0.00    +0.000 C 
BRANCH  27  28
ATOM     28  N   UNL     1      43.678   4.023   9.571  0.00  0.00    +0.000 NA
ATOM     29  H   UNL     1      44.292   4.688   9.104  0.00  0.00    +0.000 HD
BRANCH  28  30
ATOM     30  C   UNL     1      44.366   2.739   9.675  0.00  0.00    +0.000 C 
BRANCH  30  31
ATOM     31  C   UNL     1      45.439   2.621   8.616  0.00  0.00    +0.000 A 
ATOM     32  C   UNL     1      46.063   1.391   8.367  0.00  0.00    +0.000 A 
ATOM     33  C   UNL     1      47.063   1.284   7.398  0.00  0.00    +0.000 A 
ATOM     34  C   UNL     1      47.451   2.406   6.668  0.00  0.00    +0.000 A 
ATOM     35  C   UNL     1      46.835   3.634   6.900  0.00  0.00    +0.000 A 
ATOM     36  C   UNL     1      45.832   3.740   7.865  0.00  0.00    +0.000 A 
ENDBRANCH  30  31
ENDBRANCH  28  30
ENDBRANCH  27  28
ENDBRANCH  24  27
ENDBRANCH  20  21
ENDBRANCH   3  20
TORSDOF 8
ENDMDL
MODEL 9
REMARK VINA RESULT:    -6.695      3.198      9.197
REMARK INTER + INTRA:         -11.592
REMARK INTER:                  -9.023
REMARK INTRA:                  -2.569
REMARK UNBOUND:                -1.766
REMARK  Name = 
REMARK  10 active torsions:
REMARK  status: ('A' for Active; 'I' for Inactive)
REMARK    1  A    between atoms: C_1  and  C_2
REMARK    2  A    between atoms: N_4  and  C_5
REMARK    3  A    between atoms: C_11  and  C_12
REMARK    4  A    between atoms: N_14  and  C_15
REMARK    5  A    between atoms: C_15  and  C_16
REMARK    6  A    between atoms: C_19  and  C_20
REMARK    7  A    between atoms: C_20  and  N_21
REMARK    8  A    between atoms: N_21  and  C_22
REMARK    9  A    between atoms: C_22  and  C_23
REMARK   10  A    between atoms: N_32  and  C_33
REMARK                            x       y       z     vdW  Elec       q    Type
REMARK                         _______ _______ _______ _____ _____    ______ ____
ROOT
ATOM      1  C   UNL     1      46.915   4.376  14.284  0.00  0.00    +0.000 C 
ATOM      2  O   UNL     1      47.646   3.506  13.815  0.00  0.00    +0.000 OA
ATOM      3  N   UNL     1      47.009   4.751  15.599  0.00  0.00    +0.000 N 
ATOM      4  H   UNL     1      46.402   5.458  15.989  0.00  0.00    +0.000 HD
ENDROOT
BRANCH   1  11
ATOM      5  C   UNL     1      46.711   7.576  13.329  0.00  0.00    +0.000 A 
ATOM      6  N   UNL     1      46.362   8.747  12.756  0.00  0.00    +0.000 NA
ATOM      7  C   UNL     1      45.247   8.802  12.017  0.00  0.00    +0.000 A 
ATOM      8  N   UNL     1      44.390   7.806  11.749  0.00  0.00    +0.000 NA
ATOM      9  C   UNL     1      44.776   6.651  12.316  0.00  0.00    +0.000 A 
ATOM     10  C   UNL     1      45.911   6.439  13.091  0.00  0.00    +0.000 A 
ATOM     11  C   UNL     1      45.906   5.046  13.475  0.00  0.00    +0.000 A 
ATOM     12  C   UNL     1      44.750   4.493  12.933  0.00  0.00    +0.000 A 
ATOM     13  N   UNL     1      44.084   5.474  12.241  0.00  0.00    +0.000 N 
ATOM     14  C   UNL     1      42.821   5.314  11.556  0.00  0.00    +0.000 C 
BRANCH   5  18
ATOM     15  C   UNL     1      50.098   7.192  14.883  0.00  0.00    +0.000 C 
ATOM     16  C   UNL     1      49.109   7.200  13.746  0.00  0.00    +0.000 C 
ATOM     17  O   UNL     1      49.483   6.971  12.599  0.00  0.00    +0.000 OA
ATOM     18  N   UNL     1      47.835   7.504  14.161  0.00  0.00    +0.000 N 
ATOM     19  H   UNL     1      47.713   7.836  15.114  0.00  0.00    +0.000 HD
ENDBRANCH   5  18
ENDBRANCH   1  11
BRANCH   3  20
ATOM     20  C   UNL     1      47.981   4.107  16.444  0.00  0.00    +0.000 C 
BRANCH  20  21
ATOM     21  C   UNL     1      48.018   4.728  17.808  0.00  0.00    +0.000 A 
ATOM     22  C   UNL     1      49.170   4.642  18.597  0.00  0.00    +0.000 A 
ATOM     23  C   UNL     1      49.196   5.210  19.870  0.00  0.00    +0.000 A 
ATOM     24  C   UNL     1      48.069   5.879  20.377  0.00  0.00    +0.000 A 
ATOM     25  C   UNL     1      46.914   5.950  19.588  0.00  0.00    +0.000 A 
ATOM     26  C   UNL     1      46.887   5.377  18.318  0.00  0.00    +0.000 A 
BRANCH  24  27
ATOM     27  C   UNL     1      48.098   6.507  21.750  0.00  0.00    +0.000 C 
BRANCH  27  28
ATOM     28  N   UNL     1      49.151   7.515  21.838  0.00  0.00    +0.000 NA
ATOM     29  H   UNL     1      49.887   7.284  21.173  0.00  0.00    +0.000 HD
BRANCH  28  30
ATOM     30  C   UNL     1      48.647   8.852  21.538  0.00  0.00    +0.000 C 
BRANCH  30  31
ATOM     31  C   UNL     1      48.717   9.129  20.053  0.00  0.00    +0.000 A 
ATOM     32  C   UNL     1      47.587   9.582  19.359  0.00  0.00    +0.000 A 
ATOM     33  C   UNL     1      47.647   9.826  17.985  0.00  0.00    +0.000 A 
ATOM     34  C   UNL     1      48.837   9.619  17.290  0.00  0.00    +0.000 A 
ATOM     35  C   UNL     1      49.971   9.175  17.969  0.00  0.00    +0.000 A 
ATOM     36  C   UNL     1      49.912   8.936  19.343  0.00  0.00    +0.000 A 
ENDBRANCH  30  31
ENDBRANCH  28  30
ENDBRANCH  27  28
ENDBRANCH  24  27
ENDBRANCH  20  21
ENDBRANCH   3  20
TORSDOF 8
ENDMDL
