MODEL 1
REMARK VINA RESULT:    -8.050      0.000      0.000
REMARK INTER + INTRA:         -11.013
REMARK INTER:                 -10.403
REMARK INTRA:                  -0.610
REMARK UNBOUND:                -0.610
REMARK  Name = 
REMARK  5 active torsions:
REMARK  status: ('A' for Active; 'I' for Inactive)
REMARK    1  A    between atoms: C_2  and  C_18
REMARK    2  A    between atoms: N_3  and  C_4
REMARK    3  A    between atoms: C_4  and  C_5
REMARK    4  A    between atoms: C_8  and  C_9
REMARK    5  A    between atoms: C_9  and  N_10
REMARK                            x       y       z     vdW  Elec       q    Type
REMARK                         _______ _______ _______ _____ _____    ______ ____
ROOT
ATOM      1  O   UNL     1      46.501   3.113  13.624  0.00  0.00    +0.000 OA
ATOM      2  C   UNL     1      46.289   4.306  13.821  0.00  0.00    +0.000 C 
ATOM      3  N   UNL     1      45.103   4.914  13.481  0.00  0.00    +0.000 N 
ATOM      4  H   UNL     1      45.031   5.921  13.539  0.00  0.00    +0.000 HD
ENDROOT
BRANCH   2   5
ATOM      5  C   UNL     1      47.285   5.163  14.482  0.00  0.00    +0.000 A 
ATOM      6  C   UNL     1      47.916   6.172  13.764  0.00  0.00    +0.000 A 
ATOM      7  S   UNL     1      49.044   7.062  14.685  0.00  0.00    +0.000 S 
ATOM      8  C   UNL     1      48.697   6.159  16.085  0.00  0.00    +0.000 A 
ATOM      9  N   UNL     1      49.308   6.440  17.267  0.00  0.00    +0.000 NA
ATOM     10  C   UNL     1      48.910   5.718  18.261  0.00  0.00    +0.000 A 
ATOM     11  N   UNL     1      47.965   4.727  18.176  0.00  0.00    +0.000 N 
ATOM     12  C   UNL     1      47.395   4.345  16.987  0.00  0.00    +0.000 A 
ATOM     13  O   UNL     1      46.682   3.350  16.921  0.00  0.00    +0.000 OA
ATOM     14  C   UNL     1      47.757   5.172  15.848  0.00  0.00    +0.000 A 
ATOM     15  H   UNL     1      47.729   4.169  18.983  0.00  0.00    +0.000 HD
ENDBRANCH   2   5
BRANCH   3  16
ATOM     16  C   UNL     1      44.066   4.250  12.739  0.00  0.00    +0.000 C 
BRANCH  16  17
ATOM     17  C   UNL     1      44.446   4.063  11.290  0.00  0.00    +0.000 A 
ATOM     18  C   UNL     1      44.148   2.858  10.646  0.00  0.00    +0.000 A 
ATOM     19  C   UNL     1      44.466   2.668   9.299  0.00  0.00    +0.000 A 
ATOM     20  C   UNL     1      45.093   3.678   8.558  0.00  0.00    +0.000 A 
ATOM     21  C   UNL     1      45.432   4.871   9.218  0.00  0.00    +0.000 A 
ATOM     22  C   UNL     1      45.119   5.059  10.571  0.00  0.00    +0.000 A 
BRANCH  20  23
ATOM     23  C   UNL     1      45.475   3.441   7.112  0.00  0.00    +0.000 C 
BRANCH  23  24
ATOM     24  N   UNL     1      46.838   3.020   6.791  0.00  0.00    +0.000 NA
ATOM     25  C   UNL     1      47.225   3.049   5.379  0.00  0.00    +0.000 C 
ATOM     26  C   UNL     1      47.012   1.721   4.635  0.00  0.00    +0.000 C 
ATOM     27  O   UNL     1      47.654   0.633   5.312  0.00  0.00    +0.000 OA
ATOM     28  C   UNL     1      47.164   0.509   6.652  0.00  0.00    +0.000 C 
ATOM     29  C   UNL     1      47.341   1.810   7.451  0.00  0.00    +0.000 C 
ENDBRANCH  23  24
ENDBRANCH  20  23
ENDBRANCH  16  17
ENDBRANCH   3  16
TORSDOF 5
ENDMDL
MODEL 2
REMARK VINA RESULT:    -7.597      1.769      2.854
REMARK INTER + INTRA:         -10.427
REMARK INTER:                  -9.723
REMARK INTRA:                  -0.704
REMARK UNBOUND:                -0.610
REMARK  Name = 
REMARK  5 active torsions:
REMARK  status: ('A' for Active; 'I' for Inactive)
REMARK    1  A    between atoms: C_2  and  C_18
REMARK    2  A    between atoms: N_3  and  C_4
REMARK    3  A    between atoms: C_4  and  C_5
REMARK    4  A    between atoms: C_8  and  C_9
REMARK    5  A    between atoms: C_9  and  N_10
REMARK                            x       y       z     vdW  Elec       q    Type
REMARK                         _______ _______ _______ _____ _____    ______ ____
ROOT
ATOM      1  O   UNL     1      46.565   3.532  13.761  0.00  0.00    +0.000 OA
ATOM      2  C   UNL     1      46.440   4.752  13.810  0.00  0.00    +0.000 C 
ATOM      3  N   UNL     1      45.276   5.392  13.456  0.00  0.00    +0.000 N 
ATOM      4  H   UNL     1      45.271   6.401  13.385  0.00  0.00    +0.000 HD
ENDROOT
BRANCH   2   5
ATOM      5  C   UNL     1      47.527   5.614  14.298  0.00  0.00    +0.000 A 
ATOM      6  C   UNL     1      47.987   5.476  15.603  0.00  0.00    +0.000 A 
ATOM      7  S   UNL     1      49.245   6.559  16.000  0.00  0.00    +0.000 S 
ATOM      8  C   UNL     1      49.248   7.219  14.432  0.00  0.00    +0.000 A 
ATOM      9  N   UNL     1      50.133   8.192  14.084  0.00  0.00    +0.000 NA
ATOM     10  C   UNL     1      50.066   8.560  12.848  0.00  0.00    +0.000 A 
ATOM     11  N   UNL     1      49.181   8.054  11.930  0.00  0.00    +0.000 N 
ATOM     12  C   UNL     1      48.208   7.145  12.261  0.00  0.00    +0.000 A 
ATOM     13  O   UNL     1      47.331   6.839  11.459  0.00  0.00    +0.000 OA
ATOM     14  C   UNL     1      48.283   6.645  13.624  0.00  0.00    +0.000 A 
ATOM     15  H   UNL     1      49.151   8.417  10.989  0.00  0.00    +0.000 HD
ENDBRANCH   2   5
BRANCH   3  16
ATOM     16  C   UNL     1      44.155   4.713  12.864  0.00  0.00    +0.000 C 
BRANCH  16  17
ATOM     17  C   UNL     1      44.441   4.298  11.442  0.00  0.00    +0.000 A 
ATOM     18  C   UNL     1      45.014   5.215  10.554  0.00  0.00    +0.000 A 
ATOM     19  C   UNL     1      45.312   4.848   9.239  0.00  0.00    +0.000 A 
ATOM     20  C   UNL     1      45.044   3.555   8.774  0.00  0.00    +0.000 A 
ATOM     21  C   UNL     1      44.427   2.649   9.652  0.00  0.00    +0.000 A 
ATOM     22  C   UNL     1      44.121   3.018  10.970  0.00  0.00    +0.000 A 
BRANCH  20  23
ATOM     23  C   UNL     1      45.327   3.187   7.333  0.00  0.00    +0.000 C 
BRANCH  23  24
ATOM     24  N   UNL     1      46.703   2.915   6.920  0.00  0.00    +0.000 NA
ATOM     25  C   UNL     1      47.033   3.152   5.513  0.00  0.00    +0.000 C 
ATOM     26  C   UNL     1      46.887   1.918   4.610  0.00  0.00    +0.000 C 
ATOM     27  O   UNL     1      47.630   0.805   5.120  0.00  0.00    +0.000 OA
ATOM     28  C   UNL     1      47.202   0.474   6.447  0.00  0.00    +0.000 C 
ATOM     29  C   UNL     1      47.316   1.672   7.402  0.00  0.00    +0.000 C 
ENDBRANCH  23  24
ENDBRANCH  20  23
ENDBRANCH  16  17
ENDBRANCH   3  16
TORSDOF 5
ENDMDL
MODEL 3
REMARK VINA RESULT:    -6.968      3.824      6.664
REMARK INTER + INTRA:          -9.615
REMARK INTER:                  -8.646
REMARK INTRA:                  -0.968
REMARK UNBOUND:                -0.610
REMARK  Name = 
REMARK  5 active torsions:
REMARK  status: ('A' for Active; 'I' for Inactive)
REMARK    1  A    between atoms: C_2  and  C_18
REMARK    2  A    between atoms: N_3  and  C_4
REMARK    3  A    between atoms: C_4  and  C_5
REMARK    4  A    between atoms: C_8  and  C_9
REMARK    5  A    between atoms: C_9  and  N_10
REMARK                            x       y       z     vdW  Elec       q    Type
REMARK                         _______ _______ _______ _____ _____    ______ ____
ROOT
ATOM      1  O   UNL     1      51.986   6.130  16.525  0.00  0.00    +0.000 OA
ATOM      2  C   UNL     1      51.617   5.280  17.331  0.00  0.00    +0.000 C 
ATOM      3  N   UNL     1      50.330   5.225  17.811  0.00  0.00    +0.000 N 
ATOM      4  H   UNL     1      50.114   4.593  18.572  0.00  0.00    +0.000 HD
ENDROOT
BRANCH   2   5
ATOM      5  C   UNL     1      52.528   4.230  17.808  0.00  0.00    +0.000 A 
ATOM      6  C   UNL     1      53.750   4.577  18.372  0.00  0.00    +0.000 A 
ATOM      7  S   UNL     1      54.680   3.233  18.864  0.00  0.00    +0.000 S 
ATOM      8  C   UNL     1      53.466   2.144  18.381  0.00  0.00    +0.000 A 
ATOM      9  N   UNL     1      53.615   0.804  18.561  0.00  0.00    +0.000 NA
ATOM     10  C   UNL     1      52.594   0.099  18.205  0.00  0.00    +0.000 A 
ATOM     11  N   UNL     1      51.441   0.611  17.668  0.00  0.00    +0.000 N 
ATOM     12  C   UNL     1      51.285   1.944  17.378  0.00  0.00    +0.000 A 
ATOM     13  O   UNL     1      50.311   2.342  16.748  0.00  0.00    +0.000 OA
ATOM     14  C   UNL     1      52.378   2.792  17.823  0.00  0.00    +0.000 A 
ATOM     15  H   UNL     1      50.694  -0.000  17.370  0.00  0.00    +0.000 HD
ENDBRANCH   2   5
BRANCH   3  16
ATOM     16  C   UNL     1      49.342   6.231  17.528  0.00  0.00    +0.000 C 
BRANCH  16  17
ATOM     17  C   UNL     1      48.513   5.876  16.318  0.00  0.00    +0.000 A 
ATOM     18  C   UNL     1      48.524   6.717  15.200  0.00  0.00    +0.000 A 
ATOM     19  C   UNL     1      47.786   6.399  14.057  0.00  0.00    +0.000 A 
ATOM     20  C   UNL     1      47.014   5.232  14.001  0.00  0.00    +0.000 A 
ATOM     21  C   UNL     1      46.968   4.411  15.140  0.00  0.00    +0.000 A 
ATOM     22  C   UNL     1      47.703   4.733  16.289  0.00  0.00    +0.000 A 
BRANCH  20  23
ATOM     23  C   UNL     1      46.182   4.925  12.774  0.00  0.00    +0.000 C 
BRANCH  23  24
ATOM     24  N   UNL     1      45.064   3.988  12.882  0.00  0.00    +0.000 NA
ATOM     25  C   UNL     1      45.010   2.903  11.899  0.00  0.00    +0.000 C 
ATOM     26  C   UNL     1      44.171   3.219  10.651  0.00  0.00    +0.000 C 
ATOM     27  O   UNL     1      42.849   3.646  11.003  0.00  0.00    +0.000 OA
ATOM     28  C   UNL     1      42.897   4.803  11.846  0.00  0.00    +0.000 C 
ATOM     29  C   UNL     1      43.732   4.556  13.113  0.00  0.00    +0.000 C 
ENDBRANCH  23  24
ENDBRANCH  20  23
ENDBRANCH  16  17
ENDBRANCH   3  16
TORSDOF 5
ENDMDL
MODEL 4
REMARK VINA RESULT:    -6.954      3.753      5.234
REMARK INTER + INTRA:          -9.597
REMARK INTER:                  -8.457
REMARK INTRA:                  -1.140
REMARK UNBOUND:                -0.610
REMARK  Name = 
REMARK  5 active torsions:
REMARK  status: ('A' for Active; 'I' for Inactive)
REMARK    1  A    between atoms: C_2  and  C_18
REMARK    2  A    between atoms: N_3  and  C_4
REMARK    3  A    between atoms: C_4  and  C_5
REMARK    4  A    between atoms: C_8  and  C_9
REMARK    5  A    between atoms: C_9  and  N_10
REMARK                            x       y       z     vdW  Elec       q    Type
REMARK                         _______ _______ _______ _____ _____    ______ ____
ROOT
ATOM      1  O   UNL     1      48.442   8.710  16.131  0.00  0.00    +0.000 OA
ATOM      2  C   UNL     1      48.865   7.596  15.835  0.00  0.00    +0.000 C 
ATOM      3  N   UNL     1      49.168   7.239  14.542  0.00  0.00    +0.000 N 
ATOM      4  H   UNL     1      49.382   6.272  14.336  0.00  0.00    +0.000 HD
ENDROOT
BRANCH   2   5
ATOM      5  C   UNL     1      49.119   6.576  16.862  0.00  0.00    +0.000 A 
ATOM      6  C   UNL     1      49.977   6.856  17.919  0.00  0.00    +0.000 A 
ATOM      7  S   UNL     1      50.159   5.558  19.012  0.00  0.00    +0.000 S 
ATOM      8  C   UNL     1      49.066   4.593  18.136  0.00  0.00    +0.000 A 
ATOM      9  N   UNL     1      48.739   3.343  18.561  0.00  0.00    +0.000 NA
ATOM     10  C   UNL     1      47.854   2.744  17.836  0.00  0.00    +0.000 A 
ATOM     11  N   UNL     1      47.277   3.277  16.712  0.00  0.00    +0.000 N 
ATOM     12  C   UNL     1      47.648   4.492  16.191  0.00  0.00    +0.000 A 
ATOM     13  O   UNL     1      47.235   4.862  15.098  0.00  0.00    +0.000 OA
ATOM     14  C   UNL     1      48.591   5.238  17.008  0.00  0.00    +0.000 A 
ATOM     15  H   UNL     1      46.623   2.738  16.163  0.00  0.00    +0.000 HD
ENDBRANCH   2   5
BRANCH   3  16
ATOM     16  C   UNL     1      48.885   8.077  13.409  0.00  0.00    +0.000 C 
BRANCH  16  17
ATOM     17  C   UNL     1      47.541   7.759  12.800  0.00  0.00    +0.000 A 
ATOM     18  C   UNL     1      47.437   6.748  11.839  0.00  0.00    +0.000 A 
ATOM     19  C   UNL     1      46.201   6.416  11.279  0.00  0.00    +0.000 A 
ATOM     20  C   UNL     1      45.034   7.088  11.662  0.00  0.00    +0.000 A 
ATOM     21  C   UNL     1      45.145   8.134  12.593  0.00  0.00    +0.000 A 
ATOM     22  C   UNL     1      46.386   8.472  13.151  0.00  0.00    +0.000 A 
BRANCH  20  23
ATOM     23  C   UNL     1      43.709   6.751  11.011  0.00  0.00    +0.000 C 
BRANCH  23  24
ATOM     24  N   UNL     1      43.035   5.502  11.362  0.00  0.00    +0.000 NA
ATOM     25  C   UNL     1      42.895   5.203  12.789  0.00  0.00    +0.000 C 
ATOM     26  C   UNL     1      44.031   4.349  13.374  0.00  0.00    +0.000 C 
ATOM     27  O   UNL     1      44.220   3.143  12.622  0.00  0.00    +0.000 OA
ATOM     28  C   UNL     1      44.509   3.440  11.251  0.00  0.00    +0.000 C 
ATOM     29  C   UNL     1      43.410   4.301  10.607  0.00  0.00    +0.000 C 
ENDBRANCH  23  24
ENDBRANCH  20  23
ENDBRANCH  16  17
ENDBRANCH   3  16
TORSDOF 5
ENDMDL
MODEL 5
REMARK VINA RESULT:    -6.945      4.458      9.792
REMARK INTER + INTRA:          -9.585
REMARK INTER:                  -8.923
REMARK INTRA:                  -0.662
REMARK UNBOUND:                -0.610
REMARK  Name = 
REMARK  5 active torsions:
REMARK  status: ('A' for Active; 'I' for Inactive)
REMARK    1  A    between atoms: C_2  and  C_18
REMARK    2  A    between atoms: N_3  and  C_4
REMARK    3  A    between atoms: C_4  and  C_5
REMARK    4  A    between atoms: C_8  and  C_9
REMARK    5  A    between atoms: C_9  and  N_10
REMARK                            x       y       z     vdW  Elec       q    Type
REMARK                         _______ _______ _______ _____ _____    ______ ____
ROOT
ATOM      1  O   UNL     1      47.247   3.194  13.924  0.00  0.00    +0.000 OA
ATOM      2  C   UNL     1      46.774   4.222  14.400  0.00  0.00    +0.000 C 
ATOM      3  N   UNL     1      46.823   4.506  15.745  0.00  0.00    +0.000 N 
ATOM      4  H   UNL     1      46.301   5.296  16.102  0.00  0.00    +0.000 HD
ENDROOT
BRANCH   2   5
ATOM      5  C   UNL     1      46.156   5.248  13.548  0.00  0.00    +0.000 A 
ATOM      6  C   UNL     1      46.847   6.420  13.263  0.00  0.00    +0.000 A 
ATOM      7  S   UNL     1      45.979   7.498  12.265  0.00  0.00    +0.000 S 
ATOM      8  C   UNL     1      44.669   6.420  12.144  0.00  0.00    +0.000 A 
ATOM      9  N   UNL     1      43.580   6.724  11.387  0.00  0.00    +0.000 NA
ATOM     10  C   UNL     1      42.687   5.793  11.335  0.00  0.00    +0.000 A 
ATOM     11  N   UNL     1      42.775   4.590  11.986  0.00  0.00    +0.000 N 
ATOM     12  C   UNL     1      43.807   4.281  12.838  0.00  0.00    +0.000 A 
ATOM     13  O   UNL     1      43.772   3.269  13.530  0.00  0.00    +0.000 OA
ATOM     14  C   UNL     1      44.875   5.266  12.878  0.00  0.00    +0.000 A 
ATOM     15  H   UNL     1      42.021   3.921  11.939  0.00  0.00    +0.000 HD
ENDBRANCH   2   5
BRANCH   3  16
ATOM     16  C   UNL     1      47.299   3.570  16.728  0.00  0.00    +0.000 C 
BRANCH  16  17
ATOM     17  C   UNL     1      48.764   3.770  17.028  0.00  0.00    +0.000 A 
ATOM     18  C   UNL     1      49.299   5.062  17.036  0.00  0.00    +0.000 A 
ATOM     19  C   UNL     1      50.647   5.277  17.335  0.00  0.00    +0.000 A 
ATOM     20  C   UNL     1      51.498   4.206  17.633  0.00  0.00    +0.000 A 
ATOM     21  C   UNL     1      50.970   2.905  17.581  0.00  0.00    +0.000 A 
ATOM     22  C   UNL     1      49.619   2.688  17.274  0.00  0.00    +0.000 A 
BRANCH  20  23
ATOM     23  C   UNL     1      52.967   4.449  17.908  0.00  0.00    +0.000 C 
BRANCH  23  24
ATOM     24  N   UNL     1      53.387   4.861  19.246  0.00  0.00    +0.000 NA
ATOM     25  C   UNL     1      52.698   4.236  20.379  0.00  0.00    +0.000 C 
ATOM     26  C   UNL     1      51.484   5.023  20.896  0.00  0.00    +0.000 C 
ATOM     27  O   UNL     1      51.830   6.379  21.203  0.00  0.00    +0.000 OA
ATOM     28  C   UNL     1      52.366   7.040  20.050  0.00  0.00    +0.000 C 
ATOM     29  C   UNL     1      53.583   6.296  19.477  0.00  0.00    +0.000 C 
ENDBRANCH  23  24
ENDBRANCH  20  23
ENDBRANCH  16  17
ENDBRANCH   3  16
TORSDOF 5
ENDMDL
MODEL 6
REMARK VINA RESULT:    -6.643      3.707     10.583
REMARK INTER + INTRA:          -9.195
REMARK INTER:                  -8.287
REMARK INTRA:                  -0.909
REMARK UNBOUND:                -0.610
REMARK  Name = 
REMARK  5 active torsions:
REMARK  status: ('A' for Active; 'I' for Inactive)
REMARK    1  A    between atoms: C_2  and  C_18
REMARK    2  A    between atoms: N_3  and  C_4
REMARK    3  A    between atoms: C_4  and  C_5
REMARK    4  A    between atoms: C_8  and  C_9
REMARK    5  A    between atoms: C_9  and  N_10
REMARK                            x       y       z     vdW  Elec       q    Type
REMARK                         _______ _______ _______ _____ _____    ______ ____
ROOT
ATOM      1  O   UNL     1      48.471   5.894  13.862  0.00  0.00    +0.000 OA
ATOM      2  C   UNL     1      47.319   5.500  14.027  0.00  0.00    +0.000 C 
ATOM      3  N   UNL     1      46.930   4.792  15.140  0.00  0.00    +0.000 N 
ATOM      4  H   UNL     1      46.008   4.377  15.162  0.00  0.00    +0.000 HD
ENDROOT
BRANCH   2   5
ATOM      5  C   UNL     1      46.261   5.802  13.053  0.00  0.00    +0.000 A 
ATOM      6  C   UNL     1      45.982   7.122  12.720  0.00  0.00    +0.000 A 
ATOM      7  S   UNL     1      44.722   7.287  11.580  0.00  0.00    +0.000 S 
ATOM      8  C   UNL     1      44.535   5.601  11.459  0.00  0.00    +0.000 A 
ATOM      9  N   UNL     1      43.624   5.057  10.607  0.00  0.00    +0.000 NA
ATOM     10  C   UNL     1      43.628   3.766  10.571  0.00  0.00    +0.000 A 
ATOM     11  N   UNL     1      44.450   2.967  11.324  0.00  0.00    +0.000 N 
ATOM     12  C   UNL     1      45.313   3.469  12.266  0.00  0.00    +0.000 A 
ATOM     13  O   UNL     1      45.910   2.724  13.036  0.00  0.00    +0.000 OA
ATOM     14  C   UNL     1      45.399   4.920  12.298  0.00  0.00    +0.000 A 
ATOM     15  H   UNL     1      44.373   1.962  11.281  0.00  0.00    +0.000 HD
ENDBRANCH   2   5
BRANCH   3  16
ATOM     16  C   UNL     1      47.856   4.326  16.137  0.00  0.00    +0.000 C 
BRANCH  16  17
ATOM     17  C   UNL     1      47.956   5.284  17.298  0.00  0.00    +0.000 A 
ATOM     18  C   UNL     1      48.919   6.299  17.277  0.00  0.00    +0.000 A 
ATOM     19  C   UNL     1      49.016   7.215  18.328  0.00  0.00    +0.000 A 
ATOM     20  C   UNL     1      48.155   7.141  19.430  0.00  0.00    +0.000 A 
ATOM     21  C   UNL     1      47.219   6.095  19.471  0.00  0.00    +0.000 A 
ATOM     22  C   UNL     1      47.125   5.171  18.420  0.00  0.00    +0.000 A 
BRANCH  20  23
ATOM     23  C   UNL     1      48.304   8.111  20.583  0.00  0.00    +0.000 C 
BRANCH  23  24
ATOM     24  N   UNL     1      47.228   9.059  20.865  0.00  0.00    +0.000 NA
ATOM     25  C   UNL     1      46.878  10.001  19.799  0.00  0.00    +0.000 C 
ATOM     26  C   UNL     1      47.613  11.348  19.875  0.00  0.00    +0.000 C 
ATOM     27  O   UNL     1      47.454  11.960  21.161  0.00  0.00    +0.000 OA
ATOM     28  C   UNL     1      47.938  11.098  22.197  0.00  0.00    +0.000 C 
ATOM     29  C   UNL     1      47.245   9.726  22.172  0.00  0.00    +0.000 C 
ENDBRANCH  23  24
ENDBRANCH  20  23
ENDBRANCH  16  17
ENDBRANCH   3  16
TORSDOF 5
ENDMDL
MODEL 7
REMARK VINA RESULT:    -6.639      4.495     10.281
REMARK INTER + INTRA:          -9.190
REMARK INTER:                  -8.553
REMARK INTRA:                  -0.637
REMARK UNBOUND:                -0.610
REMARK  Name = 
REMARK  5 active torsions:
REMARK  status: ('A' for Active; 'I' for Inactive)
REMARK    1  A    between atoms: C_2  and  C_18
REMARK    2  A    between atoms: N_3  and  C_4
REMARK    3  A    between atoms: C_4  and  C_5
REMARK    4  A    between atoms: C_8  and  C_9
REMARK    5  A    between atoms: C_9  and  N_10
REMARK                            x       y       z     vdW  Elec       q    Type
REMARK                         _______ _______ _______ _____ _____    ______ ____
ROOT
ATOM      1  O   UNL     1      47.271   3.211  13.891  0.00  0.00    +0.000 OA
ATOM      2  C   UNL     1      46.880   4.281  14.349  0.00  0.00    +0.000 C 
ATOM      3  N   UNL     1      46.985   4.599  15.682  0.00  0.00    +0.000 N 
ATOM      4  H   UNL     1      46.527   5.432  16.029  0.00  0.00    +0.000 HD
ENDROOT
BRANCH   2   5
ATOM      5  C   UNL     1      46.307   5.321  13.482  0.00  0.00    +0.000 A 
ATOM      6  C   UNL     1      47.068   6.432  13.138  0.00  0.00    +0.000 A 
ATOM      7  S   UNL     1      46.245   7.538  12.132  0.00  0.00    +0.000 S 
ATOM      8  C   UNL     1      44.859   6.552  12.087  0.00  0.00    +0.000 A 
ATOM      9  N   UNL     1      43.770   6.908  11.354  0.00  0.00    +0.000 NA
ATOM     10  C   UNL     1      42.813   6.041  11.360  0.00  0.00    +0.000 A 
ATOM     11  N   UNL     1      42.839   4.855  12.048  0.00  0.00    +0.000 N 
ATOM     12  C   UNL     1      43.874   4.501  12.877  0.00  0.00    +0.000 A 
ATOM     13  O   UNL     1      43.792   3.516  13.603  0.00  0.00    +0.000 OA
ATOM     14  C   UNL     1      45.009   5.409  12.852  0.00  0.00    +0.000 A 
ATOM     15  H   UNL     1      42.039   4.240  12.046  0.00  0.00    +0.000 HD
ENDBRANCH   2   5
BRANCH   3  16
ATOM     16  C   UNL     1      47.426   3.661  16.680  0.00  0.00    +0.000 C 
BRANCH  16  17
ATOM     17  C   UNL     1      47.696   4.338  18.002  0.00  0.00    +0.000 A 
ATOM     18  C   UNL     1      48.659   3.807  18.868  0.00  0.00    +0.000 A 
ATOM     19  C   UNL     1      48.946   4.428  20.086  0.00  0.00    +0.000 A 
ATOM     20  C   UNL     1      48.278   5.596  20.473  0.00  0.00    +0.000 A 
ATOM     21  C   UNL     1      47.281   6.103  19.624  0.00  0.00    +0.000 A 
ATOM     22  C   UNL     1      46.987   5.477  18.405  0.00  0.00    +0.000 A 
BRANCH  20  23
ATOM     23  C   UNL     1      48.566   6.231  21.818  0.00  0.00    +0.000 C 
BRANCH  23  24
ATOM     24  N   UNL     1      49.408   7.425  21.881  0.00  0.00    +0.000 NA
ATOM     25  C   UNL     1      48.722   8.716  21.969  0.00  0.00    +0.000 C 
ATOM     26  C   UNL     1      48.466   9.393  20.614  0.00  0.00    +0.000 C 
ATOM     27  O   UNL     1      49.675   9.516  19.853  0.00  0.00    +0.000 OA
ATOM     28  C   UNL     1      50.269   8.230  19.635  0.00  0.00    +0.000 C 
ATOM     29  C   UNL     1      50.545   7.494  20.956  0.00  0.00    +0.000 C 
ENDBRANCH  23  24
ENDBRANCH  20  23
ENDBRANCH  16  17
ENDBRANCH   3  16
TORSDOF 5
ENDMDL
MODEL 8
REMARK VINA RESULT:    -6.440      3.710     10.308
REMARK INTER + INTRA:          -8.933
REMARK INTER:                  -8.133
REMARK INTRA:                  -0.799
REMARK UNBOUND:                -0.610
REMARK  Name = 
REMARK  5 active torsions:
REMARK  status: ('A' for Active; 'I' for Inactive)
REMARK    1  A    between atoms: C_2  and  C_18
REMARK    2  A    between atoms: N_3  and  C_4
REMARK    3  A    between atoms: C_4  and  C_5
REMARK    4  A    between atoms: C_8  and  C_9
REMARK    5  A    between atoms: C_9  and  N_10
REMARK                            x       y       z     vdW  Elec       q    Type
REMARK                         _______ _______ _______ _____ _____    ______ ____
ROOT
ATOM      1  O   UNL     1      48.470   5.805  13.950  0.00  0.00    +0.000 OA
ATOM      2  C   UNL     1      47.311   5.429  14.095  0.00  0.00    +0.000 C 
ATOM      3  N   UNL     1      46.900   4.702  15.187  0.00  0.00    +0.000 N 
ATOM      4  H   UNL     1      45.969   4.303  15.192  0.00  0.00    +0.000 HD
ENDROOT
BRANCH   2   5
ATOM      5  C   UNL     1      46.266   5.776  13.121  0.00  0.00    +0.000 A 
ATOM      6  C   UNL     1      46.011   7.109  12.823  0.00  0.00    +0.000 A 
ATOM      7  S   UNL     1      44.765   7.326  11.678  0.00  0.00    +0.000 S 
ATOM      8  C   UNL     1      44.551   5.647  11.508  0.00  0.00    +0.000 A 
ATOM      9  N   UNL     1      43.640   5.142  10.634  0.00  0.00    +0.000 NA
ATOM     10  C   UNL     1      43.623   3.853  10.562  0.00  0.00    +0.000 A 
ATOM     11  N   UNL     1      44.425   3.020  11.299  0.00  0.00    +0.000 N 
ATOM     12  C   UNL     1      45.288   3.482  12.262  0.00  0.00    +0.000 A 
ATOM     13  O   UNL     1      45.866   2.705  13.015  0.00  0.00    +0.000 OA
ATOM     14  C   UNL     1      45.396   4.929  12.335  0.00  0.00    +0.000 A 
ATOM     15  H   UNL     1      44.332   2.018  11.227  0.00  0.00    +0.000 HD
ENDBRANCH   2   5
BRANCH   3  16
ATOM     16  C   UNL     1      47.808   4.193  16.179  0.00  0.00    +0.000 C 
BRANCH  16  17
ATOM     17  C   UNL     1      47.970   5.152  17.333  0.00  0.00    +0.000 A 
ATOM     18  C   UNL     1      49.095   5.982  17.390  0.00  0.00    +0.000 A 
ATOM     19  C   UNL     1      49.257   6.897  18.434  0.00  0.00    +0.000 A 
ATOM     20  C   UNL     1      48.300   7.007  19.450  0.00  0.00    +0.000 A 
ATOM     21  C   UNL     1      47.193   6.143  19.415  0.00  0.00    +0.000 A 
ATOM     22  C   UNL     1      47.033   5.220  18.372  0.00  0.00    +0.000 A 
BRANCH  20  23
ATOM     23  C   UNL     1      48.513   7.969  20.600  0.00  0.00    +0.000 C 
BRANCH  23  24
ATOM     24  N   UNL     1      49.353   7.565  21.726  0.00  0.00    +0.000 NA
ATOM     25  C   UNL     1      50.749   8.009  21.705  0.00  0.00    +0.000 C 
ATOM     26  C   UNL     1      51.725   7.007  21.068  0.00  0.00    +0.000 C 
ATOM     27  O   UNL     1      51.617   5.714  21.674  0.00  0.00    +0.000 OA
ATOM     28  C   UNL     1      50.280   5.210  21.561  0.00  0.00    +0.000 C 
ATOM     29  C   UNL     1      49.251   6.172  22.175  0.00  0.00    +0.000 C 
ENDBRANCH  23  24
ENDBRANCH  20  23
ENDBRANCH  16  17
ENDBRANCH   3  16
TORSDOF 5
ENDMDL
MODEL 9
REMARK VINA RESULT:    -6.336      4.620      9.658
REMARK INTER + INTRA:          -8.798
REMARK INTER:                  -7.977
REMARK INTRA:                  -0.822
REMARK UNBOUND:                -0.610
REMARK  Name = 
REMARK  5 active torsions:
REMARK  status: ('A' for Active; 'I' for Inactive)
REMARK    1  A    between atoms: C_2  and  C_18
REMARK    2  A    between atoms: N_3  and  C_4
REMARK    3  A    between atoms: C_4  and  C_5
REMARK    4  A    between atoms: C_8  and  C_9
REMARK    5  A    between atoms: C_9  and  N_10
REMARK                            x       y       z     vdW  Elec       q    Type
REMARK                         _______ _______ _______ _____ _____    ______ ____
ROOT
ATOM      1  O   UNL     1      47.437   3.115  14.172  0.00  0.00    +0.000 OA
ATOM      2  C   UNL     1      46.797   4.087  14.562  0.00  0.00    +0.000 C 
ATOM      3  N   UNL     1      46.776   4.480  15.880  0.00  0.00    +0.000 N 
ATOM      4  H   UNL     1      46.128   5.201  16.169  0.00  0.00    +0.000 HD
ENDROOT
BRANCH   2   5
ATOM      5  C   UNL     1      46.038   4.930  13.627  0.00  0.00    +0.000 A 
ATOM      6  C   UNL     1      44.893   4.430  13.017  0.00  0.00    +0.000 A 
ATOM      7  S   UNL     1      44.143   5.540  11.960  0.00  0.00    +0.000 S 
ATOM      8  C   UNL     1      45.296   6.741  12.313  0.00  0.00    +0.000 A 
ATOM      9  N   UNL     1      45.212   7.978  11.753  0.00  0.00    +0.000 NA
ATOM     10  C   UNL     1      46.115   8.809  12.152  0.00  0.00    +0.000 A 
ATOM     11  N   UNL     1      47.108   8.511  13.050  0.00  0.00    +0.000 N 
ATOM     12  C   UNL     1      47.290   7.250  13.563  0.00  0.00    +0.000 A 
ATOM     13  O   UNL     1      48.283   6.978  14.231  0.00  0.00    +0.000 OA
ATOM     14  C   UNL     1      46.258   6.294  13.200  0.00  0.00    +0.000 A 
ATOM     15  H   UNL     1      47.811   9.194  13.288  0.00  0.00    +0.000 HD
ENDBRANCH   2   5
BRANCH   3  16
ATOM     16  C   UNL     1      47.377   3.713  16.937  0.00  0.00    +0.000 C 
BRANCH  16  17
ATOM     17  C   UNL     1      48.835   4.060  17.120  0.00  0.00    +0.000 A 
ATOM     18  C   UNL     1      49.255   5.386  16.978  0.00  0.00    +0.000 A 
ATOM     19  C   UNL     1      50.593   5.738  17.167  0.00  0.00    +0.000 A 
ATOM     20  C   UNL     1      51.551   4.772  17.501  0.00  0.00    +0.000 A 
ATOM     21  C   UNL     1      51.137   3.433  17.599  0.00  0.00    +0.000 A 
ATOM     22  C   UNL     1      49.794   3.079  17.403  0.00  0.00    +0.000 A 
BRANCH  20  23
ATOM     23  C   UNL     1      53.007   5.159  17.655  0.00  0.00    +0.000 C 
BRANCH  23  24
ATOM     24  N   UNL     1      53.538   5.432  18.989  0.00  0.00    +0.000 NA
ATOM     25  C   UNL     1      54.456   4.439  19.553  0.00  0.00    +0.000 C 
ATOM     26  C   UNL     1      53.778   3.369  20.422  0.00  0.00    +0.000 C 
ATOM     27  O   UNL     1      52.980   3.961  21.454  0.00  0.00    +0.000 OA
ATOM     28  C   UNL     1      51.979   4.819  20.893  0.00  0.00    +0.000 C 
ATOM     29  C   UNL     1      52.593   5.911  20.003  0.00  0.00    +0.000 C 
ENDBRANCH  23  24
ENDBRANCH  20  23
ENDBRANCH  16  17
ENDBRANCH   3  16
TORSDOF 5
ENDMDL
