MODEL 1
REMARK VINA RESULT:    -7.859      0.000      0.000
REMARK INTER + INTRA:         -11.622
REMARK INTER:                 -10.616
REMARK INTRA:                  -1.006
REMARK UNBOUND:                -1.006
REMARK  Name = 
REMARK  8 active torsions:
REMARK  status: ('A' for Active; 'I' for Inactive)
REMARK    1  A    between atoms: C_1  and  C_2
REMARK    2  A    between atoms: C_6  and  O_7
REMARK    3  A    between atoms: O_7  and  C_8
REMARK    4  A    between atoms: C_8  and  C_9
REMARK    5  A    between atoms: C_8  and  C_10
REMARK    6  A    between atoms: C_13  and  C_14
REMARK    7  A    between atoms: C_14  and  N_15
REMARK    8  A    between atoms: C_16  and  C_18
REMARK                            x       y       z     vdW  Elec       q    Type
REMARK                         _______ _______ _______ _____ _____    ______ ____
ROOT
ATOM      1  C   UNL     1      45.356   4.676  11.778  0.00  0.00    +0.000 A 
ATOM      2  C   UNL     1      45.470   3.472  12.458  0.00  0.00    +0.000 A 
ATOM      3  N   UNL     1      46.224   3.316  13.579  0.00  0.00    +0.000 NA
ATOM      4  C   UNL     1      46.883   4.423  14.012  0.00  0.00    +0.000 A 
ATOM      5  C   UNL     1      46.782   5.628  13.329  0.00  0.00    +0.000 A 
ATOM      6  N   UNL     1      46.043   5.775  12.204  0.00  0.00    +0.000 NA
ENDROOT
BRANCH   1   7
ATOM      7  C   UNL     1      44.459   4.844  10.555  0.00  0.00    +0.000 C 
ATOM      8  C   UNL     1      43.119   5.419  11.029  0.00  0.00    +0.000 C 
BRANCH   7   9
ATOM      9  O   UNL     1      44.226   3.580   9.887  0.00  0.00    +0.000 OA
BRANCH   9  15
ATOM     10  C   UNL     1      46.757   0.176   7.744  0.00  0.00    +0.000 C 
ATOM     11  C   UNL     1      46.407   1.625   7.836  0.00  0.00    +0.000 A 
ATOM     12  C   UNL     1      46.984   2.572   7.002  0.00  0.00    +0.000 A 
ATOM     13  C   UNL     1      46.651   3.911   7.186  0.00  0.00    +0.000 A 
ATOM     14  C   UNL     1      45.743   4.261   8.181  0.00  0.00    +0.000 A 
ATOM     15  C   UNL     1      45.177   3.245   8.941  0.00  0.00    +0.000 A 
ATOM     16  N   UNL     1      45.508   1.951   8.791  0.00  0.00    +0.000 NA
ENDBRANCH   9  15
ENDBRANCH   7   9
ENDBRANCH   1   7
BRANCH   4  17
ATOM     17  C   UNL     1      47.720   4.323  15.262  0.00  0.00    +0.000 C 
BRANCH  17  18
ATOM     18  N   UNL     1      47.641   5.506  16.088  0.00  0.00    +0.000 N 
ATOM     19  C   UNL     1      48.732   6.293  16.343  0.00  0.00    +0.000 C 
ATOM     20  O   UNL     1      49.840   6.041  15.876  0.00  0.00    +0.000 OA
ATOM     21  H   UNL     1      46.772   5.657  16.591  0.00  0.00    +0.000 HD
BRANCH  19  22
ATOM     22  C   UNL     1      48.497   7.488  17.158  0.00  0.00    +0.000 A 
ATOM     23  C   UNL     1      48.705   8.748  16.617  0.00  0.00    +0.000 A 
ATOM     24  S   UNL     1      48.355  10.018  17.702  0.00  0.00    +0.000 S 
ATOM     25  C   UNL     1      47.956   8.922  18.941  0.00  0.00    +0.000 A 
ATOM     26  N   UNL     1      47.583   9.363  20.173  0.00  0.00    +0.000 NA
ATOM     27  C   UNL     1      47.343   8.423  21.023  0.00  0.00    +0.000 A 
ATOM     28  N   UNL     1      47.433   7.082  20.755  0.00  0.00    +0.000 N 
ATOM     29  C   UNL     1      47.769   6.585  19.519  0.00  0.00    +0.000 A 
ATOM     30  O   UNL     1      47.777   5.383  19.293  0.00  0.00    +0.000 OA
ATOM     31  C   UNL     1      48.070   7.606  18.530  0.00  0.00    +0.000 A 
ATOM     32  H   UNL     1      47.207   6.397  21.465  0.00  0.00    +0.000 HD
ENDBRANCH  19  22
ENDBRANCH  17  18
ENDBRANCH   4  17
TORSDOF 6
ENDMDL
MODEL 2
REMARK VINA RESULT:    -7.854      1.433      1.804
REMARK INTER + INTRA:         -11.615
REMARK INTER:                 -11.070
REMARK INTRA:                  -0.545
REMARK UNBOUND:                -1.006
REMARK  Name = 
REMARK  8 active torsions:
REMARK  status: ('A' for Active; 'I' for Inactive)
REMARK    1  A    between atoms: C_1  and  C_2
REMARK    2  A    between atoms: C_6  and  O_7
REMARK    3  A    between atoms: O_7  and  C_8
REMARK    4  A    between atoms: C_8  and  C_9
REMARK    5  A    between atoms: C_8  and  C_10
REMARK    6  A    between atoms: C_13  and  C_14
REMARK    7  A    between atoms: C_14  and  N_15
REMARK    8  A    between atoms: C_16  and  C_18
REMARK                            x       y       z     vdW  Elec       q    Type
REMARK                         _______ _______ _______ _____ _____    ______ ____
ROOT
ATOM      1  C   UNL     1      45.250   5.085  11.515  0.00  0.00    +0.000 A 
ATOM      2  C   UNL     1      45.729   4.407  12.626  0.00  0.00    +0.000 A 
ATOM      3  N   UNL     1      46.768   4.851  13.383  0.00  0.00    +0.000 NA
ATOM      4  C   UNL     1      47.335   6.020  12.985  0.00  0.00    +0.000 A 
ATOM      5  C   UNL     1      46.868   6.698  11.867  0.00  0.00    +0.000 A 
ATOM      6  N   UNL     1      45.843   6.244  11.108  0.00  0.00    +0.000 NA
ENDROOT
BRANCH   1   7
ATOM      7  C   UNL     1      44.045   4.599  10.715  0.00  0.00    +0.000 C 
ATOM      8  C   UNL     1      42.805   4.720  11.608  0.00  0.00    +0.000 C 
BRANCH   7   9
ATOM      9  O   UNL     1      44.202   3.219  10.301  0.00  0.00    +0.000 OA
BRANCH   9  15
ATOM     10  C   UNL     1      46.812   0.227   7.688  0.00  0.00    +0.000 C 
ATOM     11  C   UNL     1      46.301   1.616   7.891  0.00  0.00    +0.000 A 
ATOM     12  C   UNL     1      46.635   2.652   7.028  0.00  0.00    +0.000 A 
ATOM     13  C   UNL     1      46.167   3.931   7.315  0.00  0.00    +0.000 A 
ATOM     14  C   UNL     1      45.370   4.135   8.437  0.00  0.00    +0.000 A 
ATOM     15  C   UNL     1      45.046   3.034   9.222  0.00  0.00    +0.000 A 
ATOM     16  N   UNL     1      45.510   1.798   8.971  0.00  0.00    +0.000 NA
ENDBRANCH   9  15
ENDBRANCH   7   9
ENDBRANCH   1   7
BRANCH   4  17
ATOM     17  C   UNL     1      48.479   6.579  13.793  0.00  0.00    +0.000 C 
BRANCH  17  18
ATOM     18  N   UNL     1      48.154   6.743  15.191  0.00  0.00    +0.000 N 
ATOM     19  C   UNL     1      49.078   6.548  16.183  0.00  0.00    +0.000 C 
ATOM     20  O   UNL     1      50.239   6.231  15.938  0.00  0.00    +0.000 OA
ATOM     21  H   UNL     1      47.174   6.871  15.422  0.00  0.00    +0.000 HD
BRANCH  19  22
ATOM     22  C   UNL     1      48.623   6.795  17.554  0.00  0.00    +0.000 A 
ATOM     23  C   UNL     1      48.206   8.064  17.929  0.00  0.00    +0.000 A 
ATOM     24  S   UNL     1      47.688   8.156  19.552  0.00  0.00    +0.000 S 
ATOM     25  C   UNL     1      48.046   6.513  19.816  0.00  0.00    +0.000 A 
ATOM     26  N   UNL     1      47.852   5.942  21.034  0.00  0.00    +0.000 NA
ATOM     27  C   UNL     1      48.197   4.700  21.100  0.00  0.00    +0.000 A 
ATOM     28  N   UNL     1      48.711   3.974  20.058  0.00  0.00    +0.000 N 
ATOM     29  C   UNL     1      48.892   4.494  18.799  0.00  0.00    +0.000 A 
ATOM     30  O   UNL     1      49.291   3.802  17.872  0.00  0.00    +0.000 OA
ATOM     31  C   UNL     1      48.536   5.898  18.678  0.00  0.00    +0.000 A 
ATOM     32  H   UNL     1      48.940   2.995  20.174  0.00  0.00    +0.000 HD
ENDBRANCH  19  22
ENDBRANCH  17  18
ENDBRANCH   4  17
TORSDOF 6
ENDMDL
MODEL 3
REMARK VINA RESULT:    -7.456      4.015      5.474
REMARK INTER + INTRA:         -11.077
REMARK INTER:                 -10.286
REMARK INTRA:                  -0.791
REMARK UNBOUND:                -1.006
REMARK  Name = 
REMARK  8 active torsions:
REMARK  status: ('A' for Active; 'I' for Inactive)
REMARK    1  A    between atoms: C_1  and  C_2
REMARK    2  A    between atoms: C_6  and  O_7
REMARK    3  A    between atoms: O_7  and  C_8
REMARK    4  A    between atoms: C_8  and  C_9
REMARK    5  A    between atoms: C_8  and  C_10
REMARK    6  A    between atoms: C_13  and  C_14
REMARK    7  A    between atoms: C_14  and  N_15
REMARK    8  A    between atoms: C_16  and  C_18
REMARK                            x       y       z     vdW  Elec       q    Type
REMARK                         _______ _______ _______ _____ _____    ______ ____
ROOT
ATOM      1  C   UNL     1      47.430   5.551  13.685  0.00  0.00    +0.000 A 
ATOM      2  C   UNL     1      46.968   4.244  13.740  0.00  0.00    +0.000 A 
ATOM      3  N   UNL     1      47.060   3.465  14.852  0.00  0.00    +0.000 NA
ATOM      4  C   UNL     1      47.646   4.042  15.935  0.00  0.00    +0.000 A 
ATOM      5  C   UNL     1      48.120   5.346  15.882  0.00  0.00    +0.000 A 
ATOM      6  N   UNL     1      48.040   6.111  14.768  0.00  0.00    +0.000 NA
ENDROOT
BRANCH   1   7
ATOM      7  C   UNL     1      47.265   6.425  12.446  0.00  0.00    +0.000 C 
ATOM      8  C   UNL     1      48.264   7.584  12.549  0.00  0.00    +0.000 C 
BRANCH   7   9
ATOM      9  O   UNL     1      45.922   6.961  12.346  0.00  0.00    +0.000 OA
BRANCH   9  15
ATOM     10  C   UNL     1      44.563   4.068   8.829  0.00  0.00    +0.000 C 
ATOM     11  C   UNL     1      44.292   4.622  10.189  0.00  0.00    +0.000 A 
ATOM     12  C   UNL     1      43.175   4.245  10.923  0.00  0.00    +0.000 A 
ATOM     13  C   UNL     1      42.959   4.847  12.159  0.00  0.00    +0.000 A 
ATOM     14  C   UNL     1      43.868   5.789  12.632  0.00  0.00    +0.000 A 
ATOM     15  C   UNL     1      44.983   6.074  11.853  0.00  0.00    +0.000 A 
ATOM     16  N   UNL     1      45.192   5.519  10.647  0.00  0.00    +0.000 NA
ENDBRANCH   9  15
ENDBRANCH   7   9
ENDBRANCH   1   7
BRANCH   4  17
ATOM     17  C   UNL     1      47.760   3.240  17.207  0.00  0.00    +0.000 C 
BRANCH  17  18
ATOM     18  N   UNL     1      49.129   3.029  17.617  0.00  0.00    +0.000 N 
ATOM     19  C   UNL     1      49.971   2.183  16.946  0.00  0.00    +0.000 C 
ATOM     20  O   UNL     1      49.610   1.562  15.949  0.00  0.00    +0.000 OA
ATOM     21  H   UNL     1      49.407   3.424  18.510  0.00  0.00    +0.000 HD
BRANCH  19  22
ATOM     22  C   UNL     1      51.346   2.101  17.444  0.00  0.00    +0.000 A 
ATOM     23  C   UNL     1      51.937   0.863  17.652  0.00  0.00    +0.000 A 
ATOM     24  S   UNL     1      53.547   0.965  18.207  0.00  0.00    +0.000 S 
ATOM     25  C   UNL     1      53.490   2.666  18.228  0.00  0.00    +0.000 A 
ATOM     26  N   UNL     1      54.561   3.397  18.637  0.00  0.00    +0.000 NA
ATOM     27  C   UNL     1      54.366   4.672  18.635  0.00  0.00    +0.000 A 
ATOM     28  N   UNL     1      53.201   5.286  18.253  0.00  0.00    +0.000 N 
ATOM     29  C   UNL     1      52.105   4.595  17.797  0.00  0.00    +0.000 A 
ATOM     30  O   UNL     1      51.103   5.175  17.401  0.00  0.00    +0.000 OA
ATOM     31  C   UNL     1      52.267   3.151  17.800  0.00  0.00    +0.000 A 
ATOM     32  H   UNL     1      53.126   6.295  18.253  0.00  0.00    +0.000 HD
ENDBRANCH  19  22
ENDBRANCH  17  18
ENDBRANCH   4  17
TORSDOF 6
ENDMDL
MODEL 4
REMARK VINA RESULT:    -7.407      1.688      2.485
REMARK INTER + INTRA:         -11.011
REMARK INTER:                 -10.142
REMARK INTRA:                  -0.869
REMARK UNBOUND:                -1.006
REMARK  Name = 
REMARK  8 active torsions:
REMARK  status: ('A' for Active; 'I' for Inactive)
REMARK    1  A    between atoms: C_1  and  C_2
REMARK    2  A    between atoms: C_6  and  O_7
REMARK    3  A    between atoms: O_7  and  C_8
REMARK    4  A    between atoms: C_8  and  C_9
REMARK    5  A    between atoms: C_8  and  C_10
REMARK    6  A    between atoms: C_13  and  C_14
REMARK    7  A    between atoms: C_14  and  N_15
REMARK    8  A    between atoms: C_16  and  C_18
REMARK                            x       y       z     vdW  Elec       q    Type
REMARK                         _______ _______ _______ _____ _____    ______ ____
ROOT
ATOM      1  C   UNL     1      46.106   5.586  12.362  0.00  0.00    +0.000 A 
ATOM      2  C   UNL     1      45.604   4.472  13.021  0.00  0.00    +0.000 A 
ATOM      3  N   UNL     1      46.070   4.042  14.224  0.00  0.00    +0.000 NA
ATOM      4  C   UNL     1      47.084   4.770  14.763  0.00  0.00    +0.000 A 
ATOM      5  C   UNL     1      47.598   5.878  14.103  0.00  0.00    +0.000 A 
ATOM      6  N   UNL     1      47.140   6.294  12.899  0.00  0.00    +0.000 NA
ENDROOT
BRANCH   1   7
ATOM      7  C   UNL     1      45.528   6.085  11.041  0.00  0.00    +0.000 C 
ATOM      8  C   UNL     1      45.024   7.517  11.258  0.00  0.00    +0.000 C 
BRANCH   7   9
ATOM      9  O   UNL     1      44.428   5.255  10.593  0.00  0.00    +0.000 OA
BRANCH   9  15
ATOM     10  C   UNL     1      46.815   3.903   6.712  0.00  0.00    +0.000 C 
ATOM     11  C   UNL     1      45.966   3.511   7.877  0.00  0.00    +0.000 A 
ATOM     12  C   UNL     1      45.588   2.194   8.096  0.00  0.00    +0.000 A 
ATOM     13  C   UNL     1      44.748   1.914   9.170  0.00  0.00    +0.000 A 
ATOM     14  C   UNL     1      44.327   2.950  10.000  0.00  0.00    +0.000 A 
ATOM     15  C   UNL     1      44.791   4.233   9.735  0.00  0.00    +0.000 A 
ATOM     16  N   UNL     1      45.581   4.521   8.688  0.00  0.00    +0.000 NA
ENDBRANCH   9  15
ENDBRANCH   7   9
ENDBRANCH   1   7
BRANCH   4  17
ATOM     17  C   UNL     1      47.634   4.359  16.105  0.00  0.00    +0.000 C 
BRANCH  17  18
ATOM     18  N   UNL     1      47.452   5.370  17.122  0.00  0.00    +0.000 N 
ATOM     19  C   UNL     1      48.496   6.109  17.611  0.00  0.00    +0.000 C 
ATOM     20  O   UNL     1      49.646   5.959  17.206  0.00  0.00    +0.000 OA
ATOM     21  H   UNL     1      46.540   5.417  17.564  0.00  0.00    +0.000 HD
BRANCH  19  22
ATOM     22  C   UNL     1      48.160   7.133  18.604  0.00  0.00    +0.000 A 
ATOM     23  C   UNL     1      47.988   6.780  19.934  0.00  0.00    +0.000 A 
ATOM     24  S   UNL     1      47.628   8.105  20.946  0.00  0.00    +0.000 S 
ATOM     25  C   UNL     1      47.647   9.185  19.631  0.00  0.00    +0.000 A 
ATOM     26  N   UNL     1      47.386  10.508  19.808  0.00  0.00    +0.000 NA
ATOM     27  C   UNL     1      47.402  11.202  18.720  0.00  0.00    +0.000 A 
ATOM     28  N   UNL     1      47.662  10.698  17.472  0.00  0.00    +0.000 N 
ATOM     29  C   UNL     1      47.967   9.378  17.246  0.00  0.00    +0.000 A 
ATOM     30  O   UNL     1      48.259   8.971  16.130  0.00  0.00    +0.000 OA
ATOM     31  C   UNL     1      47.942   8.548  18.439  0.00  0.00    +0.000 A 
ATOM     32  H   UNL     1      47.680  11.306  16.664  0.00  0.00    +0.000 HD
ENDBRANCH  19  22
ENDBRANCH  17  18
ENDBRANCH   4  17
TORSDOF 6
ENDMDL
MODEL 5
REMARK VINA RESULT:    -7.315      2.168      3.357
REMARK INTER + INTRA:         -10.888
REMARK INTER:                  -9.812
REMARK INTRA:                  -1.075
REMARK UNBOUND:                -1.006
REMARK  Name = 
REMARK  8 active torsions:
REMARK  status: ('A' for Active; 'I' for Inactive)
REMARK    1  A    between atoms: C_1  and  C_2
REMARK    2  A    between atoms: C_6  and  O_7
REMARK    3  A    between atoms: O_7  and  C_8
REMARK    4  A    between atoms: C_8  and  C_9
REMARK    5  A    between atoms: C_8  and  C_10
REMARK    6  A    between atoms: C_13  and  C_14
REMARK    7  A    between atoms: C_14  and  N_15
REMARK    8  A    between atoms: C_16  and  C_18
REMARK                            x       y       z     vdW  Elec       q    Type
REMARK                         _______ _______ _______ _____ _____    ______ ____
ROOT
ATOM      1  C   UNL     1      45.065   4.758  11.791  0.00  0.00    +0.000 A 
ATOM      2  C   UNL     1      45.108   3.799  12.793  0.00  0.00    +0.000 A 
ATOM      3  N   UNL     1      45.940   3.878  13.866  0.00  0.00    +0.000 NA
ATOM      4  C   UNL     1      46.754   4.965  13.910  0.00  0.00    +0.000 A 
ATOM      5  C   UNL     1      46.724   5.922  12.904  0.00  0.00    +0.000 A 
ATOM      6  N   UNL     1      45.904   5.832  11.829  0.00  0.00    +0.000 NA
ENDROOT
BRANCH   1   7
ATOM      7  C   UNL     1      44.083   4.680  10.626  0.00  0.00    +0.000 C 
ATOM      8  C   UNL     1      42.688   5.025  11.160  0.00  0.00    +0.000 C 
BRANCH   7   9
ATOM      9  O   UNL     1      44.054   3.355  10.040  0.00  0.00    +0.000 OA
BRANCH   9  15
ATOM     10  C   UNL     1      46.766   0.222   7.713  0.00  0.00    +0.000 C 
ATOM     11  C   UNL     1      46.343   1.643   7.892  0.00  0.00    +0.000 A 
ATOM     12  C   UNL     1      46.877   2.668   7.123  0.00  0.00    +0.000 A 
ATOM     13  C   UNL     1      46.475   3.974   7.387  0.00  0.00    +0.000 A 
ATOM     14  C   UNL     1      45.545   4.217   8.393  0.00  0.00    +0.000 A 
ATOM     15  C   UNL     1      45.026   3.127   9.084  0.00  0.00    +0.000 A 
ATOM     16  N   UNL     1      45.423   1.864   8.857  0.00  0.00    +0.000 NA
ENDBRANCH   9  15
ENDBRANCH   7   9
ENDBRANCH   1   7
BRANCH   4  17
ATOM     17  C   UNL     1      47.687   5.123  15.084  0.00  0.00    +0.000 C 
BRANCH  17  18
ATOM     18  N   UNL     1      48.073   6.497  15.315  0.00  0.00    +0.000 N 
ATOM     19  C   UNL     1      49.268   6.832  15.892  0.00  0.00    +0.000 C 
ATOM     20  O   UNL     1      50.085   5.982  16.238  0.00  0.00    +0.000 OA
ATOM     21  H   UNL     1      47.362   7.205  15.162  0.00  0.00    +0.000 HD
BRANCH  19  22
ATOM     22  C   UNL     1      49.550   8.264  16.021  0.00  0.00    +0.000 A 
ATOM     23  C   UNL     1      49.676   8.835  17.279  0.00  0.00    +0.000 A 
ATOM     24  S   UNL     1      50.030  10.504  17.234  0.00  0.00    +0.000 S 
ATOM     25  C   UNL     1      49.983  10.523  15.532  0.00  0.00    +0.000 A 
ATOM     26  N   UNL     1      50.185  11.675  14.839  0.00  0.00    +0.000 NA
ATOM     27  C   UNL     1      50.087  11.549  13.559  0.00  0.00    +0.000 A 
ATOM     28  N   UNL     1      49.815  10.376  12.905  0.00  0.00    +0.000 N 
ATOM     29  C   UNL     1      49.640   9.179  13.557  0.00  0.00    +0.000 A 
ATOM     30  O   UNL     1      49.463   8.136  12.942  0.00  0.00    +0.000 OA
ATOM     31  C   UNL     1      49.720   9.272  15.005  0.00  0.00    +0.000 A 
ATOM     32  H   UNL     1      49.776  10.345  11.895  0.00  0.00    +0.000 HD
ENDBRANCH  19  22
ENDBRANCH  17  18
ENDBRANCH   4  17
TORSDOF 6
ENDMDL
MODEL 6
REMARK VINA RESULT:    -7.170      3.655      6.293
REMARK INTER + INTRA:         -10.691
REMARK INTER:                  -9.716
REMARK INTRA:                  -0.975
REMARK UNBOUND:                -1.006
REMARK  Name = 
REMARK  8 active torsions:
REMARK  status: ('A' for Active; 'I' for Inactive)
REMARK    1  A    between atoms: C_1  and  C_2
REMARK    2  A    between atoms: C_6  and  O_7
REMARK    3  A    between atoms: O_7  and  C_8
REMARK    4  A    between atoms: C_8  and  C_9
REMARK    5  A    between atoms: C_8  and  C_10
REMARK    6  A    between atoms: C_13  and  C_14
REMARK    7  A    between atoms: C_14  and  N_15
REMARK    8  A    between atoms: C_16  and  C_18
REMARK                            x       y       z     vdW  Elec       q    Type
REMARK                         _______ _______ _______ _____ _____    ______ ____
ROOT
ATOM      1  C   UNL     1      46.403   2.191   7.075  0.00  0.00    +0.000 A 
ATOM      2  C   UNL     1      46.100   3.543   6.997  0.00  0.00    +0.000 A 
ATOM      3  N   UNL     1      45.350   4.195   7.925  0.00  0.00    +0.000 NA
ATOM      4  C   UNL     1      44.892   3.439   8.958  0.00  0.00    +0.000 A 
ATOM      5  C   UNL     1      45.182   2.083   9.035  0.00  0.00    +0.000 A 
ATOM      6  N   UNL     1      45.917   1.435   8.101  0.00  0.00    +0.000 NA
ENDROOT
BRANCH   1   7
ATOM      7  C   UNL     1      47.295   1.492   6.054  0.00  0.00    +0.000 C 
ATOM      8  C   UNL     1      48.742   1.927   6.315  0.00  0.00    +0.000 C 
BRANCH   7   9
ATOM      9  O   UNL     1      46.930   1.844   4.697  0.00  0.00    +0.000 OA
BRANCH   9  15
ATOM     10  C   UNL     1      46.997  -2.849   3.949  0.00  0.00    +0.000 C 
ATOM     11  C   UNL     1      46.508  -1.505   3.518  0.00  0.00    +0.000 A 
ATOM     12  C   UNL     1      45.689  -1.346   2.408  0.00  0.00    +0.000 A 
ATOM     13  C   UNL     1      45.321  -0.057   2.035  0.00  0.00    +0.000 A 
ATOM     14  C   UNL     1      45.763   1.028   2.786  0.00  0.00    +0.000 A 
ATOM     15  C   UNL     1      46.541   0.775   3.910  0.00  0.00    +0.000 A 
ATOM     16  N   UNL     1      46.925  -0.462   4.268  0.00  0.00    +0.000 NA
ENDBRANCH   9  15
ENDBRANCH   7   9
ENDBRANCH   1   7
BRANCH   4  17
ATOM     17  C   UNL     1      44.071   4.105  10.032  0.00  0.00    +0.000 C 
BRANCH  17  18
ATOM     18  N   UNL     1      44.688   5.305  10.550  0.00  0.00    +0.000 N 
ATOM     19  C   UNL     1      43.982   6.247  11.248  0.00  0.00    +0.000 C 
ATOM     20  O   UNL     1      42.781   6.122  11.479  0.00  0.00    +0.000 OA
ATOM     21  H   UNL     1      45.642   5.493  10.257  0.00  0.00    +0.000 HD
BRANCH  19  22
ATOM     22  C   UNL     1      44.745   7.390  11.756  0.00  0.00    +0.000 A 
ATOM     23  C   UNL     1      44.429   8.675  11.341  0.00  0.00    +0.000 A 
ATOM     24  S   UNL     1      45.406   9.878  12.057  0.00  0.00    +0.000 S 
ATOM     25  C   UNL     1      46.309   8.714  12.910  0.00  0.00    +0.000 A 
ATOM     26  N   UNL     1      47.342   9.081  13.714  0.00  0.00    +0.000 NA
ATOM     27  C   UNL     1      47.958   8.094  14.271  0.00  0.00    +0.000 A 
ATOM     28  N   UNL     1      47.633   6.773  14.105  0.00  0.00    +0.000 N 
ATOM     29  C   UNL     1      46.576   6.353  13.334  0.00  0.00    +0.000 A 
ATOM     30  O   UNL     1      46.270   5.170  13.258  0.00  0.00    +0.000 OA
ATOM     31  C   UNL     1      45.861   7.428  12.668  0.00  0.00    +0.000 A 
ATOM     32  H   UNL     1      48.146   6.050  14.592  0.00  0.00    +0.000 HD
ENDBRANCH  19  22
ENDBRANCH  17  18
ENDBRANCH   4  17
TORSDOF 6
ENDMDL
MODEL 7
REMARK VINA RESULT:    -7.046      4.195      5.614
REMARK INTER + INTRA:         -10.524
REMARK INTER:                  -9.674
REMARK INTRA:                  -0.849
REMARK UNBOUND:                -1.006
REMARK  Name = 
REMARK  8 active torsions:
REMARK  status: ('A' for Active; 'I' for Inactive)
REMARK    1  A    between atoms: C_1  and  C_2
REMARK    2  A    between atoms: C_6  and  O_7
REMARK    3  A    between atoms: O_7  and  C_8
REMARK    4  A    between atoms: C_8  and  C_9
REMARK    5  A    between atoms: C_8  and  C_10
REMARK    6  A    between atoms: C_13  and  C_14
REMARK    7  A    between atoms: C_14  and  N_15
REMARK    8  A    between atoms: C_16  and  C_18
REMARK                            x       y       z     vdW  Elec       q    Type
REMARK                         _______ _______ _______ _____ _____    ______ ____
ROOT
ATOM      1  C   UNL     1      47.221   5.848  13.648  0.00  0.00    +0.000 A 
ATOM      2  C   UNL     1      48.225   6.513  14.337  0.00  0.00    +0.000 A 
ATOM      3  N   UNL     1      48.683   6.119  15.555  0.00  0.00    +0.000 NA
ATOM      4  C   UNL     1      48.091   5.015  16.084  0.00  0.00    +0.000 A 
ATOM      5  C   UNL     1      47.078   4.352  15.405  0.00  0.00    +0.000 A 
ATOM      6  N   UNL     1      46.615   4.758  14.199  0.00  0.00    +0.000 NA
ENDROOT
BRANCH   1   7
ATOM      7  C   UNL     1      46.762   6.274  12.257  0.00  0.00    +0.000 C 
ATOM      8  C   UNL     1      47.151   7.744  12.061  0.00  0.00    +0.000 C 
BRANCH   7   9
ATOM      9  O   UNL     1      45.328   6.135  12.103  0.00  0.00    +0.000 OA
BRANCH   9  15
ATOM     10  C   UNL     1      45.635   3.844   7.950  0.00  0.00    +0.000 C 
ATOM     11  C   UNL     1      45.075   3.887   9.334  0.00  0.00    +0.000 A 
ATOM     12  C   UNL     1      44.230   2.895   9.812  0.00  0.00    +0.000 A 
ATOM     13  C   UNL     1      43.702   3.033  11.093  0.00  0.00    +0.000 A 
ATOM     14  C   UNL     1      44.045   4.143  11.860  0.00  0.00    +0.000 A 
ATOM     15  C   UNL     1      44.934   5.065  11.321  0.00  0.00    +0.000 A 
ATOM     16  N   UNL     1      45.432   4.957  10.078  0.00  0.00    +0.000 NA
ENDBRANCH   9  15
ENDBRANCH   7   9
ENDBRANCH   1   7
BRANCH   4  17
ATOM     17  C   UNL     1      48.567   4.512  17.424  0.00  0.00    +0.000 C 
BRANCH  17  18
ATOM     18  N   UNL     1      49.952   4.100  17.410  0.00  0.00    +0.000 N 
ATOM     19  C   UNL     1      50.776   4.275  18.490  0.00  0.00    +0.000 C 
ATOM     20  O   UNL     1      50.381   4.786  19.535  0.00  0.00    +0.000 OA
ATOM     21  H   UNL     1      50.333   3.801  16.519  0.00  0.00    +0.000 HD
BRANCH  19  22
ATOM     22  C   UNL     1      52.143   3.766  18.354  0.00  0.00    +0.000 A 
ATOM     23  C   UNL     1      53.222   4.580  18.669  0.00  0.00    +0.000 A 
ATOM     24  S   UNL     1      54.732   3.810  18.476  0.00  0.00    +0.000 S 
ATOM     25  C   UNL     1      53.994   2.380  17.925  0.00  0.00    +0.000 A 
ATOM     26  N   UNL     1      54.739   1.304  17.557  0.00  0.00    +0.000 NA
ATOM     27  C   UNL     1      54.050   0.301  17.128  0.00  0.00    +0.000 A 
ATOM     28  N   UNL     1      52.683   0.271  17.039  0.00  0.00    +0.000 N 
ATOM     29  C   UNL     1      51.883   1.316  17.432  0.00  0.00    +0.000 A 
ATOM     30  O   UNL     1      50.663   1.234  17.402  0.00  0.00    +0.000 OA
ATOM     31  C   UNL     1      52.614   2.479  17.905  0.00  0.00    +0.000 A 
ATOM     32  H   UNL     1      52.205  -0.560  16.714  0.00  0.00    +0.000 HD
ENDBRANCH  19  22
ENDBRANCH  17  18
ENDBRANCH   4  17
TORSDOF 6
ENDMDL
MODEL 8
REMARK VINA RESULT:    -6.974      3.196      5.651
REMARK INTER + INTRA:         -10.426
REMARK INTER:                  -9.811
REMARK INTRA:                  -0.614
REMARK UNBOUND:                -1.006
REMARK  Name = 
REMARK  8 active torsions:
REMARK  status: ('A' for Active; 'I' for Inactive)
REMARK    1  A    between atoms: C_1  and  C_2
REMARK    2  A    between atoms: C_6  and  O_7
REMARK    3  A    between atoms: O_7  and  C_8
REMARK    4  A    between atoms: C_8  and  C_9
REMARK    5  A    between atoms: C_8  and  C_10
REMARK    6  A    between atoms: C_13  and  C_14
REMARK    7  A    between atoms: C_14  and  N_15
REMARK    8  A    between atoms: C_16  and  C_18
REMARK                            x       y       z     vdW  Elec       q    Type
REMARK                         _______ _______ _______ _____ _____    ______ ____
ROOT
ATOM      1  C   UNL     1      46.326   2.489   7.195  0.00  0.00    +0.000 A 
ATOM      2  C   UNL     1      46.380   3.876   7.190  0.00  0.00    +0.000 A 
ATOM      3  N   UNL     1      45.851   4.648   8.176  0.00  0.00    +0.000 NA
ATOM      4  C   UNL     1      45.245   3.981   9.194  0.00  0.00    +0.000 A 
ATOM      5  C   UNL     1      45.178   2.594   9.200  0.00  0.00    +0.000 A 
ATOM      6  N   UNL     1      45.693   1.830   8.207  0.00  0.00    +0.000 NA
ENDROOT
BRANCH   1   7
ATOM      7  C   UNL     1      46.976   1.640   6.108  0.00  0.00    +0.000 C 
ATOM      8  C   UNL     1      48.493   1.668   6.331  0.00  0.00    +0.000 C 
BRANCH   7   9
ATOM      9  O   UNL     1      46.680   2.150   4.784  0.00  0.00    +0.000 OA
BRANCH   9  15
ATOM     10  C   UNL     1      47.719  -2.107   2.945  0.00  0.00    +0.000 C 
ATOM     11  C   UNL     1      46.833  -0.905   2.933  0.00  0.00    +0.000 A 
ATOM     12  C   UNL     1      45.773  -0.786   2.045  0.00  0.00    +0.000 A 
ATOM     13  C   UNL     1      45.027   0.389   2.054  0.00  0.00    +0.000 A 
ATOM     14  C   UNL     1      45.348   1.399   2.957  0.00  0.00    +0.000 A 
ATOM     15  C   UNL     1      46.397   1.178   3.843  0.00  0.00    +0.000 A 
ATOM     16  N   UNL     1      47.141   0.059   3.829  0.00  0.00    +0.000 NA
ENDBRANCH   9  15
ENDBRANCH   7   9
ENDBRANCH   1   7
BRANCH   4  17
ATOM     17  C   UNL     1      44.657   4.777  10.331  0.00  0.00    +0.000 C 
BRANCH  17  18
ATOM     18  N   UNL     1      45.628   5.107  11.349  0.00  0.00    +0.000 N 
ATOM     19  C   UNL     1      45.835   6.393  11.770  0.00  0.00    +0.000 C 
ATOM     20  O   UNL     1      45.200   7.340  11.311  0.00  0.00    +0.000 OA
ATOM     21  H   UNL     1      46.254   4.365  11.644  0.00  0.00    +0.000 HD
BRANCH  19  22
ATOM     22  C   UNL     1      46.816   6.577  12.843  0.00  0.00    +0.000 A 
ATOM     23  C   UNL     1      47.682   7.660  12.814  0.00  0.00    +0.000 A 
ATOM     24  S   UNL     1      48.733   7.724  14.157  0.00  0.00    +0.000 S 
ATOM     25  C   UNL     1      48.093   6.282  14.796  0.00  0.00    +0.000 A 
ATOM     26  N   UNL     1      48.577   5.753  15.951  0.00  0.00    +0.000 NA
ATOM     27  C   UNL     1      48.022   4.642  16.300  0.00  0.00    +0.000 A 
ATOM     28  N   UNL     1      47.022   4.013  15.605  0.00  0.00    +0.000 N 
ATOM     29  C   UNL     1      46.473   4.526  14.454  0.00  0.00    +0.000 A 
ATOM     30  O   UNL     1      45.536   3.975  13.892  0.00  0.00    +0.000 OA
ATOM     31  C   UNL     1      47.079   5.768  14.008  0.00  0.00    +0.000 A 
ATOM     32  H   UNL     1      46.615   3.153  15.949  0.00  0.00    +0.000 HD
ENDBRANCH  19  22
ENDBRANCH  17  18
ENDBRANCH   4  17
TORSDOF 6
ENDMDL
MODEL 9
REMARK VINA RESULT:    -6.952      4.497      6.783
REMARK INTER + INTRA:         -10.397
REMARK INTER:                  -9.331
REMARK INTRA:                  -1.066
REMARK UNBOUND:                -1.006
REMARK  Name = 
REMARK  8 active torsions:
REMARK  status: ('A' for Active; 'I' for Inactive)
REMARK    1  A    between atoms: C_1  and  C_2
REMARK    2  A    between atoms: C_6  and  O_7
REMARK    3  A    between atoms: O_7  and  C_8
REMARK    4  A    between atoms: C_8  and  C_9
REMARK    5  A    between atoms: C_8  and  C_10
REMARK    6  A    between atoms: C_13  and  C_14
REMARK    7  A    between atoms: C_14  and  N_15
REMARK    8  A    between atoms: C_16  and  C_18
REMARK                            x       y       z     vdW  Elec       q    Type
REMARK                         _______ _______ _______ _____ _____    ______ ____
ROOT
ATOM      1  C   UNL     1      44.793   9.067  11.741  0.00  0.00    +0.000 A 
ATOM      2  C   UNL     1      45.809   8.960  12.679  0.00  0.00    +0.000 A 
ATOM      3  N   UNL     1      46.269   7.769  13.150  0.00  0.00    +0.000 NA
ATOM      4  C   UNL     1      45.665   6.659  12.650  0.00  0.00    +0.000 A 
ATOM      5  C   UNL     1      44.639   6.760  11.720  0.00  0.00    +0.000 A 
ATOM      6  N   UNL     1      44.175   7.948  11.265  0.00  0.00    +0.000 NA
ENDROOT
BRANCH   1   7
ATOM      7  C   UNL     1      44.332  10.410  11.183  0.00  0.00    +0.000 C 
ATOM      8  C   UNL     1      45.580  11.255  10.897  0.00  0.00    +0.000 C 
BRANCH   7   9
ATOM      9  O   UNL     1      43.484  11.115  12.123  0.00  0.00    +0.000 OA
BRANCH   9  15
ATOM     10  C   UNL     1      39.001  12.044  13.399  0.00  0.00    +0.000 C 
ATOM     11  C   UNL     1      39.954  11.648  12.319  0.00  0.00    +0.000 A 
ATOM     12  C   UNL     1      39.525  11.379  11.027  0.00  0.00    +0.000 A 
ATOM     13  C   UNL     1      40.464  10.959  10.089  0.00  0.00    +0.000 A 
ATOM     14  C   UNL     1      41.799  10.838  10.461  0.00  0.00    +0.000 A 
ATOM     15  C   UNL     1      42.150  11.172  11.764  0.00  0.00    +0.000 A 
ATOM     16  N   UNL     1      41.251  11.554  12.687  0.00  0.00    +0.000 NA
ENDBRANCH   9  15
ENDBRANCH   7   9
ENDBRANCH   1   7
BRANCH   4  17
ATOM     17  C   UNL     1      46.141   5.306  13.115  0.00  0.00    +0.000 C 
BRANCH  17  18
ATOM     18  N   UNL     1      46.720   5.338  14.439  0.00  0.00    +0.000 N 
ATOM     19  C   UNL     1      47.272   4.228  15.021  0.00  0.00    +0.000 C 
ATOM     20  O   UNL     1      47.314   3.143  14.446  0.00  0.00    +0.000 OA
ATOM     21  H   UNL     1      46.577   6.183  14.982  0.00  0.00    +0.000 HD
BRANCH  19  22
ATOM     22  C   UNL     1      47.866   4.416  16.347  0.00  0.00    +0.000 A 
ATOM     23  C   UNL     1      47.484   3.599  17.401  0.00  0.00    +0.000 A 
ATOM     24  S   UNL     1      48.299   3.946  18.859  0.00  0.00    +0.000 S 
ATOM     25  C   UNL     1      49.156   5.228  18.138  0.00  0.00    +0.000 A 
ATOM     26  N   UNL     1      50.030   5.980  18.860  0.00  0.00    +0.000 NA
ATOM     27  C   UNL     1      50.582   6.938  18.195  0.00  0.00    +0.000 A 
ATOM     28  N   UNL     1      50.348   7.210  16.872  0.00  0.00    +0.000 N 
ATOM     29  C   UNL     1      49.503   6.459  16.091  0.00  0.00    +0.000 A 
ATOM     30  O   UNL     1      49.365   6.687  14.897  0.00  0.00    +0.000 OA
ATOM     31  C   UNL     1      48.840   5.378  16.800  0.00  0.00    +0.000 A 
ATOM     32  H   UNL     1      50.834   7.965  16.407  0.00  0.00    +0.000 HD
ENDBRANCH  19  22
ENDBRANCH  17  18
ENDBRANCH   4  17
TORSDOF 6
ENDMDL
