MODEL 1
REMARK VINA RESULT:    -9.070      0.000      0.000
REMARK INTER + INTRA:         -13.133
REMARK INTER:                 -12.251
REMARK INTRA:                  -0.882
REMARK UNBOUND:                -0.882
REMARK  Name = 
REMARK  7 active torsions:
REMARK  status: ('A' for Active; 'I' for Inactive)
REMARK    1  A    between atoms: C_1  and  C_2
REMARK    2  A    between atoms: C_4  and  C_5
REMARK    3  A    between atoms: C_5  and  N_6
REMARK    4  A    between atoms: C_7  and  C_9
REMARK    5  A    between atoms: C_21  and  C_22
REMARK    6  A    between atoms: C_22  and  N_23
REMARK    7  A    between atoms: N_23  and  C_24
REMARK                            x       y       z     vdW  Elec       q    Type
REMARK                         _______ _______ _______ _____ _____    ______ ____
ROOT
ATOM      1  C   UNL     1      42.964   5.255  12.907  0.00  0.00    +0.000 C 
ATOM      2  C   UNL     1      44.209   5.718  12.207  0.00  0.00    +0.000 A 
ATOM      3  N   UNL     1      44.947   6.622  12.902  0.00  0.00    +0.000 NA
ATOM      4  C   UNL     1      46.093   7.091  12.350  0.00  0.00    +0.000 A 
ATOM      5  C   UNL     1      46.542   6.668  11.106  0.00  0.00    +0.000 A 
ATOM      6  C   UNL     1      45.769   5.753  10.395  0.00  0.00    +0.000 A 
ATOM      7  C   UNL     1      44.580   5.248  10.942  0.00  0.00    +0.000 A 
ENDROOT
BRANCH   4   8
ATOM      8  C   UNL     1      46.883   8.093  13.155  0.00  0.00    +0.000 C 
BRANCH   8   9
ATOM      9  N   UNL     1      47.359   7.542  14.401  0.00  0.00    +0.000 N 
ATOM     10  C   UNL     1      48.498   6.786  14.487  0.00  0.00    +0.000 C 
ATOM     11  O   UNL     1      49.180   6.527  13.500  0.00  0.00    +0.000 OA
ATOM     12  H   UNL     1      46.699   7.560  15.175  0.00  0.00    +0.000 HD
BRANCH  10  13
ATOM     13  C   UNL     1      48.909   6.360  15.832  0.00  0.00    +0.000 A 
ATOM     14  C   UNL     1      49.801   7.145  16.553  0.00  0.00    +0.000 A 
ATOM     15  S   UNL     1      50.144   6.540  18.109  0.00  0.00    +0.000 S 
ATOM     16  C   UNL     1      49.144   5.186  17.864  0.00  0.00    +0.000 A 
ATOM     17  N   UNL     1      49.006   4.236  18.827  0.00  0.00    +0.000 NA
ATOM     18  C   UNL     1      48.242   3.250  18.499  0.00  0.00    +0.000 A 
ATOM     19  N   UNL     1      47.595   3.131  17.295  0.00  0.00    +0.000 N 
ATOM     20  C   UNL     1      47.667   4.092  16.309  0.00  0.00    +0.000 A 
ATOM     21  O   UNL     1      47.008   3.991  15.283  0.00  0.00    +0.000 OA
ATOM     22  C   UNL     1      48.537   5.208  16.618  0.00  0.00    +0.000 A 
ATOM     23  H   UNL     1      46.993   2.343  17.105  0.00  0.00    +0.000 HD
ENDBRANCH  10  13
ENDBRANCH   8   9
ENDBRANCH   4   8
BRANCH   7  24
ATOM     24  C   UNL     1      43.765   4.247  10.156  0.00  0.00    +0.000 C 
BRANCH  24  25
ATOM     25  N   UNL     1      44.164   4.264   8.753  0.00  0.00    +0.000 N 
ATOM     26  H   UNL     1      43.357   4.239   8.132  0.00  0.00    +0.000 HD
BRANCH  25  27
ATOM     27  C   UNL     1      45.140   3.372   8.292  0.00  0.00    +0.000 A 
ATOM     28  C   UNL     1      45.254   2.038   8.705  0.00  0.00    +0.000 A 
ATOM     29  C   UNL     1      46.216   1.191   8.139  0.00  0.00    +0.000 A 
ATOM     30  C   UNL     1      47.070   1.673   7.157  0.00  0.00    +0.000 A 
ATOM     31  F   UNL     1      47.984   0.860   6.617  0.00  0.00    +0.000 F 
ATOM     32  C   UNL     1      46.978   2.988   6.726  0.00  0.00    +0.000 A 
ATOM     33  C   UNL     1      46.010   3.826   7.285  0.00  0.00    +0.000 A 
ENDBRANCH  25  27
ENDBRANCH  24  25
ENDBRANCH   7  24
TORSDOF 6
ENDMDL
MODEL 2
REMARK VINA RESULT:    -8.753      1.490      1.685
REMARK INTER + INTRA:         -12.705
REMARK INTER:                 -11.472
REMARK INTRA:                  -1.233
REMARK UNBOUND:                -0.882
REMARK  Name = 
REMARK  7 active torsions:
REMARK  status: ('A' for Active; 'I' for Inactive)
REMARK    1  A    between atoms: C_1  and  C_2
REMARK    2  A    between atoms: C_4  and  C_5
REMARK    3  A    between atoms: C_5  and  N_6
REMARK    4  A    between atoms: C_7  and  C_9
REMARK    5  A    between atoms: C_21  and  C_22
REMARK    6  A    between atoms: C_22  and  N_23
REMARK    7  A    between atoms: N_23  and  C_24
REMARK                            x       y       z     vdW  Elec       q    Type
REMARK                         _______ _______ _______ _____ _____    ______ ____
ROOT
ATOM      1  C   UNL     1      45.508   3.209  12.620  0.00  0.00    +0.000 C 
ATOM      2  C   UNL     1      45.674   4.661  12.279  0.00  0.00    +0.000 A 
ATOM      3  N   UNL     1      46.708   5.276  12.910  0.00  0.00    +0.000 NA
ATOM      4  C   UNL     1      46.938   6.589  12.658  0.00  0.00    +0.000 A 
ATOM      5  C   UNL     1      46.162   7.318  11.768  0.00  0.00    +0.000 A 
ATOM      6  C   UNL     1      45.093   6.682  11.139  0.00  0.00    +0.000 A 
ATOM      7  C   UNL     1      44.833   5.324  11.379  0.00  0.00    +0.000 A 
ENDROOT
BRANCH   4   8
ATOM      8  C   UNL     1      48.097   7.233  13.377  0.00  0.00    +0.000 C 
BRANCH   8   9
ATOM      9  N   UNL     1      47.966   7.150  14.812  0.00  0.00    +0.000 N 
ATOM     10  C   UNL     1      49.026   6.873  15.635  0.00  0.00    +0.000 C 
ATOM     11  O   UNL     1      50.154   6.672  15.195  0.00  0.00    +0.000 OA
ATOM     12  H   UNL     1      47.015   7.095  15.169  0.00  0.00    +0.000 HD
BRANCH  10  13
ATOM     13  C   UNL     1      48.765   6.903  17.081  0.00  0.00    +0.000 A 
ATOM     14  C   UNL     1      48.386   8.098  17.682  0.00  0.00    +0.000 A 
ATOM     15  S   UNL     1      48.079   7.958  19.352  0.00  0.00    +0.000 S 
ATOM     16  C   UNL     1      48.478   6.304  19.344  0.00  0.00    +0.000 A 
ATOM     17  N   UNL     1      48.441   5.571  20.489  0.00  0.00    +0.000 NA
ATOM     18  C   UNL     1      48.795   4.339  20.346  0.00  0.00    +0.000 A 
ATOM     19  N   UNL     1      49.175   3.769  19.157  0.00  0.00    +0.000 N 
ATOM     20  C   UNL     1      49.181   4.461  17.964  0.00  0.00    +0.000 A 
ATOM     21  O   UNL     1      49.445   3.896  16.911  0.00  0.00    +0.000 OA
ATOM     22  C   UNL     1      48.819   5.859  18.077  0.00  0.00    +0.000 A 
ATOM     23  H   UNL     1      49.423   2.792  19.106  0.00  0.00    +0.000 HD
ENDBRANCH  10  13
ENDBRANCH   8   9
ENDBRANCH   4   8
BRANCH   7  24
ATOM     24  C   UNL     1      43.676   4.653  10.676  0.00  0.00    +0.000 C 
BRANCH  24  25
ATOM     25  N   UNL     1      43.932   4.581   9.241  0.00  0.00    +0.000 N 
ATOM     26  H   UNL     1      43.069   4.484   8.709  0.00  0.00    +0.000 HD
BRANCH  25  27
ATOM     27  C   UNL     1      44.892   3.692   8.744  0.00  0.00    +0.000 A 
ATOM     28  C   UNL     1      44.920   2.319   9.021  0.00  0.00    +0.000 A 
ATOM     29  C   UNL     1      45.875   1.485   8.424  0.00  0.00    +0.000 A 
ATOM     30  C   UNL     1      46.809   2.020   7.549  0.00  0.00    +0.000 A 
ATOM     31  F   UNL     1      47.717   1.220   6.978  0.00  0.00    +0.000 F 
ATOM     32  C   UNL     1      46.804   3.375   7.253  0.00  0.00    +0.000 A 
ATOM     33  C   UNL     1      45.843   4.201   7.841  0.00  0.00    +0.000 A 
ENDBRANCH  25  27
ENDBRANCH  24  25
ENDBRANCH   7  24
TORSDOF 6
ENDMDL
MODEL 3
REMARK VINA RESULT:    -8.417      2.028      2.455
REMARK INTER + INTRA:         -12.252
REMARK INTER:                 -10.906
REMARK INTRA:                  -1.346
REMARK UNBOUND:                -0.882
REMARK  Name = 
REMARK  7 active torsions:
REMARK  status: ('A' for Active; 'I' for Inactive)
REMARK    1  A    between atoms: C_1  and  C_2
REMARK    2  A    between atoms: C_4  and  C_5
REMARK    3  A    between atoms: C_5  and  N_6
REMARK    4  A    between atoms: C_7  and  C_9
REMARK    5  A    between atoms: C_21  and  C_22
REMARK    6  A    between atoms: C_22  and  N_23
REMARK    7  A    between atoms: N_23  and  C_24
REMARK                            x       y       z     vdW  Elec       q    Type
REMARK                         _______ _______ _______ _____ _____    ______ ____
ROOT
ATOM      1  C   UNL     1      45.618   3.339  12.645  0.00  0.00    +0.000 C 
ATOM      2  C   UNL     1      45.643   4.816  12.383  0.00  0.00    +0.000 A 
ATOM      3  N   UNL     1      46.582   5.501  13.088  0.00  0.00    +0.000 NA
ATOM      4  C   UNL     1      46.682   6.842  12.910  0.00  0.00    +0.000 A 
ATOM      5  C   UNL     1      45.867   7.533  12.024  0.00  0.00    +0.000 A 
ATOM      6  C   UNL     1      44.897   6.824  11.320  0.00  0.00    +0.000 A 
ATOM      7  C   UNL     1      44.772   5.436  11.480  0.00  0.00    +0.000 A 
ENDROOT
BRANCH   4   8
ATOM      8  C   UNL     1      47.737   7.563  13.711  0.00  0.00    +0.000 C 
BRANCH   8   9
ATOM      9  N   UNL     1      47.831   7.072  15.065  0.00  0.00    +0.000 N 
ATOM     10  C   UNL     1      49.022   6.717  15.640  0.00  0.00    +0.000 C 
ATOM     11  O   UNL     1      50.085   6.792  15.031  0.00  0.00    +0.000 OA
ATOM     12  H   UNL     1      46.953   6.799  15.500  0.00  0.00    +0.000 HD
BRANCH  10  13
ATOM     13  C   UNL     1      48.979   6.313  17.053  0.00  0.00    +0.000 A 
ATOM     14  C   UNL     1      49.453   5.058  17.418  0.00  0.00    +0.000 A 
ATOM     15  S   UNL     1      49.374   4.757  19.094  0.00  0.00    +0.000 S 
ATOM     16  C   UNL     1      48.668   6.276  19.390  0.00  0.00    +0.000 A 
ATOM     17  N   UNL     1      48.321   6.651  20.651  0.00  0.00    +0.000 NA
ATOM     18  C   UNL     1      47.769   7.814  20.729  0.00  0.00    +0.000 A 
ATOM     19  N   UNL     1      47.538   8.642  19.660  0.00  0.00    +0.000 N 
ATOM     20  C   UNL     1      47.916   8.324  18.373  0.00  0.00    +0.000 A 
ATOM     21  O   UNL     1      47.770   9.124  17.458  0.00  0.00    +0.000 OA
ATOM     22  C   UNL     1      48.516   7.013  18.227  0.00  0.00    +0.000 A 
ATOM     23  H   UNL     1      47.119   9.551  19.788  0.00  0.00    +0.000 HD
ENDBRANCH  10  13
ENDBRANCH   8   9
ENDBRANCH   4   8
BRANCH   7  24
ATOM     24  C   UNL     1      43.720   4.687  10.695  0.00  0.00    +0.000 C 
BRANCH  24  25
ATOM     25  N   UNL     1      44.067   4.671   9.278  0.00  0.00    +0.000 N 
ATOM     26  H   UNL     1      43.237   4.691   8.687  0.00  0.00    +0.000 HD
BRANCH  25  27
ATOM     27  C   UNL     1      44.968   3.719   8.788  0.00  0.00    +0.000 A 
ATOM     28  C   UNL     1      44.921   2.351   9.091  0.00  0.00    +0.000 A 
ATOM     29  C   UNL     1      45.819   1.453   8.500  0.00  0.00    +0.000 A 
ATOM     30  C   UNL     1      46.772   1.918   7.604  0.00  0.00    +0.000 A 
ATOM     31  F   UNL     1      47.626   1.056   7.039  0.00  0.00    +0.000 F 
ATOM     32  C   UNL     1      46.841   3.265   7.283  0.00  0.00    +0.000 A 
ATOM     33  C   UNL     1      45.935   4.155   7.865  0.00  0.00    +0.000 A 
ENDBRANCH  25  27
ENDBRANCH  24  25
ENDBRANCH   7  24
TORSDOF 6
ENDMDL
MODEL 4
REMARK VINA RESULT:    -7.842      2.651      4.594
REMARK INTER + INTRA:         -11.475
REMARK INTER:                 -10.357
REMARK INTRA:                  -1.118
REMARK UNBOUND:                -0.882
REMARK  Name = 
REMARK  7 active torsions:
REMARK  status: ('A' for Active; 'I' for Inactive)
REMARK    1  A    between atoms: C_1  and  C_2
REMARK    2  A    between atoms: C_4  and  C_5
REMARK    3  A    between atoms: C_5  and  N_6
REMARK    4  A    between atoms: C_7  and  C_9
REMARK    5  A    between atoms: C_21  and  C_22
REMARK    6  A    between atoms: C_22  and  N_23
REMARK    7  A    between atoms: N_23  and  C_24
REMARK                            x       y       z     vdW  Elec       q    Type
REMARK                         _______ _______ _______ _____ _____    ______ ____
ROOT
ATOM      1  C   UNL     1      43.457   6.217  11.834  0.00  0.00    +0.000 C 
ATOM      2  C   UNL     1      44.519   5.261  12.291  0.00  0.00    +0.000 A 
ATOM      3  N   UNL     1      45.397   5.777  13.191  0.00  0.00    +0.000 NA
ATOM      4  C   UNL     1      46.388   4.982  13.666  0.00  0.00    +0.000 A 
ATOM      5  C   UNL     1      46.525   3.657  13.273  0.00  0.00    +0.000 A 
ATOM      6  C   UNL     1      45.630   3.143  12.338  0.00  0.00    +0.000 A 
ATOM      7  C   UNL     1      44.593   3.941  11.831  0.00  0.00    +0.000 A 
ENDROOT
BRANCH   4   8
ATOM      8  C   UNL     1      47.340   5.593  14.663  0.00  0.00    +0.000 C 
BRANCH   8   9
ATOM      9  N   UNL     1      47.657   6.966  14.348  0.00  0.00    +0.000 N 
ATOM     10  C   UNL     1      48.600   7.310  13.415  0.00  0.00    +0.000 C 
ATOM     11  O   UNL     1      49.237   6.465  12.795  0.00  0.00    +0.000 OA
ATOM     12  H   UNL     1      47.306   7.664  14.999  0.00  0.00    +0.000 HD
BRANCH  10  13
ATOM     13  C   UNL     1      48.760   8.744  13.137  0.00  0.00    +0.000 A 
ATOM     14  C   UNL     1      49.977   9.360  13.408  0.00  0.00    +0.000 A 
ATOM     15  S   UNL     1      50.017  11.012  12.990  0.00  0.00    +0.000 S 
ATOM     16  C   UNL     1      48.398  10.976  12.468  0.00  0.00    +0.000 A 
ATOM     17  N   UNL     1      47.791  12.099  11.998  0.00  0.00    +0.000 NA
ATOM     18  C   UNL     1      46.556  11.939  11.663  0.00  0.00    +0.000 A 
ATOM     19  N   UNL     1      45.873  10.752  11.749  0.00  0.00    +0.000 N 
ATOM     20  C   UNL     1      46.460   9.579  12.174  0.00  0.00    +0.000 A 
ATOM     21  O   UNL     1      45.842   8.523  12.156  0.00  0.00    +0.000 OA
ATOM     22  C   UNL     1      47.841   9.713  12.588  0.00  0.00    +0.000 A 
ATOM     23  H   UNL     1      44.910  10.685  11.452  0.00  0.00    +0.000 HD
ENDBRANCH  10  13
ENDBRANCH   8   9
ENDBRANCH   4   8
BRANCH   7  24
ATOM     24  C   UNL     1      43.627   3.357  10.827  0.00  0.00    +0.000 C 
BRANCH  24  25
ATOM     25  N   UNL     1      43.980   3.790   9.479  0.00  0.00    +0.000 N 
ATOM     26  H   UNL     1      43.160   3.858   8.878  0.00  0.00    +0.000 HD
BRANCH  25  27
ATOM     27  C   UNL     1      45.017   3.152   8.787  0.00  0.00    +0.000 A 
ATOM     28  C   UNL     1      45.280   1.777   8.844  0.00  0.00    +0.000 A 
ATOM     29  C   UNL     1      46.294   1.207   8.064  0.00  0.00    +0.000 A 
ATOM     30  C   UNL     1      47.051   2.010   7.222  0.00  0.00    +0.000 A 
ATOM     31  F   UNL     1      48.017   1.461   6.475  0.00  0.00    +0.000 F 
ATOM     32  C   UNL     1      46.812   3.373   7.142  0.00  0.00    +0.000 A 
ATOM     33  C   UNL     1      45.792   3.936   7.914  0.00  0.00    +0.000 A 
ENDBRANCH  25  27
ENDBRANCH  24  25
ENDBRANCH   7  24
TORSDOF 6
ENDMDL
MODEL 5
REMARK VINA RESULT:    -7.730      2.322      3.766
REMARK INTER + INTRA:         -11.323
REMARK INTER:                 -10.191
REMARK INTRA:                  -1.132
REMARK UNBOUND:                -0.882
REMARK  Name = 
REMARK  7 active torsions:
REMARK  status: ('A' for Active; 'I' for Inactive)
REMARK    1  A    between atoms: C_1  and  C_2
REMARK    2  A    between atoms: C_4  and  C_5
REMARK    3  A    between atoms: C_5  and  N_6
REMARK    4  A    between atoms: C_7  and  C_9
REMARK    5  A    between atoms: C_21  and  C_22
REMARK    6  A    between atoms: C_22  and  N_23
REMARK    7  A    between atoms: N_23  and  C_24
REMARK                            x       y       z     vdW  Elec       q    Type
REMARK                         _______ _______ _______ _____ _____    ______ ____
ROOT
ATOM      1  C   UNL     1      48.081   7.286  11.841  0.00  0.00    +0.000 C 
ATOM      2  C   UNL     1      47.244   6.200  12.449  0.00  0.00    +0.000 A 
ATOM      3  N   UNL     1      47.671   5.767  13.664  0.00  0.00    +0.000 NA
ATOM      4  C   UNL     1      46.971   4.790  14.293  0.00  0.00    +0.000 A 
ATOM      5  C   UNL     1      45.827   4.229  13.742  0.00  0.00    +0.000 A 
ATOM      6  C   UNL     1      45.407   4.668  12.488  0.00  0.00    +0.000 A 
ATOM      7  C   UNL     1      46.110   5.679  11.815  0.00  0.00    +0.000 A 
ENDROOT
BRANCH   4   8
ATOM      8  C   UNL     1      47.479   4.340  15.640  0.00  0.00    +0.000 C 
BRANCH   8   9
ATOM      9  N   UNL     1      47.614   5.436  16.570  0.00  0.00    +0.000 N 
ATOM     10  C   UNL     1      48.820   5.809  17.101  0.00  0.00    +0.000 C 
ATOM     11  O   UNL     1      49.862   5.224  16.820  0.00  0.00    +0.000 OA
ATOM     12  H   UNL     1      46.749   5.782  16.977  0.00  0.00    +0.000 HD
BRANCH  10  13
ATOM     13  C   UNL     1      48.822   6.994  17.969  0.00  0.00    +0.000 A 
ATOM     14  C   UNL     1      49.079   6.845  19.327  0.00  0.00    +0.000 A 
ATOM     15  S   UNL     1      49.088   8.316  20.189  0.00  0.00    +0.000 S 
ATOM     16  C   UNL     1      48.708   9.203  18.788  0.00  0.00    +0.000 A 
ATOM     17  N   UNL     1      48.546  10.553  18.839  0.00  0.00    +0.000 NA
ATOM     18  C   UNL     1      48.233  11.096  17.711  0.00  0.00    +0.000 A 
ATOM     19  N   UNL     1      48.072  10.411  16.533  0.00  0.00    +0.000 N 
ATOM     20  C   UNL     1      48.272   9.051  16.425  0.00  0.00    +0.000 A 
ATOM     21  O   UNL     1      48.203   8.489  15.340  0.00  0.00    +0.000 OA
ATOM     22  C   UNL     1      48.600   8.390  17.671  0.00  0.00    +0.000 A 
ATOM     23  H   UNL     1      47.845  10.896  15.678  0.00  0.00    +0.000 HD
ENDBRANCH  10  13
ENDBRANCH   8   9
ENDBRANCH   4   8
BRANCH   7  24
ATOM     24  C   UNL     1      45.627   6.147  10.462  0.00  0.00    +0.000 C 
BRANCH  24  25
ATOM     25  N   UNL     1      44.734   5.154   9.876  0.00  0.00    +0.000 N 
ATOM     26  H   UNL     1      44.088   4.774  10.567  0.00  0.00    +0.000 HD
BRANCH  25  27
ATOM     27  C   UNL     1      45.256   4.113   9.099  0.00  0.00    +0.000 A 
ATOM     28  C   UNL     1      46.128   4.291   8.017  0.00  0.00    +0.000 A 
ATOM     29  C   UNL     1      46.662   3.189   7.337  0.00  0.00    +0.000 A 
ATOM     30  C   UNL     1      46.326   1.903   7.734  0.00  0.00    +0.000 A 
ATOM     31  F   UNL     1      46.841   0.853   7.084  0.00  0.00    +0.000 F 
ATOM     32  C   UNL     1      45.468   1.695   8.803  0.00  0.00    +0.000 A 
ATOM     33  C   UNL     1      44.946   2.797   9.486  0.00  0.00    +0.000 A 
ENDBRANCH  25  27
ENDBRANCH  24  25
ENDBRANCH   7  24
TORSDOF 6
ENDMDL
MODEL 6
REMARK VINA RESULT:    -7.473      2.546      3.427
REMARK INTER + INTRA:         -10.977
REMARK INTER:                 -10.279
REMARK INTRA:                  -0.698
REMARK UNBOUND:                -0.882
REMARK  Name = 
REMARK  7 active torsions:
REMARK  status: ('A' for Active; 'I' for Inactive)
REMARK    1  A    between atoms: C_1  and  C_2
REMARK    2  A    between atoms: C_4  and  C_5
REMARK    3  A    between atoms: C_5  and  N_6
REMARK    4  A    between atoms: C_7  and  C_9
REMARK    5  A    between atoms: C_21  and  C_22
REMARK    6  A    between atoms: C_22  and  N_23
REMARK    7  A    between atoms: N_23  and  C_24
REMARK                            x       y       z     vdW  Elec       q    Type
REMARK                         _______ _______ _______ _____ _____    ______ ____
ROOT
ATOM      1  C   UNL     1      44.542   7.099  11.591  0.00  0.00    +0.000 C 
ATOM      2  C   UNL     1      45.038   5.767  12.072  0.00  0.00    +0.000 A 
ATOM      3  N   UNL     1      45.881   5.827  13.136  0.00  0.00    +0.000 NA
ATOM      4  C   UNL     1      46.375   4.670  13.643  0.00  0.00    +0.000 A 
ATOM      5  C   UNL     1      46.037   3.430  13.121  0.00  0.00    +0.000 A 
ATOM      6  C   UNL     1      45.186   3.380  12.019  0.00  0.00    +0.000 A 
ATOM      7  C   UNL     1      44.657   4.560  11.474  0.00  0.00    +0.000 A 
ENDROOT
BRANCH   4   8
ATOM      8  C   UNL     1      47.307   4.782  14.825  0.00  0.00    +0.000 C 
BRANCH   8   9
ATOM      9  N   UNL     1      47.735   6.140  15.060  0.00  0.00    +0.000 N 
ATOM     10  C   UNL     1      48.825   6.447  15.831  0.00  0.00    +0.000 C 
ATOM     11  O   UNL     1      49.500   5.579  16.375  0.00  0.00    +0.000 OA
ATOM     12  H   UNL     1      47.069   6.866  14.805  0.00  0.00    +0.000 HD
BRANCH  10  13
ATOM     13  C   UNL     1      49.195   7.867  15.916  0.00  0.00    +0.000 A 
ATOM     14  C   UNL     1      49.564   8.546  14.761  0.00  0.00    +0.000 A 
ATOM     15  S   UNL     1      49.921  10.193  15.018  0.00  0.00    +0.000 S 
ATOM     16  C   UNL     1      49.635  10.051  16.689  0.00  0.00    +0.000 A 
ATOM     17  N   UNL     1      49.789  11.119  17.517  0.00  0.00    +0.000 NA
ATOM     18  C   UNL     1      49.568  10.866  18.762  0.00  0.00    +0.000 A 
ATOM     19  N   UNL     1      49.199   9.640  19.255  0.00  0.00    +0.000 N 
ATOM     20  C   UNL     1      48.986   8.542  18.449  0.00  0.00    +0.000 A 
ATOM     21  O   UNL     1      48.575   7.488  18.916  0.00  0.00    +0.000 OA
ATOM     22  C   UNL     1      49.248   8.768  17.043  0.00  0.00    +0.000 A 
ATOM     23  H   UNL     1      49.022   9.509  20.241  0.00  0.00    +0.000 HD
ENDBRANCH  10  13
ENDBRANCH   8   9
ENDBRANCH   4   8
BRANCH   7  24
ATOM     24  C   UNL     1      43.725   4.480  10.287  0.00  0.00    +0.000 C 
BRANCH  24  25
ATOM     25  N   UNL     1      44.469   4.683   9.049  0.00  0.00    +0.000 N 
ATOM     26  H   UNL     1      43.870   5.030   8.302  0.00  0.00    +0.000 HD
BRANCH  25  27
ATOM     27  C   UNL     1      45.296   3.668   8.555  0.00  0.00    +0.000 A 
ATOM     28  C   UNL     1      45.128   2.304   8.828  0.00  0.00    +0.000 A 
ATOM     29  C   UNL     1      45.958   1.344   8.233  0.00  0.00    +0.000 A 
ATOM     30  C   UNL     1      46.963   1.744   7.364  0.00  0.00    +0.000 A 
ATOM     31  F   UNL     1      47.752   0.825   6.795  0.00  0.00    +0.000 F 
ATOM     32  C   UNL     1      47.152   3.087   7.072  0.00  0.00    +0.000 A 
ATOM     33  C   UNL     1      46.314   4.039   7.658  0.00  0.00    +0.000 A 
ENDBRANCH  25  27
ENDBRANCH  24  25
ENDBRANCH   7  24
TORSDOF 6
ENDMDL
MODEL 7
REMARK VINA RESULT:    -7.451      3.622      4.500
REMARK INTER + INTRA:         -10.947
REMARK INTER:                  -9.855
REMARK INTRA:                  -1.091
REMARK UNBOUND:                -0.882
REMARK  Name = 
REMARK  7 active torsions:
REMARK  status: ('A' for Active; 'I' for Inactive)
REMARK    1  A    between atoms: C_1  and  C_2
REMARK    2  A    between atoms: C_4  and  C_5
REMARK    3  A    between atoms: C_5  and  N_6
REMARK    4  A    between atoms: C_7  and  C_9
REMARK    5  A    between atoms: C_21  and  C_22
REMARK    6  A    between atoms: C_22  and  N_23
REMARK    7  A    between atoms: N_23  and  C_24
REMARK                            x       y       z     vdW  Elec       q    Type
REMARK                         _______ _______ _______ _____ _____    ______ ____
ROOT
ATOM      1  C   UNL     1      43.378   4.081  13.228  0.00  0.00    +0.000 C 
ATOM      2  C   UNL     1      44.246   4.983  12.401  0.00  0.00    +0.000 A 
ATOM      3  N   UNL     1      44.429   6.226  12.919  0.00  0.00    +0.000 NA
ATOM      4  C   UNL     1      45.205   7.108  12.242  0.00  0.00    +0.000 A 
ATOM      5  C   UNL     1      45.828   6.779  11.046  0.00  0.00    +0.000 A 
ATOM      6  C   UNL     1      45.620   5.508  10.514  0.00  0.00    +0.000 A 
ATOM      7  C   UNL     1      44.825   4.573  11.194  0.00  0.00    +0.000 A 
ENDROOT
BRANCH   4   8
ATOM      8  C   UNL     1      45.382   8.476  12.853  0.00  0.00    +0.000 C 
BRANCH   8   9
ATOM      9  N   UNL     1      46.639   9.083  12.484  0.00  0.00    +0.000 N 
ATOM     10  C   UNL     1      47.671   9.237  13.371  0.00  0.00    +0.000 C 
ATOM     11  O   UNL     1      47.583   8.872  14.539  0.00  0.00    +0.000 OA
ATOM     12  H   UNL     1      46.648   9.582  11.598  0.00  0.00    +0.000 HD
BRANCH  10  13
ATOM     13  C   UNL     1      48.922   9.795  12.838  0.00  0.00    +0.000 A 
ATOM     14  C   UNL     1      49.151  11.163  12.925  0.00  0.00    +0.000 A 
ATOM     15  S   UNL     1      50.662  11.647  12.302  0.00  0.00    +0.000 S 
ATOM     16  C   UNL     1      51.051  10.052  11.856  0.00  0.00    +0.000 A 
ATOM     17  N   UNL     1      52.229   9.767  11.238  0.00  0.00    +0.000 NA
ATOM     18  C   UNL     1      52.383   8.524  10.930  0.00  0.00    +0.000 A 
ATOM     19  N   UNL     1      51.468   7.536  11.191  0.00  0.00    +0.000 N 
ATOM     20  C   UNL     1      50.284   7.770  11.857  0.00  0.00    +0.000 A 
ATOM     21  O   UNL     1      49.531   6.849  12.147  0.00  0.00    +0.000 OA
ATOM     22  C   UNL     1      50.050   9.158  12.200  0.00  0.00    +0.000 A 
ATOM     23  H   UNL     1      51.656   6.576  10.942  0.00  0.00    +0.000 HD
ENDBRANCH  10  13
ENDBRANCH   8   9
ENDBRANCH   4   8
BRANCH   7  24
ATOM     24  C   UNL     1      44.625   3.196  10.604  0.00  0.00    +0.000 C 
BRANCH  24  25
ATOM     25  N   UNL     1      44.357   3.297   9.173  0.00  0.00    +0.000 N 
ATOM     26  H   UNL     1      43.426   2.955   8.939  0.00  0.00    +0.000 HD
BRANCH  25  27
ATOM     27  C   UNL     1      45.285   2.799   8.250  0.00  0.00    +0.000 A 
ATOM     28  C   UNL     1      45.777   3.519   7.154  0.00  0.00    +0.000 A 
ATOM     29  C   UNL     1      46.760   2.972   6.318  0.00  0.00    +0.000 A 
ATOM     30  C   UNL     1      47.254   1.701   6.574  0.00  0.00    +0.000 A 
ATOM     31  F   UNL     1      48.195   1.184   5.775  0.00  0.00    +0.000 F 
ATOM     32  C   UNL     1      46.788   0.966   7.653  0.00  0.00    +0.000 A 
ATOM     33  C   UNL     1      45.817   1.520   8.491  0.00  0.00    +0.000 A 
ENDBRANCH  25  27
ENDBRANCH  24  25
ENDBRANCH   7  24
TORSDOF 6
ENDMDL
MODEL 8
REMARK VINA RESULT:    -7.111      3.053      4.364
REMARK INTER + INTRA:         -10.487
REMARK INTER:                  -9.486
REMARK INTRA:                  -1.001
REMARK UNBOUND:                -0.882
REMARK  Name = 
REMARK  7 active torsions:
REMARK  status: ('A' for Active; 'I' for Inactive)
REMARK    1  A    between atoms: C_1  and  C_2
REMARK    2  A    between atoms: C_4  and  C_5
REMARK    3  A    between atoms: C_5  and  N_6
REMARK    4  A    between atoms: C_7  and  C_9
REMARK    5  A    between atoms: C_21  and  C_22
REMARK    6  A    between atoms: C_22  and  N_23
REMARK    7  A    between atoms: N_23  and  C_24
REMARK                            x       y       z     vdW  Elec       q    Type
REMARK                         _______ _______ _______ _____ _____    ______ ____
ROOT
ATOM      1  C   UNL     1      44.288   7.025  11.109  0.00  0.00    +0.000 C 
ATOM      2  C   UNL     1      44.982   5.900  11.819  0.00  0.00    +0.000 A 
ATOM      3  N   UNL     1      45.941   6.290  12.698  0.00  0.00    +0.000 NA
ATOM      4  C   UNL     1      46.616   5.340  13.392  0.00  0.00    +0.000 A 
ATOM      5  C   UNL     1      46.350   3.986  13.243  0.00  0.00    +0.000 A 
ATOM      6  C   UNL     1      45.376   3.596  12.326  0.00  0.00    +0.000 A 
ATOM      7  C   UNL     1      44.659   4.556  11.596  0.00  0.00    +0.000 A 
ENDROOT
BRANCH   4   8
ATOM      8  C   UNL     1      47.672   5.816  14.358  0.00  0.00    +0.000 C 
BRANCH   8   9
ATOM      9  N   UNL     1      48.692   6.606  13.711  0.00  0.00    +0.000 N 
ATOM     10  C   UNL     1      48.704   7.976  13.756  0.00  0.00    +0.000 C 
ATOM     11  O   UNL     1      47.839   8.613  14.349  0.00  0.00    +0.000 OA
ATOM     12  H   UNL     1      49.279   6.113  13.043  0.00  0.00    +0.000 HD
BRANCH  10  13
ATOM     13  C   UNL     1      49.849   8.647  13.124  0.00  0.00    +0.000 A 
ATOM     14  C   UNL     1      49.639   9.439  12.000  0.00  0.00    +0.000 A 
ATOM     15  S   UNL     1      51.056  10.182  11.412  0.00  0.00    +0.000 S 
ATOM     16  C   UNL     1      52.009   9.442  12.612  0.00  0.00    +0.000 A 
ATOM     17  N   UNL     1      53.352   9.648  12.661  0.00  0.00    +0.000 NA
ATOM     18  C   UNL     1      53.957   9.005  13.602  0.00  0.00    +0.000 A 
ATOM     19  N   UNL     1      53.337   8.178  14.504  0.00  0.00    +0.000 N 
ATOM     20  C   UNL     1      51.973   7.978  14.521  0.00  0.00    +0.000 A 
ATOM     21  O   UNL     1      51.447   7.300  15.395  0.00  0.00    +0.000 OA
ATOM     22  C   UNL     1      51.251   8.657  13.465  0.00  0.00    +0.000 A 
ATOM     23  H   UNL     1      53.864   7.717  15.232  0.00  0.00    +0.000 HD
ENDBRANCH  10  13
ENDBRANCH   8   9
ENDBRANCH   4   8
BRANCH   7  24
ATOM     24  C   UNL     1      43.598   4.109  10.617  0.00  0.00    +0.000 C 
BRANCH  24  25
ATOM     25  N   UNL     1      44.012   4.419   9.253  0.00  0.00    +0.000 N 
ATOM     26  H   UNL     1      43.210   4.553   8.638  0.00  0.00    +0.000 HD
BRANCH  25  27
ATOM     27  C   UNL     1      44.966   3.620   8.611  0.00  0.00    +0.000 A 
ATOM     28  C   UNL     1      45.977   4.109   7.774  0.00  0.00    +0.000 A 
ATOM     29  C   UNL     1      46.937   3.247   7.228  0.00  0.00    +0.000 A 
ATOM     30  C   UNL     1      46.891   1.890   7.516  0.00  0.00    +0.000 A 
ATOM     31  F   UNL     1      47.812   1.071   6.995  0.00  0.00    +0.000 F 
ATOM     32  C   UNL     1      45.904   1.377   8.344  0.00  0.00    +0.000 A 
ATOM     33  C   UNL     1      44.955   2.242   8.895  0.00  0.00    +0.000 A 
ENDBRANCH  25  27
ENDBRANCH  24  25
ENDBRANCH   7  24
TORSDOF 6
ENDMDL
MODEL 9
REMARK VINA RESULT:    -7.082      4.382      6.018
REMARK INTER + INTRA:         -10.449
REMARK INTER:                  -9.672
REMARK INTRA:                  -0.777
REMARK UNBOUND:                -0.882
REMARK  Name = 
REMARK  7 active torsions:
REMARK  status: ('A' for Active; 'I' for Inactive)
REMARK    1  A    between atoms: C_1  and  C_2
REMARK    2  A    between atoms: C_4  and  C_5
REMARK    3  A    between atoms: C_5  and  N_6
REMARK    4  A    between atoms: C_7  and  C_9
REMARK    5  A    between atoms: C_21  and  C_22
REMARK    6  A    between atoms: C_22  and  N_23
REMARK    7  A    between atoms: N_23  and  C_24
REMARK                            x       y       z     vdW  Elec       q    Type
REMARK                         _______ _______ _______ _____ _____    ______ ____
ROOT
ATOM      1  C   UNL     1      47.361   8.859  12.907  0.00  0.00    +0.000 C 
ATOM      2  C   UNL     1      46.472   7.650  12.877  0.00  0.00    +0.000 A 
ATOM      3  N   UNL     1      46.918   6.601  13.614  0.00  0.00    +0.000 NA
ATOM      4  C   UNL     1      46.176   5.466  13.651  0.00  0.00    +0.000 A 
ATOM      5  C   UNL     1      44.970   5.350  12.973  0.00  0.00    +0.000 A 
ATOM      6  C   UNL     1      44.530   6.426  12.206  0.00  0.00    +0.000 A 
ATOM      7  C   UNL     1      45.276   7.613  12.151  0.00  0.00    +0.000 A 
ENDROOT
BRANCH   4   8
ATOM      8  C   UNL     1      46.706   4.325  14.483  0.00  0.00    +0.000 C 
BRANCH   8   9
ATOM      9  N   UNL     1      47.394   4.782  15.667  0.00  0.00    +0.000 N 
ATOM     10  C   UNL     1      47.240   4.179  16.888  0.00  0.00    +0.000 C 
ATOM     11  O   UNL     1      46.500   3.214  17.046  0.00  0.00    +0.000 OA
ATOM     12  H   UNL     1      47.830   5.698  15.602  0.00  0.00    +0.000 HD
BRANCH  10  13
ATOM     13  C   UNL     1      48.065   4.697  17.988  0.00  0.00    +0.000 A 
ATOM     14  C   UNL     1      47.525   5.632  18.864  0.00  0.00    +0.000 A 
ATOM     15  S   UNL     1      48.591   6.100  20.109  0.00  0.00    +0.000 S 
ATOM     16  C   UNL     1      49.828   5.103  19.501  0.00  0.00    +0.000 A 
ATOM     17  N   UNL     1      51.045   5.053  20.107  0.00  0.00    +0.000 NA
ATOM     18  C   UNL     1      51.899   4.279  19.526  0.00  0.00    +0.000 A 
ATOM     19  N   UNL     1      51.642   3.544  18.397  0.00  0.00    +0.000 N 
ATOM     20  C   UNL     1      50.411   3.527  17.778  0.00  0.00    +0.000 A 
ATOM     21  O   UNL     1      50.197   2.793  16.822  0.00  0.00    +0.000 OA
ATOM     22  C   UNL     1      49.424   4.403  18.376  0.00  0.00    +0.000 A 
ATOM     23  H   UNL     1      52.348   2.940  18.000  0.00  0.00    +0.000 HD
ENDBRANCH  10  13
ENDBRANCH   8   9
ENDBRANCH   4   8
BRANCH   7  24
ATOM     24  C   UNL     1      44.772   8.772  11.322  0.00  0.00    +0.000 C 
BRANCH  24  25
ATOM     25  N   UNL     1      43.332   8.656  11.119  0.00  0.00    +0.000 N 
ATOM     26  H   UNL     1      43.089   7.799  10.624  0.00  0.00    +0.000 HD
BRANCH  25  27
ATOM     27  C   UNL     1      42.611   9.729  10.582  0.00  0.00    +0.000 A 
ATOM     28  C   UNL     1      43.098  10.598   9.596  0.00  0.00    +0.000 A 
ATOM     29  C   UNL     1      42.285  11.604   9.060  0.00  0.00    +0.000 A 
ATOM     30  C   UNL     1      40.979  11.748   9.507  0.00  0.00    +0.000 A 
ATOM     31  F   UNL     1      40.204  12.708   8.990  0.00  0.00    +0.000 F 
ATOM     32  C   UNL     1      40.468  10.902  10.479  0.00  0.00    +0.000 A 
ATOM     33  C   UNL     1      41.279   9.892  11.003  0.00  0.00    +0.000 A 
ENDBRANCH  25  27
ENDBRANCH  24  25
ENDBRANCH   7  24
TORSDOF 6
ENDMDL
