MODEL 1
REMARK VINA RESULT:    -7.873      0.000      0.000
REMARK INTER + INTRA:         -11.765
REMARK INTER:                 -10.634
REMARK INTRA:                  -1.131
REMARK UNBOUND:                -1.131
REMARK  Name = 
REMARK  7 active torsions:
REMARK  status: ('A' for Active; 'I' for Inactive)
REMARK    1  A    between atoms: C_1  and  C_2
REMARK    2  A    between atoms: C_2  and  N_3
REMARK    3  A    between atoms: C_2  and  C_16
REMARK    4  A    between atoms: C_4  and  C_6
REMARK    5  A    between atoms: C_19  and  C_20
REMARK    6  A    between atoms: C_20  and  N_21
REMARK    7  A    between atoms: C_22  and  C_24
REMARK                            x       y       z     vdW  Elec       q    Type
REMARK                         _______ _______ _______ _____ _____    ______ ____
ROOT
ATOM      1  C   UNL     1      48.000   8.846  12.905  0.00  0.00    +0.000 C 
ATOM      2  C   UNL     1      47.348   7.768  13.781  0.00  0.00    +0.000 C 
ENDROOT
BRANCH   2   3
ATOM      3  C   UNL     1      46.443   6.868  12.946  0.00  0.00    +0.000 A 
ATOM      4  C   UNL     1      46.593   5.475  13.009  0.00  0.00    +0.000 A 
ATOM      5  C   UNL     1      45.752   4.624  12.276  0.00  0.00    +0.000 A 
ATOM      6  C   UNL     1      44.751   5.147  11.442  0.00  0.00    +0.000 A 
ATOM      7  C   UNL     1      44.592   6.532  11.398  0.00  0.00    +0.000 A 
ATOM      8  C   UNL     1      45.428   7.381  12.128  0.00  0.00    +0.000 A 
BRANCH   6   9
ATOM      9  C   UNL     1      43.883   4.288  10.559  0.00  0.00    +0.000 C 
BRANCH   9  10
ATOM     10  N   UNL     1      44.609   3.375   9.720  0.00  0.00    +0.000 N 
ATOM     11  C   UNL     1      45.381   3.828   8.665  0.00  0.00    +0.000 C 
ATOM     12  O   UNL     1      45.497   5.023   8.375  0.00  0.00    +0.000 OA
ATOM     13  H   UNL     1      44.805   2.428  10.035  0.00  0.00    +0.000 HD
BRANCH  11  14
ATOM     14  C   UNL     1      46.092   2.764   7.889  0.00  0.00    +0.000 A 
ATOM     15  C   UNL     1      46.725   3.078   6.687  0.00  0.00    +0.000 A 
ATOM     16  C   UNL     1      47.354   2.054   5.983  0.00  0.00    +0.000 A 
ATOM     17  C   UNL     1      47.334   0.762   6.497  0.00  0.00    +0.000 A 
ATOM     18  C   UNL     1      46.682   0.541   7.701  0.00  0.00    +0.000 A 
ATOM     19  N   UNL     1      46.063   1.509   8.414  0.00  0.00    +0.000 NA
ENDBRANCH  11  14
ENDBRANCH   9  10
ENDBRANCH   6   9
ENDBRANCH   2   3
BRANCH   2  20
ATOM     20  N   UNL     1      48.321   6.995  14.535  0.00  0.00    +0.000 N 
ATOM     21  C   UNL     1      48.778   7.398  15.775  0.00  0.00    +0.000 C 
ATOM     22  O   UNL     1      48.419   8.436  16.307  0.00  0.00    +0.000 OA
ATOM     23  H   UNL     1      48.842   6.279  14.045  0.00  0.00    +0.000 HD
BRANCH  21  24
ATOM     24  C   UNL     1      49.692   6.477  16.478  0.00  0.00    +0.000 A 
ATOM     25  C   UNL     1      50.971   6.901  16.813  0.00  0.00    +0.000 A 
ATOM     26  S   UNL     1      51.920   5.689  17.553  0.00  0.00    +0.000 S 
ATOM     27  C   UNL     1      50.662   4.552  17.419  0.00  0.00    +0.000 A 
ATOM     28  N   UNL     1      50.839   3.264  17.818  0.00  0.00    +0.000 NA
ATOM     29  C   UNL     1      49.821   2.499  17.609  0.00  0.00    +0.000 A 
ATOM     30  N   UNL     1      48.632   2.911  17.059  0.00  0.00    +0.000 N 
ATOM     31  C   UNL     1      48.386   4.215  16.709  0.00  0.00    +0.000 A 
ATOM     32  O   UNL     1      47.278   4.582  16.315  0.00  0.00    +0.000 OA
ATOM     33  C   UNL     1      49.519   5.102  16.866  0.00  0.00    +0.000 A 
ATOM     34  H   UNL     1      47.864   2.264  16.954  0.00  0.00    +0.000 HD
ENDBRANCH  21  24
ENDBRANCH   2  20
TORSDOF 6
ENDMDL
MODEL 2
REMARK VINA RESULT:    -7.862      2.225      4.093
REMARK INTER + INTRA:         -11.751
REMARK INTER:                 -10.486
REMARK INTRA:                  -1.265
REMARK UNBOUND:                -1.131
REMARK  Name = 
REMARK  7 active torsions:
REMARK  status: ('A' for Active; 'I' for Inactive)
REMARK    1  A    between atoms: C_1  and  C_2
REMARK    2  A    between atoms: C_2  and  N_3
REMARK    3  A    between atoms: C_2  and  C_16
REMARK    4  A    between atoms: C_4  and  C_6
REMARK    5  A    between atoms: C_19  and  C_20
REMARK    6  A    between atoms: C_20  and  N_21
REMARK    7  A    between atoms: C_22  and  C_24
REMARK                            x       y       z     vdW  Elec       q    Type
REMARK                         _______ _______ _______ _____ _____    ______ ____
ROOT
ATOM      1  C   UNL     1      47.001   4.302  16.030  0.00  0.00    +0.000 C 
ATOM      2  C   UNL     1      47.589   5.044  14.822  0.00  0.00    +0.000 C 
ENDROOT
BRANCH   2   3
ATOM      3  C   UNL     1      46.719   4.839  13.586  0.00  0.00    +0.000 A 
ATOM      4  C   UNL     1      46.226   3.562  13.284  0.00  0.00    +0.000 A 
ATOM      5  C   UNL     1      45.396   3.353  12.170  0.00  0.00    +0.000 A 
ATOM      6  C   UNL     1      45.057   4.415  11.318  0.00  0.00    +0.000 A 
ATOM      7  C   UNL     1      45.533   5.688  11.634  0.00  0.00    +0.000 A 
ATOM      8  C   UNL     1      46.358   5.898  12.742  0.00  0.00    +0.000 A 
BRANCH   6   9
ATOM      9  C   UNL     1      44.251   4.234  10.057  0.00  0.00    +0.000 C 
BRANCH   9  10
ATOM     10  N   UNL     1      44.867   3.383   9.076  0.00  0.00    +0.000 N 
ATOM     11  C   UNL     1      45.822   3.869   8.202  0.00  0.00    +0.000 C 
ATOM     12  O   UNL     1      46.205   5.043   8.200  0.00  0.00    +0.000 OA
ATOM     13  H   UNL     1      44.835   2.371   9.178  0.00  0.00    +0.000 HD
BRANCH  11  14
ATOM     14  C   UNL     1      46.386   2.864   7.247  0.00  0.00    +0.000 A 
ATOM     15  C   UNL     1      46.601   3.207   5.913  0.00  0.00    +0.000 A 
ATOM     16  C   UNL     1      47.103   2.236   5.051  0.00  0.00    +0.000 A 
ATOM     17  C   UNL     1      47.376   0.964   5.544  0.00  0.00    +0.000 A 
ATOM     18  C   UNL     1      47.135   0.711   6.886  0.00  0.00    +0.000 A 
ATOM     19  N   UNL     1      46.650   1.628   7.753  0.00  0.00    +0.000 NA
ENDBRANCH  11  14
ENDBRANCH   9  10
ENDBRANCH   6   9
ENDBRANCH   2   3
BRANCH   2  20
ATOM     20  N   UNL     1      47.816   6.455  15.088  0.00  0.00    +0.000 N 
ATOM     21  C   UNL     1      49.006   6.922  15.610  0.00  0.00    +0.000 C 
ATOM     22  O   UNL     1      49.933   6.186  15.907  0.00  0.00    +0.000 OA
ATOM     23  H   UNL     1      47.012   7.069  15.110  0.00  0.00    +0.000 HD
BRANCH  21  24
ATOM     24  C   UNL     1      49.144   8.386  15.744  0.00  0.00    +0.000 A 
ATOM     25  C   UNL     1      49.314   8.948  17.001  0.00  0.00    +0.000 A 
ATOM     26  S   UNL     1      49.382  10.654  16.983  0.00  0.00    +0.000 S 
ATOM     27  C   UNL     1      49.153  10.696  15.298  0.00  0.00    +0.000 A 
ATOM     28  N   UNL     1      49.050  11.878  14.636  0.00  0.00    +0.000 NA
ATOM     29  C   UNL     1      48.823  11.760  13.370  0.00  0.00    +0.000 A 
ATOM     30  N   UNL     1      48.716  10.565  12.703  0.00  0.00    +0.000 N 
ATOM     31  C   UNL     1      48.884   9.350  13.319  0.00  0.00    +0.000 A 
ATOM     32  O   UNL     1      48.886   8.296  12.682  0.00  0.00    +0.000 OA
ATOM     33  C   UNL     1      49.077   9.426  14.752  0.00  0.00    +0.000 A 
ATOM     34  H   UNL     1      48.570  10.547  11.704  0.00  0.00    +0.000 HD
ENDBRANCH  21  24
ENDBRANCH   2  20
TORSDOF 6
ENDMDL
MODEL 3
REMARK VINA RESULT:    -7.807      2.476      3.743
REMARK INTER + INTRA:         -11.676
REMARK INTER:                 -10.593
REMARK INTRA:                  -1.083
REMARK UNBOUND:                -1.131
REMARK  Name = 
REMARK  7 active torsions:
REMARK  status: ('A' for Active; 'I' for Inactive)
REMARK    1  A    between atoms: C_1  and  C_2
REMARK    2  A    between atoms: C_2  and  N_3
REMARK    3  A    between atoms: C_2  and  C_16
REMARK    4  A    between atoms: C_4  and  C_6
REMARK    5  A    between atoms: C_19  and  C_20
REMARK    6  A    between atoms: C_20  and  N_21
REMARK    7  A    between atoms: C_22  and  C_24
REMARK                            x       y       z     vdW  Elec       q    Type
REMARK                         _______ _______ _______ _____ _____    ______ ____
ROOT
ATOM      1  C   UNL     1      47.154   4.237  15.989  0.00  0.00    +0.000 C 
ATOM      2  C   UNL     1      47.643   5.106  14.822  0.00  0.00    +0.000 C 
ENDROOT
BRANCH   2   3
ATOM      3  C   UNL     1      46.767   4.899  13.590  0.00  0.00    +0.000 A 
ATOM      4  C   UNL     1      46.238   3.630  13.315  0.00  0.00    +0.000 A 
ATOM      5  C   UNL     1      45.403   3.419  12.206  0.00  0.00    +0.000 A 
ATOM      6  C   UNL     1      45.094   4.472  11.331  0.00  0.00    +0.000 A 
ATOM      7  C   UNL     1      45.606   5.737  11.619  0.00  0.00    +0.000 A 
ATOM      8  C   UNL     1      46.437   5.948  12.723  0.00  0.00    +0.000 A 
BRANCH   6   9
ATOM      9  C   UNL     1      44.284   4.286  10.074  0.00  0.00    +0.000 C 
BRANCH   9  10
ATOM     10  N   UNL     1      44.890   3.421   9.099  0.00  0.00    +0.000 N 
ATOM     11  C   UNL     1      45.835   3.894   8.207  0.00  0.00    +0.000 C 
ATOM     12  O   UNL     1      46.216   5.068   8.184  0.00  0.00    +0.000 OA
ATOM     13  H   UNL     1      44.860   2.411   9.216  0.00  0.00    +0.000 HD
BRANCH  11  14
ATOM     14  C   UNL     1      46.389   2.875   7.262  0.00  0.00    +0.000 A 
ATOM     15  C   UNL     1      46.615   3.207   5.927  0.00  0.00    +0.000 A 
ATOM     16  C   UNL     1      47.108   2.223   5.073  0.00  0.00    +0.000 A 
ATOM     17  C   UNL     1      47.361   0.951   5.576  0.00  0.00    +0.000 A 
ATOM     18  C   UNL     1      47.110   0.709   6.918  0.00  0.00    +0.000 A 
ATOM     19  N   UNL     1      46.634   1.639   7.778  0.00  0.00    +0.000 NA
ENDBRANCH  11  14
ENDBRANCH   9  10
ENDBRANCH   6   9
ENDBRANCH   2   3
BRANCH   2  20
ATOM     20  N   UNL     1      47.743   6.512  15.175  0.00  0.00    +0.000 N 
ATOM     21  C   UNL     1      48.952   7.111  15.471  0.00  0.00    +0.000 C 
ATOM     22  O   UNL     1      50.009   6.499  15.482  0.00  0.00    +0.000 OA
ATOM     23  H   UNL     1      46.895   6.999  15.434  0.00  0.00    +0.000 HD
BRANCH  21  24
ATOM     24  C   UNL     1      48.931   8.565  15.720  0.00  0.00    +0.000 A 
ATOM     25  C   UNL     1      49.402   9.437  14.747  0.00  0.00    +0.000 A 
ATOM     26  S   UNL     1      49.374  11.075  15.227  0.00  0.00    +0.000 S 
ATOM     27  C   UNL     1      48.763  10.669  16.761  0.00  0.00    +0.000 A 
ATOM     28  N   UNL     1      48.561  11.622  17.709  0.00  0.00    +0.000 NA
ATOM     29  C   UNL     1      48.145  11.165  18.842  0.00  0.00    +0.000 A 
ATOM     30  N   UNL     1      47.889   9.842  19.106  0.00  0.00    +0.000 N 
ATOM     31  C   UNL     1      48.011   8.857  18.158  0.00  0.00    +0.000 A 
ATOM     32  O   UNL     1      47.676   7.693  18.387  0.00  0.00    +0.000 OA
ATOM     33  C   UNL     1      48.535   9.309  16.887  0.00  0.00    +0.000 A 
ATOM     34  H   UNL     1      47.534   9.558  20.008  0.00  0.00    +0.000 HD
ENDBRANCH  21  24
ENDBRANCH   2  20
TORSDOF 6
ENDMDL
MODEL 4
REMARK VINA RESULT:    -7.559      4.035      4.742
REMARK INTER + INTRA:         -11.342
REMARK INTER:                 -10.256
REMARK INTRA:                  -1.086
REMARK UNBOUND:                -1.131
REMARK  Name = 
REMARK  7 active torsions:
REMARK  status: ('A' for Active; 'I' for Inactive)
REMARK    1  A    between atoms: C_1  and  C_2
REMARK    2  A    between atoms: C_2  and  N_3
REMARK    3  A    between atoms: C_2  and  C_16
REMARK    4  A    between atoms: C_4  and  C_6
REMARK    5  A    between atoms: C_19  and  C_20
REMARK    6  A    between atoms: C_20  and  N_21
REMARK    7  A    between atoms: C_22  and  C_24
REMARK                            x       y       z     vdW  Elec       q    Type
REMARK                         _______ _______ _______ _____ _____    ______ ____
ROOT
ATOM      1  C   UNL     1      44.864   9.892  12.178  0.00  0.00    +0.000 C 
ATOM      2  C   UNL     1      45.970   8.883  12.515  0.00  0.00    +0.000 C 
ENDROOT
BRANCH   2   3
ATOM      3  C   UNL     1      45.517   7.461  12.204  0.00  0.00    +0.000 A 
ATOM      4  C   UNL     1      46.373   6.382  12.467  0.00  0.00    +0.000 A 
ATOM      5  C   UNL     1      45.968   5.061  12.220  0.00  0.00    +0.000 A 
ATOM      6  C   UNL     1      44.700   4.787  11.681  0.00  0.00    +0.000 A 
ATOM      7  C   UNL     1      43.844   5.862  11.440  0.00  0.00    +0.000 A 
ATOM      8  C   UNL     1      44.246   7.177  11.686  0.00  0.00    +0.000 A 
BRANCH   6   9
ATOM      9  C   UNL     1      44.247   3.400  11.306  0.00  0.00    +0.000 C 
BRANCH   9  10
ATOM     10  N   UNL     1      45.032   2.778  10.275  0.00  0.00    +0.000 N 
ATOM     11  C   UNL     1      44.995   3.236   8.970  0.00  0.00    +0.000 C 
ATOM     12  O   UNL     1      44.300   4.190   8.606  0.00  0.00    +0.000 OA
ATOM     13  H   UNL     1      45.826   2.190  10.515  0.00  0.00    +0.000 HD
BRANCH  11  14
ATOM     14  C   UNL     1      45.875   2.500   8.009  0.00  0.00    +0.000 A 
ATOM     15  C   UNL     1      46.334   3.132   6.854  0.00  0.00    +0.000 A 
ATOM     16  C   UNL     1      47.130   2.404   5.972  0.00  0.00    +0.000 A 
ATOM     17  C   UNL     1      47.444   1.083   6.271  0.00  0.00    +0.000 A 
ATOM     18  C   UNL     1      46.947   0.536   7.445  0.00  0.00    +0.000 A 
ATOM     19  N   UNL     1      46.173   1.210   8.326  0.00  0.00    +0.000 NA
ENDBRANCH  11  14
ENDBRANCH   9  10
ENDBRANCH   6   9
ENDBRANCH   2   3
BRANCH   2  20
ATOM     20  N   UNL     1      47.231   9.197  11.864  0.00  0.00    +0.000 N 
ATOM     21  C   UNL     1      48.161  10.045  12.433  0.00  0.00    +0.000 C 
ATOM     22  O   UNL     1      47.977  10.608  13.501  0.00  0.00    +0.000 OA
ATOM     23  H   UNL     1      47.326   8.976  10.881  0.00  0.00    +0.000 HD
BRANCH  21  24
ATOM     24  C   UNL     1      49.441  10.206  11.716  0.00  0.00    +0.000 A 
ATOM     25  C   UNL     1      49.821  11.462  11.261  0.00  0.00    +0.000 A 
ATOM     26  S   UNL     1      51.289  11.456  10.389  0.00  0.00    +0.000 S 
ATOM     27  C   UNL     1      51.445   9.772  10.564  0.00  0.00    +0.000 A 
ATOM     28  N   UNL     1      52.478   9.102   9.986  0.00  0.00    +0.000 NA
ATOM     29  C   UNL     1      52.442   7.822  10.156  0.00  0.00    +0.000 A 
ATOM     30  N   UNL     1      51.479   7.155  10.872  0.00  0.00    +0.000 N 
ATOM     31  C   UNL     1      50.461   7.798  11.530  0.00  0.00    +0.000 A 
ATOM     32  O   UNL     1      49.670   7.188  12.252  0.00  0.00    +0.000 OA
ATOM     33  C   UNL     1      50.420   9.230  11.320  0.00  0.00    +0.000 A 
ATOM     34  H   UNL     1      51.531   6.153  10.991  0.00  0.00    +0.000 HD
ENDBRANCH  21  24
ENDBRANCH   2  20
TORSDOF 6
ENDMDL
MODEL 5
REMARK VINA RESULT:    -7.398      4.317      7.214
REMARK INTER + INTRA:         -11.123
REMARK INTER:                 -10.172
REMARK INTRA:                  -0.951
REMARK UNBOUND:                -1.131
REMARK  Name = 
REMARK  7 active torsions:
REMARK  status: ('A' for Active; 'I' for Inactive)
REMARK    1  A    between atoms: C_1  and  C_2
REMARK    2  A    between atoms: C_2  and  N_3
REMARK    3  A    between atoms: C_2  and  C_16
REMARK    4  A    between atoms: C_4  and  C_6
REMARK    5  A    between atoms: C_19  and  C_20
REMARK    6  A    between atoms: C_20  and  N_21
REMARK    7  A    between atoms: C_22  and  C_24
REMARK                            x       y       z     vdW  Elec       q    Type
REMARK                         _______ _______ _______ _____ _____    ______ ____
ROOT
ATOM      1  C   UNL     1      45.047   4.114  12.843  0.00  0.00    +0.000 C 
ATOM      2  C   UNL     1      46.161   5.148  13.058  0.00  0.00    +0.000 C 
ENDROOT
BRANCH   2   3
ATOM      3  C   UNL     1      45.699   6.536  12.629  0.00  0.00    +0.000 A 
ATOM      4  C   UNL     1      46.382   7.672  13.087  0.00  0.00    +0.000 A 
ATOM      5  C   UNL     1      45.997   8.960  12.681  0.00  0.00    +0.000 A 
ATOM      6  C   UNL     1      44.903   9.144  11.822  0.00  0.00    +0.000 A 
ATOM      7  C   UNL     1      44.239   8.011  11.352  0.00  0.00    +0.000 A 
ATOM      8  C   UNL     1      44.622   6.729  11.754  0.00  0.00    +0.000 A 
BRANCH   6   9
ATOM      9  C   UNL     1      44.385  10.504  11.429  0.00  0.00    +0.000 C 
BRANCH   9  10
ATOM     10  N   UNL     1      43.167  10.888  12.087  0.00  0.00    +0.000 N 
ATOM     11  C   UNL     1      41.984  11.028  11.383  0.00  0.00    +0.000 C 
ATOM     12  O   UNL     1      41.893  10.839  10.166  0.00  0.00    +0.000 OA
ATOM     13  H   UNL     1      43.072  10.792  13.095  0.00  0.00    +0.000 HD
BRANCH  11  14
ATOM     14  C   UNL     1      40.794  11.418  12.202  0.00  0.00    +0.000 A 
ATOM     15  C   UNL     1      39.523  10.963  11.854  0.00  0.00    +0.000 A 
ATOM     16  C   UNL     1      38.439  11.369  12.628  0.00  0.00    +0.000 A 
ATOM     17  C   UNL     1      38.655  12.205  13.718  0.00  0.00    +0.000 A 
ATOM     18  C   UNL     1      39.954  12.607  13.993  0.00  0.00    +0.000 A 
ATOM     19  N   UNL     1      41.032  12.232  13.267  0.00  0.00    +0.000 NA
ENDBRANCH  11  14
ENDBRANCH   9  10
ENDBRANCH   6   9
ENDBRANCH   2   3
BRANCH   2  20
ATOM     20  N   UNL     1      46.666   5.150  14.421  0.00  0.00    +0.000 N 
ATOM     21  C   UNL     1      47.317   4.060  14.965  0.00  0.00    +0.000 C 
ATOM     22  O   UNL     1      47.488   3.018  14.353  0.00  0.00    +0.000 OA
ATOM     23  H   UNL     1      46.332   5.869  15.050  0.00  0.00    +0.000 HD
BRANCH  21  24
ATOM     24  C   UNL     1      47.866   4.225  16.326  0.00  0.00    +0.000 A 
ATOM     25  C   UNL     1      47.510   3.328  17.324  0.00  0.00    +0.000 A 
ATOM     26  S   UNL     1      48.173   3.706  18.850  0.00  0.00    +0.000 S 
ATOM     27  C   UNL     1      48.929   5.099  18.233  0.00  0.00    +0.000 A 
ATOM     28  N   UNL     1      49.628   5.934  19.047  0.00  0.00    +0.000 NA
ATOM     29  C   UNL     1      50.103   6.978  18.455  0.00  0.00    +0.000 A 
ATOM     30  N   UNL     1      49.963   7.250  17.116  0.00  0.00    +0.000 N 
ATOM     31  C   UNL     1      49.327   6.401  16.247  0.00  0.00    +0.000 A 
ATOM     32  O   UNL     1      49.304   6.614  15.033  0.00  0.00    +0.000 OA
ATOM     33  C   UNL     1      48.722   5.244  16.872  0.00  0.00    +0.000 A 
ATOM     34  H   UNL     1      50.389   8.072  16.713  0.00  0.00    +0.000 HD
ENDBRANCH  21  24
ENDBRANCH   2  20
TORSDOF 6
ENDMDL
MODEL 6
REMARK VINA RESULT:    -6.995      4.376      9.907
REMARK INTER + INTRA:         -10.579
REMARK INTER:                  -9.635
REMARK INTRA:                  -0.944
REMARK UNBOUND:                -1.131
REMARK  Name = 
REMARK  7 active torsions:
REMARK  status: ('A' for Active; 'I' for Inactive)
REMARK    1  A    between atoms: C_1  and  C_2
REMARK    2  A    between atoms: C_2  and  N_3
REMARK    3  A    between atoms: C_2  and  C_16
REMARK    4  A    between atoms: C_4  and  C_6
REMARK    5  A    between atoms: C_19  and  C_20
REMARK    6  A    between atoms: C_20  and  N_21
REMARK    7  A    between atoms: C_22  and  C_24
REMARK                            x       y       z     vdW  Elec       q    Type
REMARK                         _______ _______ _______ _____ _____    ______ ____
ROOT
ATOM      1  C   UNL     1      47.997   4.837  19.136  0.00  0.00    +0.000 C 
ATOM      2  C   UNL     1      48.894   5.133  17.927  0.00  0.00    +0.000 C 
ENDROOT
BRANCH   2   3
ATOM      3  C   UNL     1      49.932   4.031  17.741  0.00  0.00    +0.000 A 
ATOM      4  C   UNL     1      49.535   2.768  17.282  0.00  0.00    +0.000 A 
ATOM      5  C   UNL     1      50.475   1.746  17.072  0.00  0.00    +0.000 A 
ATOM      6  C   UNL     1      51.836   1.958  17.339  0.00  0.00    +0.000 A 
ATOM      7  C   UNL     1      52.230   3.223  17.776  0.00  0.00    +0.000 A 
ATOM      8  C   UNL     1      51.296   4.240  17.985  0.00  0.00    +0.000 A 
BRANCH   6   9
ATOM      9  C   UNL     1      52.876   0.873  17.225  0.00  0.00    +0.000 C 
BRANCH   9  10
ATOM     10  N   UNL     1      52.881  -0.062  18.316  0.00  0.00    +0.000 N 
ATOM     11  C   UNL     1      53.905  -0.979  18.472  0.00  0.00    +0.000 C 
ATOM     12  O   UNL     1      54.866  -1.059  17.701  0.00  0.00    +0.000 OA
ATOM     13  H   UNL     1      52.306   0.102  19.139  0.00  0.00    +0.000 HD
BRANCH  11  14
ATOM     14  C   UNL     1      53.783  -1.878  19.662  0.00  0.00    +0.000 A 
ATOM     15  C   UNL     1      52.918  -2.970  19.631  0.00  0.00    +0.000 A 
ATOM     16  C   UNL     1      52.815  -3.768  20.768  0.00  0.00    +0.000 A 
ATOM     17  C   UNL     1      53.575  -3.454  21.890  0.00  0.00    +0.000 A 
ATOM     18  C   UNL     1      54.412  -2.350  21.832  0.00  0.00    +0.000 A 
ATOM     19  N   UNL     1      54.540  -1.554  20.747  0.00  0.00    +0.000 NA
ENDBRANCH  11  14
ENDBRANCH   9  10
ENDBRANCH   6   9
ENDBRANCH   2   3
BRANCH   2  20
ATOM     20  N   UNL     1      48.135   5.362  16.709  0.00  0.00    +0.000 N 
ATOM     21  C   UNL     1      48.670   6.025  15.622  0.00  0.00    +0.000 C 
ATOM     22  O   UNL     1      49.801   6.484  15.619  0.00  0.00    +0.000 OA
ATOM     23  H   UNL     1      47.131   5.241  16.746  0.00  0.00    +0.000 HD
BRANCH  21  24
ATOM     24  C   UNL     1      47.828   6.108  14.413  0.00  0.00    +0.000 A 
ATOM     25  C   UNL     1      47.612   7.339  13.809  0.00  0.00    +0.000 A 
ATOM     26  S   UNL     1      46.557   7.266  12.469  0.00  0.00    +0.000 S 
ATOM     27  C   UNL     1      46.330   5.593  12.673  0.00  0.00    +0.000 A 
ATOM     28  N   UNL     1      45.475   4.900  11.875  0.00  0.00    +0.000 NA
ATOM     29  C   UNL     1      45.361   3.650  12.178  0.00  0.00    +0.000 A 
ATOM     30  N   UNL     1      46.044   3.025  13.191  0.00  0.00    +0.000 N 
ATOM     31  C   UNL     1      46.968   3.670  13.974  0.00  0.00    +0.000 A 
ATOM     32  O   UNL     1      47.645   3.065  14.808  0.00  0.00    +0.000 OA
ATOM     33  C   UNL     1      47.088   5.089  13.716  0.00  0.00    +0.000 A 
ATOM     34  H   UNL     1      45.930   2.035  13.352  0.00  0.00    +0.000 HD
ENDBRANCH  21  24
ENDBRANCH   2  20
TORSDOF 6
ENDMDL
MODEL 7
REMARK VINA RESULT:    -6.958      3.508      5.011
REMARK INTER + INTRA:         -10.530
REMARK INTER:                  -9.475
REMARK INTRA:                  -1.055
REMARK UNBOUND:                -1.131
REMARK  Name = 
REMARK  7 active torsions:
REMARK  status: ('A' for Active; 'I' for Inactive)
REMARK    1  A    between atoms: C_1  and  C_2
REMARK    2  A    between atoms: C_2  and  N_3
REMARK    3  A    between atoms: C_2  and  C_16
REMARK    4  A    between atoms: C_4  and  C_6
REMARK    5  A    between atoms: C_19  and  C_20
REMARK    6  A    between atoms: C_20  and  N_21
REMARK    7  A    between atoms: C_22  and  C_24
REMARK                            x       y       z     vdW  Elec       q    Type
REMARK                         _______ _______ _______ _____ _____    ______ ____
ROOT
ATOM      1  C   UNL     1      45.126   9.683  12.383  0.00  0.00    +0.000 C 
ATOM      2  C   UNL     1      46.084   8.590  12.877  0.00  0.00    +0.000 C 
ENDROOT
BRANCH   2   3
ATOM      3  C   UNL     1      45.602   7.211  12.440  0.00  0.00    +0.000 A 
ATOM      4  C   UNL     1      46.316   6.067  12.825  0.00  0.00    +0.000 A 
ATOM      5  C   UNL     1      45.875   4.784  12.463  0.00  0.00    +0.000 A 
ATOM      6  C   UNL     1      44.717   4.615  11.688  0.00  0.00    +0.000 A 
ATOM      7  C   UNL     1      43.998   5.754  11.325  0.00  0.00    +0.000 A 
ATOM      8  C   UNL     1      44.436   7.032  11.684  0.00  0.00    +0.000 A 
BRANCH   6   9
ATOM      9  C   UNL     1      44.249   3.272  11.190  0.00  0.00    +0.000 C 
BRANCH   9  10
ATOM     10  N   UNL     1      45.051   2.718  10.133  0.00  0.00    +0.000 N 
ATOM     11  C   UNL     1      44.948   3.183   8.835  0.00  0.00    +0.000 C 
ATOM     12  O   UNL     1      44.176   4.086   8.497  0.00  0.00    +0.000 OA
ATOM     13  H   UNL     1      45.892   2.188  10.348  0.00  0.00    +0.000 HD
BRANCH  11  14
ATOM     14  C   UNL     1      45.856   2.522   7.845  0.00  0.00    +0.000 A 
ATOM     15  C   UNL     1      46.325   1.230   8.077  0.00  0.00    +0.000 A 
ATOM     16  C   UNL     1      47.188   0.661   7.144  0.00  0.00    +0.000 A 
ATOM     17  C   UNL     1      47.549   1.391   6.017  0.00  0.00    +0.000 A 
ATOM     18  C   UNL     1      47.032   2.669   5.865  0.00  0.00    +0.000 A 
ATOM     19  N   UNL     1      46.191   3.255   6.747  0.00  0.00    +0.000 NA
ENDBRANCH  11  14
ENDBRANCH   9  10
ENDBRANCH   6   9
ENDBRANCH   2   3
BRANCH   2  20
ATOM     20  N   UNL     1      47.460   8.828  12.472  0.00  0.00    +0.000 N 
ATOM     21  C   UNL     1      48.462   9.085  13.387  0.00  0.00    +0.000 C 
ATOM     22  O   UNL     1      48.258   9.156  14.589  0.00  0.00    +0.000 OA
ATOM     23  H   UNL     1      47.639   9.038  11.498  0.00  0.00    +0.000 HD
BRANCH  21  24
ATOM     24  C   UNL     1      49.832   9.214  12.855  0.00  0.00    +0.000 A 
ATOM     25  C   UNL     1      50.876   8.539  13.474  0.00  0.00    +0.000 A 
ATOM     26  S   UNL     1      52.402   8.857  12.777  0.00  0.00    +0.000 S 
ATOM     27  C   UNL     1      51.720   9.931  11.648  0.00  0.00    +0.000 A 
ATOM     28  N   UNL     1      52.502  10.613  10.770  0.00  0.00    +0.000 NA
ATOM     29  C   UNL     1      51.857  11.432  10.009  0.00  0.00    +0.000 A 
ATOM     30  N   UNL     1      50.496  11.612  10.030  0.00  0.00    +0.000 N 
ATOM     31  C   UNL     1      49.662  10.894  10.849  0.00  0.00    +0.000 A 
ATOM     32  O   UNL     1      48.436  10.997  10.777  0.00  0.00    +0.000 OA
ATOM     33  C   UNL     1      50.343  10.006  11.768  0.00  0.00    +0.000 A 
ATOM     34  H   UNL     1      50.053  12.248   9.382  0.00  0.00    +0.000 HD
ENDBRANCH  21  24
ENDBRANCH   2  20
TORSDOF 6
ENDMDL
MODEL 8
REMARK VINA RESULT:    -6.700      4.479      6.637
REMARK INTER + INTRA:         -10.180
REMARK INTER:                  -9.096
REMARK INTRA:                  -1.084
REMARK UNBOUND:                -1.131
REMARK  Name = 
REMARK  7 active torsions:
REMARK  status: ('A' for Active; 'I' for Inactive)
REMARK    1  A    between atoms: C_1  and  C_2
REMARK    2  A    between atoms: C_2  and  N_3
REMARK    3  A    between atoms: C_2  and  C_16
REMARK    4  A    between atoms: C_4  and  C_6
REMARK    5  A    between atoms: C_19  and  C_20
REMARK    6  A    between atoms: C_20  and  N_21
REMARK    7  A    between atoms: C_22  and  C_24
REMARK                            x       y       z     vdW  Elec       q    Type
REMARK                         _______ _______ _______ _____ _____    ______ ____
ROOT
ATOM      1  C   UNL     1      45.215   4.478  12.586  0.00  0.00    +0.000 C 
ATOM      2  C   UNL     1      46.175   5.669  12.720  0.00  0.00    +0.000 C 
ENDROOT
BRANCH   2   3
ATOM      3  C   UNL     1      45.499   6.960  12.272  0.00  0.00    +0.000 A 
ATOM      4  C   UNL     1      44.379   6.907  11.432  0.00  0.00    +0.000 A 
ATOM      5  C   UNL     1      43.719   8.080  11.031  0.00  0.00    +0.000 A 
ATOM      6  C   UNL     1      44.179   9.340  11.446  0.00  0.00    +0.000 A 
ATOM      7  C   UNL     1      45.282   9.387  12.299  0.00  0.00    +0.000 A 
ATOM      8  C   UNL     1      45.939   8.221  12.699  0.00  0.00    +0.000 A 
BRANCH   6   9
ATOM      9  C   UNL     1      43.572  10.635  10.972  0.00  0.00    +0.000 C 
BRANCH   9  10
ATOM     10  N   UNL     1      42.180  10.546  10.625  0.00  0.00    +0.000 N 
ATOM     11  C   UNL     1      41.193  10.942  11.510  0.00  0.00    +0.000 C 
ATOM     12  O   UNL     1      41.432  11.390  12.636  0.00  0.00    +0.000 OA
ATOM     13  H   UNL     1      41.894  10.464   9.652  0.00  0.00    +0.000 HD
BRANCH  11  14
ATOM     14  C   UNL     1      39.790  10.807  11.006  0.00  0.00    +0.000 A 
ATOM     15  C   UNL     1      39.377  11.519   9.881  0.00  0.00    +0.000 A 
ATOM     16  C   UNL     1      38.056  11.384   9.459  0.00  0.00    +0.000 A 
ATOM     17  C   UNL     1      37.199  10.547  10.165  0.00  0.00    +0.000 A 
ATOM     18  C   UNL     1      37.696   9.874  11.271  0.00  0.00    +0.000 A 
ATOM     19  N   UNL     1      38.971   9.978  11.710  0.00  0.00    +0.000 NA
ENDBRANCH  11  14
ENDBRANCH   9  10
ENDBRANCH   6   9
ENDBRANCH   2   3
BRANCH   2  20
ATOM     20  N   UNL     1      46.730   5.792  14.058  0.00  0.00    +0.000 N 
ATOM     21  C   UNL     1      48.071   6.040  14.277  0.00  0.00    +0.000 C 
ATOM     22  O   UNL     1      48.881   6.146  13.370  0.00  0.00    +0.000 OA
ATOM     23  H   UNL     1      46.173   5.461  14.835  0.00  0.00    +0.000 HD
BRANCH  21  24
ATOM     24  C   UNL     1      48.490   6.238  15.679  0.00  0.00    +0.000 A 
ATOM     25  C   UNL     1      49.224   7.364  16.024  0.00  0.00    +0.000 A 
ATOM     26  S   UNL     1      49.690   7.399  17.666  0.00  0.00    +0.000 S 
ATOM     27  C   UNL     1      48.952   5.895  17.960  0.00  0.00    +0.000 A 
ATOM     28  N   UNL     1      49.032   5.303  19.181  0.00  0.00    +0.000 NA
ATOM     29  C   UNL     1      48.474   4.141  19.246  0.00  0.00    +0.000 A 
ATOM     30  N   UNL     1      47.820   3.528  18.205  0.00  0.00    +0.000 N 
ATOM     31  C   UNL     1      47.654   4.120  16.978  0.00  0.00    +0.000 A 
ATOM     32  O   UNL     1      46.975   3.596  16.093  0.00  0.00    +0.000 OA
ATOM     33  C   UNL     1      48.317   5.399  16.834  0.00  0.00    +0.000 A 
ATOM     34  H   UNL     1      47.377   2.630  18.336  0.00  0.00    +0.000 HD
ENDBRANCH  21  24
ENDBRANCH   2  20
TORSDOF 6
ENDMDL
MODEL 9
REMARK VINA RESULT:    -6.217      4.377      5.745
REMARK INTER + INTRA:          -9.528
REMARK INTER:                  -8.439
REMARK INTRA:                  -1.089
REMARK UNBOUND:                -1.131
REMARK  Name = 
REMARK  7 active torsions:
REMARK  status: ('A' for Active; 'I' for Inactive)
REMARK    1  A    between atoms: C_1  and  C_2
REMARK    2  A    between atoms: C_2  and  N_3
REMARK    3  A    between atoms: C_2  and  C_16
REMARK    4  A    between atoms: C_4  and  C_6
REMARK    5  A    between atoms: C_19  and  C_20
REMARK    6  A    between atoms: C_20  and  N_21
REMARK    7  A    between atoms: C_22  and  C_24
REMARK                            x       y       z     vdW  Elec       q    Type
REMARK                         _______ _______ _______ _____ _____    ______ ____
ROOT
ATOM      1  C   UNL     1      44.944   4.787  12.757  0.00  0.00    +0.000 C 
ATOM      2  C   UNL     1      46.080   5.815  12.843  0.00  0.00    +0.000 C 
ENDROOT
BRANCH   2   3
ATOM      3  C   UNL     1      45.607   7.185  12.369  0.00  0.00    +0.000 A 
ATOM      4  C   UNL     1      44.527   7.282  11.480  0.00  0.00    +0.000 A 
ATOM      5  C   UNL     1      44.052   8.532  11.054  0.00  0.00    +0.000 A 
ATOM      6  C   UNL     1      44.661   9.719  11.491  0.00  0.00    +0.000 A 
ATOM      7  C   UNL     1      45.722   9.619  12.391  0.00  0.00    +0.000 A 
ATOM      8  C   UNL     1      46.196   8.375  12.816  0.00  0.00    +0.000 A 
BRANCH   6   9
ATOM      9  C   UNL     1      44.257  11.083  10.993  0.00  0.00    +0.000 C 
BRANCH   9  10
ATOM     10  N   UNL     1      44.682  11.376   9.652  0.00  0.00    +0.000 N 
ATOM     11  C   UNL     1      43.838  11.183   8.573  0.00  0.00    +0.000 C 
ATOM     12  O   UNL     1      42.686  10.753   8.682  0.00  0.00    +0.000 OA
ATOM     13  H   UNL     1      45.481  11.982   9.485  0.00  0.00    +0.000 HD
BRANCH  11  14
ATOM     14  C   UNL     1      44.412  11.545   7.239  0.00  0.00    +0.000 A 
ATOM     15  C   UNL     1      45.753  11.910   7.129  0.00  0.00    +0.000 A 
ATOM     16  C   UNL     1      46.242  12.265   5.874  0.00  0.00    +0.000 A 
ATOM     17  C   UNL     1      45.386  12.240   4.778  0.00  0.00    +0.000 A 
ATOM     18  C   UNL     1      44.067  11.862   4.980  0.00  0.00    +0.000 A 
ATOM     19  N   UNL     1      43.556  11.509   6.181  0.00  0.00    +0.000 NA
ENDBRANCH  11  14
ENDBRANCH   9  10
ENDBRANCH   6   9
ENDBRANCH   2   3
BRANCH   2  20
ATOM     20  N   UNL     1      46.674   5.883  14.168  0.00  0.00    +0.000 N 
ATOM     21  C   UNL     1      48.037   5.995  14.358  0.00  0.00    +0.000 C 
ATOM     22  O   UNL     1      48.835   6.017  13.434  0.00  0.00    +0.000 OA
ATOM     23  H   UNL     1      46.103   5.611  14.958  0.00  0.00    +0.000 HD
BRANCH  21  24
ATOM     24  C   UNL     1      48.504   6.151  15.749  0.00  0.00    +0.000 A 
ATOM     25  C   UNL     1      49.296   7.240  16.090  0.00  0.00    +0.000 A 
ATOM     26  S   UNL     1      49.809   7.227  17.719  0.00  0.00    +0.000 S 
ATOM     27  C   UNL     1      49.016   5.751  18.010  0.00  0.00    +0.000 A 
ATOM     28  N   UNL     1      49.105   5.136  19.219  0.00  0.00    +0.000 NA
ATOM     29  C   UNL     1      48.499   3.998  19.283  0.00  0.00    +0.000 A 
ATOM     30  N   UNL     1      47.790   3.431  18.252  0.00  0.00    +0.000 N 
ATOM     31  C   UNL     1      47.615   4.049  17.040  0.00  0.00    +0.000 A 
ATOM     32  O   UNL     1      46.889   3.570  16.167  0.00  0.00    +0.000 OA
ATOM     33  C   UNL     1      48.328   5.301  16.897  0.00  0.00    +0.000 A 
ATOM     34  H   UNL     1      47.313   2.550  18.382  0.00  0.00    +0.000 HD
ENDBRANCH  21  24
ENDBRANCH   2  20
TORSDOF 6
ENDMDL
