MODEL 1
REMARK VINA RESULT:    -8.172      0.000      0.000
REMARK INTER + INTRA:         -12.422
REMARK INTER:                 -11.516
REMARK INTRA:                  -0.906
REMARK UNBOUND:                -0.906
REMARK  Name = 
REMARK  7 active torsions:
REMARK  status: ('A' for Active; 'I' for Inactive)
REMARK    1  A    between atoms: C_2  and  C_4
REMARK    2  A    between atoms: C_7  and  N_8
REMARK    3  A    between atoms: N_8  and  C_9
REMARK    4  A    between atoms: C_9  and  C_10
REMARK    5  A    between atoms: C_10  and  C_11
REMARK    6  A    between atoms: C_15  and  O_16
REMARK    7  A    between atoms: O_16  and  C_17
REMARK                            x       y       z     vdW  Elec       q    Type
REMARK                         _______ _______ _______ _____ _____    ______ ____
ROOT
ATOM      1  C   UNL     1      43.268   4.136  11.410  0.00  0.00    +0.000 C 
ENDROOT
BRANCH   1   2
ATOM      2  N   UNL     1      43.629   4.610  10.075  0.00  0.00    +0.000 N 
ATOM      3  H   UNL     1      42.854   4.982   9.529  0.00  0.00    +0.000 HD
BRANCH   2   7
ATOM      4  C   UNL     1      46.423   2.449   7.748  0.00  0.00    +0.000 A 
ATOM      5  C   UNL     1      45.576   1.762   8.623  0.00  0.00    +0.000 A 
ATOM      6  C   UNL     1      44.642   2.465   9.391  0.00  0.00    +0.000 A 
ATOM      7  C   UNL     1      44.505   3.856   9.286  0.00  0.00    +0.000 A 
ATOM      8  C   UNL     1      45.387   4.532   8.427  0.00  0.00    +0.000 A 
ATOM      9  C   UNL     1      46.339   3.839   7.668  0.00  0.00    +0.000 A 
BRANCH   4  11
ATOM     10  N   UNL     1      48.508   2.464   6.494  0.00  0.00    +0.000 N 
ATOM     11  C   UNL     1      47.436   1.737   6.929  0.00  0.00    +0.000 C 
ATOM     12  O   UNL     1      47.343   0.541   6.684  0.00  0.00    +0.000 OA
ATOM     13  H   UNL     1      49.244   1.946   6.030  0.00  0.00    +0.000 HD
ATOM     14  H   UNL     1      48.744   3.367   6.882  0.00  0.00    +0.000 HD
ENDBRANCH   4  11
ENDBRANCH   2   7
ENDBRANCH   1   2
BRANCH   1  15
ATOM     15  C   UNL     1      43.436   5.240  12.462  0.00  0.00    +0.000 C 
BRANCH  15  16
ATOM     16  C   UNL     1      44.902   5.476  12.763  0.00  0.00    +0.000 A 
ATOM     17  C   UNL     1      45.602   6.460  12.055  0.00  0.00    +0.000 A 
ATOM     18  C   UNL     1      46.973   6.623  12.244  0.00  0.00    +0.000 A 
ATOM     19  C   UNL     1      47.656   5.822  13.160  0.00  0.00    +0.000 A 
ATOM     20  C   UNL     1      46.968   4.869  13.914  0.00  0.00    +0.000 A 
ATOM     21  C   UNL     1      45.596   4.681  13.692  0.00  0.00    +0.000 A 
BRANCH  20  22
ATOM     22  O   UNL     1      47.561   4.054  14.848  0.00  0.00    +0.000 OA
BRANCH  22  23
ATOM     23  C   UNL     1      47.315   4.415  16.218  0.00  0.00    +0.000 C 
ATOM     24  C   UNL     1      48.428   5.286  16.762  0.00  0.00    +0.000 C 
ATOM     25  C   UNL     1      49.413   4.300  17.348  0.00  0.00    +0.000 C 
ATOM     26  O   UNL     1      48.686   3.131  17.724  0.00  0.00    +0.000 OA
ATOM     27  C   UNL     1      47.391   3.177  17.107  0.00  0.00    +0.000 C 
ENDBRANCH  22  23
ENDBRANCH  20  22
ENDBRANCH  15  16
ENDBRANCH   1  15
TORSDOF 7
ENDMDL
MODEL 2
REMARK VINA RESULT:    -7.545      2.235      3.841
REMARK INTER + INTRA:         -11.539
REMARK INTER:                 -10.432
REMARK INTRA:                  -1.107
REMARK UNBOUND:                -0.906
REMARK  Name = 
REMARK  7 active torsions:
REMARK  status: ('A' for Active; 'I' for Inactive)
REMARK    1  A    between atoms: C_2  and  C_4
REMARK    2  A    between atoms: C_7  and  N_8
REMARK    3  A    between atoms: N_8  and  C_9
REMARK    4  A    between atoms: C_9  and  C_10
REMARK    5  A    between atoms: C_10  and  C_11
REMARK    6  A    between atoms: C_15  and  O_16
REMARK    7  A    between atoms: O_16  and  C_17
REMARK                            x       y       z     vdW  Elec       q    Type
REMARK                         _______ _______ _______ _____ _____    ______ ____
ROOT
ATOM      1  C   UNL     1      43.024   4.619  11.141  0.00  0.00    +0.000 C 
ENDROOT
BRANCH   1   2
ATOM      2  N   UNL     1      43.719   4.972   9.905  0.00  0.00    +0.000 N 
ATOM      3  H   UNL     1      43.146   5.452   9.214  0.00  0.00    +0.000 HD
BRANCH   2   7
ATOM      4  C   UNL     1      46.174   2.067   8.054  0.00  0.00    +0.000 A 
ATOM      5  C   UNL     1      46.329   3.415   7.719  0.00  0.00    +0.000 A 
ATOM      6  C   UNL     1      45.530   4.386   8.331  0.00  0.00    +0.000 A 
ATOM      7  C   UNL     1      44.583   4.047   9.308  0.00  0.00    +0.000 A 
ATOM      8  C   UNL     1      44.420   2.684   9.607  0.00  0.00    +0.000 A 
ATOM      9  C   UNL     1      45.202   1.703   8.985  0.00  0.00    +0.000 A 
BRANCH   4  11
ATOM     10  N   UNL     1      47.950   1.414   6.524  0.00  0.00    +0.000 N 
ATOM     11  C   UNL     1      46.995   1.009   7.414  0.00  0.00    +0.000 C 
ATOM     12  O   UNL     1      46.857  -0.175   7.696  0.00  0.00    +0.000 OA
ATOM     13  H   UNL     1      48.574   0.696   6.176  0.00  0.00    +0.000 HD
ATOM     14  H   UNL     1      48.259   2.374   6.460  0.00  0.00    +0.000 HD
ENDBRANCH   4  11
ENDBRANCH   2   7
ENDBRANCH   1   2
BRANCH   1  15
ATOM     15  C   UNL     1      43.307   5.637  12.253  0.00  0.00    +0.000 C 
BRANCH  15  16
ATOM     16  C   UNL     1      44.755   5.560  12.696  0.00  0.00    +0.000 A 
ATOM     17  C   UNL     1      45.290   4.329  13.094  0.00  0.00    +0.000 A 
ATOM     18  C   UNL     1      46.586   4.255  13.600  0.00  0.00    +0.000 A 
ATOM     19  C   UNL     1      47.371   5.405  13.694  0.00  0.00    +0.000 A 
ATOM     20  C   UNL     1      46.875   6.634  13.254  0.00  0.00    +0.000 A 
ATOM     21  C   UNL     1      45.556   6.711  12.782  0.00  0.00    +0.000 A 
BRANCH  20  22
ATOM     22  O   UNL     1      47.587   7.808  13.294  0.00  0.00    +0.000 OA
BRANCH  22  23
ATOM     23  C   UNL     1      47.734   8.476  12.029  0.00  0.00    +0.000 C 
ATOM     24  C   UNL     1      49.191   8.572  11.628  0.00  0.00    +0.000 C 
ATOM     25  C   UNL     1      49.649   9.887  12.215  0.00  0.00    +0.000 C 
ATOM     26  O   UNL     1      48.509  10.738  12.316  0.00  0.00    +0.000 OA
ATOM     27  C   UNL     1      47.325   9.941  12.161  0.00  0.00    +0.000 C 
ENDBRANCH  22  23
ENDBRANCH  20  22
ENDBRANCH  15  16
ENDBRANCH   1  15
TORSDOF 7
ENDMDL
MODEL 3
REMARK VINA RESULT:    -7.237      1.671      1.801
REMARK INTER + INTRA:         -11.105
REMARK INTER:                 -10.240
REMARK INTRA:                  -0.865
REMARK UNBOUND:                -0.906
REMARK  Name = 
REMARK  7 active torsions:
REMARK  status: ('A' for Active; 'I' for Inactive)
REMARK    1  A    between atoms: C_2  and  C_4
REMARK    2  A    between atoms: C_7  and  N_8
REMARK    3  A    between atoms: N_8  and  C_9
REMARK    4  A    between atoms: C_9  and  C_10
REMARK    5  A    between atoms: C_10  and  C_11
REMARK    6  A    between atoms: C_15  and  O_16
REMARK    7  A    between atoms: O_16  and  C_17
REMARK                            x       y       z     vdW  Elec       q    Type
REMARK                         _______ _______ _______ _____ _____    ______ ____
ROOT
ATOM      1  C   UNL     1      44.593   3.617  11.879  0.00  0.00    +0.000 C 
ENDROOT
BRANCH   1   2
ATOM      2  N   UNL     1      43.980   3.498  10.557  0.00  0.00    +0.000 N 
ATOM      3  H   UNL     1      43.106   2.976  10.537  0.00  0.00    +0.000 HD
BRANCH   2   7
ATOM      4  C   UNL     1      46.529   2.769   7.261  0.00  0.00    +0.000 A 
ATOM      5  C   UNL     1      46.077   1.695   8.033  0.00  0.00    +0.000 A 
ATOM      6  C   UNL     1      45.226   1.923   9.120  0.00  0.00    +0.000 A 
ATOM      7  C   UNL     1      44.781   3.212   9.446  0.00  0.00    +0.000 A 
ATOM      8  C   UNL     1      45.273   4.281   8.678  0.00  0.00    +0.000 A 
ATOM      9  C   UNL     1      46.141   4.064   7.600  0.00  0.00    +0.000 A 
BRANCH   4  11
ATOM     10  N   UNL     1      48.785   2.589   6.369  0.00  0.00    +0.000 N 
ATOM     11  C   UNL     1      47.444   2.565   6.110  0.00  0.00    +0.000 C 
ATOM     12  O   UNL     1      47.022   2.345   4.982  0.00  0.00    +0.000 OA
ATOM     13  H   UNL     1      49.396   2.343   5.600  0.00  0.00    +0.000 HD
ATOM     14  H   UNL     1      49.158   2.513   7.305  0.00  0.00    +0.000 HD
ENDBRANCH   4  11
ENDBRANCH   2   7
ENDBRANCH   1   2
BRANCH   1  15
ATOM     15  C   UNL     1      44.419   5.029  12.452  0.00  0.00    +0.000 C 
BRANCH  15  16
ATOM     16  C   UNL     1      45.763   5.706  12.629  0.00  0.00    +0.000 A 
ATOM     17  C   UNL     1      46.261   6.527  11.610  0.00  0.00    +0.000 A 
ATOM     18  C   UNL     1      47.538   7.076  11.708  0.00  0.00    +0.000 A 
ATOM     19  C   UNL     1      48.323   6.832  12.836  0.00  0.00    +0.000 A 
ATOM     20  C   UNL     1      47.826   6.058  13.887  0.00  0.00    +0.000 A 
ATOM     21  C   UNL     1      46.556   5.474  13.766  0.00  0.00    +0.000 A 
BRANCH  20  22
ATOM     22  O   UNL     1      48.526   5.786  15.037  0.00  0.00    +0.000 OA
BRANCH  22  23
ATOM     23  C   UNL     1      49.028   6.939  15.734  0.00  0.00    +0.000 C 
ATOM     24  C   UNL     1      50.540   6.993  15.683  0.00  0.00    +0.000 C 
ATOM     25  C   UNL     1      50.977   6.235  16.915  0.00  0.00    +0.000 C 
ATOM     26  O   UNL     1      49.934   6.341  17.883  0.00  0.00    +0.000 OA
ATOM     27  C   UNL     1      48.745   6.811  17.228  0.00  0.00    +0.000 C 
ENDBRANCH  22  23
ENDBRANCH  20  22
ENDBRANCH  15  16
ENDBRANCH   1  15
TORSDOF 7
ENDMDL
MODEL 4
REMARK VINA RESULT:    -6.840      2.561      3.103
REMARK INTER + INTRA:         -10.545
REMARK INTER:                  -9.809
REMARK INTRA:                  -0.735
REMARK UNBOUND:                -0.906
REMARK  Name = 
REMARK  7 active torsions:
REMARK  status: ('A' for Active; 'I' for Inactive)
REMARK    1  A    between atoms: C_2  and  C_4
REMARK    2  A    between atoms: C_7  and  N_8
REMARK    3  A    between atoms: N_8  and  C_9
REMARK    4  A    between atoms: C_9  and  C_10
REMARK    5  A    between atoms: C_10  and  C_11
REMARK    6  A    between atoms: C_15  and  O_16
REMARK    7  A    between atoms: O_16  and  C_17
REMARK                            x       y       z     vdW  Elec       q    Type
REMARK                         _______ _______ _______ _____ _____    ______ ____
ROOT
ATOM      1  C   UNL     1      43.972   3.414  11.312  0.00  0.00    +0.000 C 
ENDROOT
BRANCH   1   2
ATOM      2  N   UNL     1      43.700   3.409   9.875  0.00  0.00    +0.000 N 
ATOM      3  H   UNL     1      42.788   3.039   9.615  0.00  0.00    +0.000 HD
BRANCH   2   7
ATOM      4  C   UNL     1      46.831   2.328   7.245  0.00  0.00    +0.000 A 
ATOM      5  C   UNL     1      46.247   1.353   8.059  0.00  0.00    +0.000 A 
ATOM      6  C   UNL     1      45.205   1.696   8.926  0.00  0.00    +0.000 A 
ATOM      7  C   UNL     1      44.699   3.003   8.983  0.00  0.00    +0.000 A 
ATOM      8  C   UNL     1      45.321   3.974   8.181  0.00  0.00    +0.000 A 
ATOM      9  C   UNL     1      46.377   3.644   7.324  0.00  0.00    +0.000 A 
BRANCH   4  11
ATOM     10  N   UNL     1      49.014   2.857   6.309  0.00  0.00    +0.000 N 
ATOM     11  C   UNL     1      47.949   2.002   6.323  0.00  0.00    +0.000 C 
ATOM     12  O   UNL     1      47.942   0.991   5.633  0.00  0.00    +0.000 OA
ATOM     13  H   UNL     1      49.814   2.569   5.760  0.00  0.00    +0.000 HD
ATOM     14  H   UNL     1      49.166   3.545   7.034  0.00  0.00    +0.000 HD
ENDBRANCH   4  11
ENDBRANCH   2   7
ENDBRANCH   1   2
BRANCH   1  15
ATOM     15  C   UNL     1      45.400   3.888  11.610  0.00  0.00    +0.000 C 
BRANCH  15  16
ATOM     16  C   UNL     1      45.435   5.388  11.824  0.00  0.00    +0.000 A 
ATOM     17  C   UNL     1      44.356   6.170  11.394  0.00  0.00    +0.000 A 
ATOM     18  C   UNL     1      44.413   7.560  11.489  0.00  0.00    +0.000 A 
ATOM     19  C   UNL     1      45.537   8.182  12.034  0.00  0.00    +0.000 A 
ATOM     20  C   UNL     1      46.602   7.417  12.515  0.00  0.00    +0.000 A 
ATOM     21  C   UNL     1      46.559   6.022  12.382  0.00  0.00    +0.000 A 
BRANCH  20  22
ATOM     22  O   UNL     1      47.735   7.950  13.081  0.00  0.00    +0.000 OA
BRANCH  22  23
ATOM     23  C   UNL     1      48.873   7.071  13.112  0.00  0.00    +0.000 C 
ATOM     24  C   UNL     1      49.585   7.145  14.446  0.00  0.00    +0.000 C 
ATOM     25  C   UNL     1      50.612   8.237  14.255  0.00  0.00    +0.000 C 
ATOM     26  O   UNL     1      50.933   8.293  12.866  0.00  0.00    +0.000 OA
ATOM     27  C   UNL     1      49.938   7.560  12.134  0.00  0.00    +0.000 C 
ENDBRANCH  22  23
ENDBRANCH  20  22
ENDBRANCH  15  16
ENDBRANCH   1  15
TORSDOF 7
ENDMDL
MODEL 5
REMARK VINA RESULT:    -6.750      2.579      8.349
REMARK INTER + INTRA:         -10.419
REMARK INTER:                  -9.681
REMARK INTRA:                  -0.738
REMARK UNBOUND:                -0.906
REMARK  Name = 
REMARK  7 active torsions:
REMARK  status: ('A' for Active; 'I' for Inactive)
REMARK    1  A    between atoms: C_2  and  C_4
REMARK    2  A    between atoms: C_7  and  N_8
REMARK    3  A    between atoms: N_8  and  C_9
REMARK    4  A    between atoms: C_9  and  C_10
REMARK    5  A    between atoms: C_10  and  C_11
REMARK    6  A    between atoms: C_15  and  O_16
REMARK    7  A    between atoms: O_16  and  C_17
REMARK                            x       y       z     vdW  Elec       q    Type
REMARK                         _______ _______ _______ _____ _____    ______ ____
ROOT
ATOM      1  C   UNL     1      45.715   6.268  12.450  0.00  0.00    +0.000 C 
ENDROOT
BRANCH   1   2
ATOM      2  N   UNL     1      47.115   6.109  12.838  0.00  0.00    +0.000 N 
ATOM      3  H   UNL     1      47.704   5.661  12.138  0.00  0.00    +0.000 HD
BRANCH   2   7
ATOM      4  C   UNL     1      48.122   4.643  16.676  0.00  0.00    +0.000 A 
ATOM      5  C   UNL     1      48.632   5.874  16.253  0.00  0.00    +0.000 A 
ATOM      6  C   UNL     1      48.298   6.374  14.989  0.00  0.00    +0.000 A 
ATOM      7  C   UNL     1      47.431   5.682  14.132  0.00  0.00    +0.000 A 
ATOM      8  C   UNL     1      46.956   4.431  14.563  0.00  0.00    +0.000 A 
ATOM      9  C   UNL     1      47.300   3.914  15.818  0.00  0.00    +0.000 A 
BRANCH   4  11
ATOM     10  N   UNL     1      47.838   4.612  19.092  0.00  0.00    +0.000 N 
ATOM     11  C   UNL     1      48.467   4.076  18.004  0.00  0.00    +0.000 C 
ATOM     12  O   UNL     1      49.249   3.142  18.123  0.00  0.00    +0.000 OA
ATOM     13  H   UNL     1      47.998   4.148  19.977  0.00  0.00    +0.000 HD
ATOM     14  H   UNL     1      47.016   5.195  19.011  0.00  0.00    +0.000 HD
ENDBRANCH   4  11
ENDBRANCH   2   7
ENDBRANCH   1   2
BRANCH   1  15
ATOM     15  C   UNL     1      45.561   6.355  10.927  0.00  0.00    +0.000 C 
BRANCH  15  16
ATOM     16  C   UNL     1      45.125   5.021  10.355  0.00  0.00    +0.000 A 
ATOM     17  C   UNL     1      44.443   4.110  11.171  0.00  0.00    +0.000 A 
ATOM     18  C   UNL     1      44.124   2.840  10.695  0.00  0.00    +0.000 A 
ATOM     19  C   UNL     1      44.461   2.473   9.391  0.00  0.00    +0.000 A 
ATOM     20  C   UNL     1      45.095   3.384   8.543  0.00  0.00    +0.000 A 
ATOM     21  C   UNL     1      45.450   4.647   9.039  0.00  0.00    +0.000 A 
BRANCH  20  22
ATOM     22  O   UNL     1      45.444   3.109   7.244  0.00  0.00    +0.000 OA
BRANCH  22  23
ATOM     23  C   UNL     1      46.853   2.934   7.014  0.00  0.00    +0.000 C 
ATOM     24  C   UNL     1      47.195   3.120   5.551  0.00  0.00    +0.000 C 
ATOM     25  C   UNL     1      47.071   1.733   4.964  0.00  0.00    +0.000 C 
ATOM     26  O   UNL     1      47.319   0.796   6.011  0.00  0.00    +0.000 OA
ATOM     27  C   UNL     1      47.247   1.482   7.270  0.00  0.00    +0.000 C 
ENDBRANCH  22  23
ENDBRANCH  20  22
ENDBRANCH  15  16
ENDBRANCH   1  15
TORSDOF 7
ENDMDL
MODEL 6
REMARK VINA RESULT:    -6.732      2.496      3.206
REMARK INTER + INTRA:         -10.394
REMARK INTER:                  -9.500
REMARK INTRA:                  -0.894
REMARK UNBOUND:                -0.906
REMARK  Name = 
REMARK  7 active torsions:
REMARK  status: ('A' for Active; 'I' for Inactive)
REMARK    1  A    between atoms: C_2  and  C_4
REMARK    2  A    between atoms: C_7  and  N_8
REMARK    3  A    between atoms: N_8  and  C_9
REMARK    4  A    between atoms: C_9  and  C_10
REMARK    5  A    between atoms: C_10  and  C_11
REMARK    6  A    between atoms: C_15  and  O_16
REMARK    7  A    between atoms: O_16  and  C_17
REMARK                            x       y       z     vdW  Elec       q    Type
REMARK                         _______ _______ _______ _____ _____    ______ ____
ROOT
ATOM      1  C   UNL     1      43.978   5.284  11.162  0.00  0.00    +0.000 C 
ENDROOT
BRANCH   1   2
ATOM      2  N   UNL     1      43.723   4.936   9.765  0.00  0.00    +0.000 N 
ATOM      3  H   UNL     1      42.739   4.839   9.522  0.00  0.00    +0.000 HD
BRANCH   2   7
ATOM      4  C   UNL     1      46.265   2.108   7.913  0.00  0.00    +0.000 A 
ATOM      5  C   UNL     1      45.338   1.680   8.868  0.00  0.00    +0.000 A 
ATOM      6  C   UNL     1      44.486   2.605   9.481  0.00  0.00    +0.000 A 
ATOM      7  C   UNL     1      44.511   3.965   9.139  0.00  0.00    +0.000 A 
ATOM      8  C   UNL     1      45.472   4.379   8.201  0.00  0.00    +0.000 A 
ATOM      9  C   UNL     1      46.342   3.464   7.597  0.00  0.00    +0.000 A 
BRANCH   4  11
ATOM     10  N   UNL     1      46.941  -0.176   7.417  0.00  0.00    +0.000 N 
ATOM     11  C   UNL     1      47.194   1.156   7.253  0.00  0.00    +0.000 C 
ATOM     12  O   UNL     1      48.125   1.541   6.558  0.00  0.00    +0.000 OA
ATOM     13  H   UNL     1      47.514  -0.813   6.878  0.00  0.00    +0.000 HD
ATOM     14  H   UNL     1      46.056  -0.522   7.763  0.00  0.00    +0.000 HD
ENDBRANCH   4  11
ENDBRANCH   2   7
ENDBRANCH   1   2
BRANCH   1  15
ATOM     15  C   UNL     1      45.087   6.336  11.285  0.00  0.00    +0.000 C 
BRANCH  15  16
ATOM     16  C   UNL     1      46.028   5.993  12.423  0.00  0.00    +0.000 A 
ATOM     17  C   UNL     1      45.882   4.774  13.095  0.00  0.00    +0.000 A 
ATOM     18  C   UNL     1      46.669   4.484  14.208  0.00  0.00    +0.000 A 
ATOM     19  C   UNL     1      47.628   5.399  14.648  0.00  0.00    +0.000 A 
ATOM     20  C   UNL     1      47.825   6.599  13.961  0.00  0.00    +0.000 A 
ATOM     21  C   UNL     1      47.003   6.904  12.866  0.00  0.00    +0.000 A 
BRANCH  20  22
ATOM     22  O   UNL     1      48.757   7.542  14.317  0.00  0.00    +0.000 OA
BRANCH  22  23
ATOM     23  C   UNL     1      48.220   8.832  14.659  0.00  0.00    +0.000 C 
ATOM     24  C   UNL     1      48.940   9.938  13.917  0.00  0.00    +0.000 C 
ATOM     25  C   UNL     1      50.074  10.323  14.841  0.00  0.00    +0.000 C 
ATOM     26  O   UNL     1      49.671  10.013  16.174  0.00  0.00    +0.000 OA
ATOM     27  C   UNL     1      48.523   9.154  16.120  0.00  0.00    +0.000 C 
ENDBRANCH  22  23
ENDBRANCH  20  22
ENDBRANCH  15  16
ENDBRANCH   1  15
TORSDOF 7
ENDMDL
MODEL 7
REMARK VINA RESULT:    -6.618      1.940      2.586
REMARK INTER + INTRA:         -10.232
REMARK INTER:                  -9.489
REMARK INTRA:                  -0.743
REMARK UNBOUND:                -0.906
REMARK  Name = 
REMARK  7 active torsions:
REMARK  status: ('A' for Active; 'I' for Inactive)
REMARK    1  A    between atoms: C_2  and  C_4
REMARK    2  A    between atoms: C_7  and  N_8
REMARK    3  A    between atoms: N_8  and  C_9
REMARK    4  A    between atoms: C_9  and  C_10
REMARK    5  A    between atoms: C_10  and  C_11
REMARK    6  A    between atoms: C_15  and  O_16
REMARK    7  A    between atoms: O_16  and  C_17
REMARK                            x       y       z     vdW  Elec       q    Type
REMARK                         _______ _______ _______ _____ _____    ______ ____
ROOT
ATOM      1  C   UNL     1      44.142   4.835  11.645  0.00  0.00    +0.000 C 
ENDROOT
BRANCH   1   2
ATOM      2  N   UNL     1      43.743   3.975  10.531  0.00  0.00    +0.000 N 
ATOM      3  H   UNL     1      43.121   3.210  10.784  0.00  0.00    +0.000 HD
BRANCH   2   7
ATOM      4  C   UNL     1      46.495   2.646   7.607  0.00  0.00    +0.000 A 
ATOM      5  C   UNL     1      46.246   4.015   7.747  0.00  0.00    +0.000 A 
ATOM      6  C   UNL     1      45.344   4.467   8.717  0.00  0.00    +0.000 A 
ATOM      7  C   UNL     1      44.696   3.579   9.587  0.00  0.00    +0.000 A 
ATOM      8  C   UNL     1      44.936   2.206   9.408  0.00  0.00    +0.000 A 
ATOM      9  C   UNL     1      45.821   1.742   8.428  0.00  0.00    +0.000 A 
BRANCH   4  11
ATOM     10  N   UNL     1      47.581   2.872   5.441  0.00  0.00    +0.000 N 
ATOM     11  C   UNL     1      47.434   2.130   6.579  0.00  0.00    +0.000 C 
ATOM     12  O   UNL     1      48.082   1.107   6.754  0.00  0.00    +0.000 OA
ATOM     13  H   UNL     1      48.301   2.569   4.797  0.00  0.00    +0.000 HD
ATOM     14  H   UNL     1      47.265   3.830   5.374  0.00  0.00    +0.000 HD
ENDBRANCH   4  11
ENDBRANCH   2   7
ENDBRANCH   1   2
BRANCH   1  15
ATOM     15  C   UNL     1      43.771   6.300  11.383  0.00  0.00    +0.000 C 
BRANCH  15  16
ATOM     16  C   UNL     1      44.869   7.226  11.866  0.00  0.00    +0.000 A 
ATOM     17  C   UNL     1      44.774   8.599  11.611  0.00  0.00    +0.000 A 
ATOM     18  C   UNL     1      45.820   9.453  11.955  0.00  0.00    +0.000 A 
ATOM     19  C   UNL     1      46.963   8.950  12.580  0.00  0.00    +0.000 A 
ATOM     20  C   UNL     1      47.055   7.591  12.889  0.00  0.00    +0.000 A 
ATOM     21  C   UNL     1      46.018   6.729  12.505  0.00  0.00    +0.000 A 
BRANCH  20  22
ATOM     22  O   UNL     1      48.135   7.019  13.518  0.00  0.00    +0.000 OA
BRANCH  22  23
ATOM     23  C   UNL     1      48.447   7.566  14.811  0.00  0.00    +0.000 C 
ATOM     24  C   UNL     1      49.730   8.369  14.770  0.00  0.00    +0.000 C 
ATOM     25  C   UNL     1      50.808   7.359  15.092  0.00  0.00    +0.000 C 
ATOM     26  O   UNL     1      50.215   6.329  15.881  0.00  0.00    +0.000 OA
ATOM     27  C   UNL     1      48.787   6.440  15.785  0.00  0.00    +0.000 C 
ENDBRANCH  22  23
ENDBRANCH  20  22
ENDBRANCH  15  16
ENDBRANCH   1  15
TORSDOF 7
ENDMDL
MODEL 8
REMARK VINA RESULT:    -6.566      2.705      4.445
REMARK INTER + INTRA:         -10.159
REMARK INTER:                  -9.373
REMARK INTRA:                  -0.786
REMARK UNBOUND:                -0.906
REMARK  Name = 
REMARK  7 active torsions:
REMARK  status: ('A' for Active; 'I' for Inactive)
REMARK    1  A    between atoms: C_2  and  C_4
REMARK    2  A    between atoms: C_7  and  N_8
REMARK    3  A    between atoms: N_8  and  C_9
REMARK    4  A    between atoms: C_9  and  C_10
REMARK    5  A    between atoms: C_10  and  C_11
REMARK    6  A    between atoms: C_15  and  O_16
REMARK    7  A    between atoms: O_16  and  C_17
REMARK                            x       y       z     vdW  Elec       q    Type
REMARK                         _______ _______ _______ _____ _____    ______ ____
ROOT
ATOM      1  C   UNL     1      43.795   4.080  12.279  0.00  0.00    +0.000 C 
ENDROOT
BRANCH   1   2
ATOM      2  N   UNL     1      43.287   3.928  10.917  0.00  0.00    +0.000 N 
ATOM      3  H   UNL     1      42.374   3.482  10.848  0.00  0.00    +0.000 HD
BRANCH   2   7
ATOM      4  C   UNL     1      46.022   2.781   7.901  0.00  0.00    +0.000 A 
ATOM      5  C   UNL     1      45.477   1.808   8.743  0.00  0.00    +0.000 A 
ATOM      6  C   UNL     1      44.564   2.174   9.738  0.00  0.00    +0.000 A 
ATOM      7  C   UNL     1      44.149   3.503   9.900  0.00  0.00    +0.000 A 
ATOM      8  C   UNL     1      44.734   4.470   9.065  0.00  0.00    +0.000 A 
ATOM      9  C   UNL     1      45.663   4.117   8.079  0.00  0.00    +0.000 A 
BRANCH   4  11
ATOM     10  N   UNL     1      47.889   1.428   7.124  0.00  0.00    +0.000 N 
ATOM     11  C   UNL     1      47.004   2.430   6.844  0.00  0.00    +0.000 C 
ATOM     12  O   UNL     1      47.000   2.983   5.752  0.00  0.00    +0.000 OA
ATOM     13  H   UNL     1      48.481   1.125   6.361  0.00  0.00    +0.000 HD
ATOM     14  H   UNL     1      47.759   0.790   7.898  0.00  0.00    +0.000 HD
ENDBRANCH   4  11
ENDBRANCH   2   7
ENDBRANCH   1   2
BRANCH   1  15
ATOM     15  C   UNL     1      45.259   3.634  12.385  0.00  0.00    +0.000 C 
BRANCH  15  16
ATOM     16  C   UNL     1      46.150   4.802  12.756  0.00  0.00    +0.000 A 
ATOM     17  C   UNL     1      47.016   4.688  13.850  0.00  0.00    +0.000 A 
ATOM     18  C   UNL     1      47.769   5.784  14.270  0.00  0.00    +0.000 A 
ATOM     19  C   UNL     1      47.683   6.998  13.587  0.00  0.00    +0.000 A 
ATOM     20  C   UNL     1      46.864   7.119  12.463  0.00  0.00    +0.000 A 
ATOM     21  C   UNL     1      46.078   6.026  12.068  0.00  0.00    +0.000 A 
BRANCH  20  22
ATOM     22  O   UNL     1      46.736   8.271  11.726  0.00  0.00    +0.000 OA
BRANCH  22  23
ATOM     23  C   UNL     1      46.309   9.426  12.469  0.00  0.00    +0.000 C 
ATOM     24  C   UNL     1      44.873   9.783  12.147  0.00  0.00    +0.000 C 
ATOM     25  C   UNL     1      44.985  10.746  10.987  0.00  0.00    +0.000 C 
ATOM     26  O   UNL     1      46.254  11.392  11.080  0.00  0.00    +0.000 OA
ATOM     27  C   UNL     1      47.076  10.661  12.002  0.00  0.00    +0.000 C 
ENDBRANCH  22  23
ENDBRANCH  20  22
ENDBRANCH  15  16
ENDBRANCH   1  15
TORSDOF 7
ENDMDL
MODEL 9
REMARK VINA RESULT:    -6.443      3.095      4.677
REMARK INTER + INTRA:          -9.986
REMARK INTER:                  -9.227
REMARK INTRA:                  -0.758
REMARK UNBOUND:                -0.906
REMARK  Name = 
REMARK  7 active torsions:
REMARK  status: ('A' for Active; 'I' for Inactive)
REMARK    1  A    between atoms: C_2  and  C_4
REMARK    2  A    between atoms: C_7  and  N_8
REMARK    3  A    between atoms: N_8  and  C_9
REMARK    4  A    between atoms: C_9  and  C_10
REMARK    5  A    between atoms: C_10  and  C_11
REMARK    6  A    between atoms: C_15  and  O_16
REMARK    7  A    between atoms: O_16  and  C_17
REMARK                            x       y       z     vdW  Elec       q    Type
REMARK                         _______ _______ _______ _____ _____    ______ ____
ROOT
ATOM      1  C   UNL     1      45.634   4.043   8.035  0.00  0.00    +0.000 C 
ENDROOT
BRANCH   1   2
ATOM      2  N   UNL     1      46.916   3.412   7.726  0.00  0.00    +0.000 N 
ATOM      3  H   UNL     1      47.720   4.034   7.768  0.00  0.00    +0.000 HD
BRANCH   2   7
ATOM      4  C   UNL     1      47.064   0.595   4.574  0.00  0.00    +0.000 A 
ATOM      5  C   UNL     1      46.808   1.938   4.286  0.00  0.00    +0.000 A 
ATOM      6  C   UNL     1      46.765   2.881   5.319  0.00  0.00    +0.000 A 
ATOM      7  C   UNL     1      47.006   2.519   6.652  0.00  0.00    +0.000 A 
ATOM      8  C   UNL     1      47.230   1.159   6.924  0.00  0.00    +0.000 A 
ATOM      9  C   UNL     1      47.255   0.206   5.899  0.00  0.00    +0.000 A 
BRANCH   4  11
ATOM     10  N   UNL     1      46.534  -1.644   3.784  0.00  0.00    +0.000 N 
ATOM     11  C   UNL     1      47.102  -0.434   3.504  0.00  0.00    +0.000 C 
ATOM     12  O   UNL     1      47.584  -0.203   2.403  0.00  0.00    +0.000 OA
ATOM     13  H   UNL     1      46.469  -2.300   3.015  0.00  0.00    +0.000 HD
ATOM     14  H   UNL     1      45.914  -1.783   4.571  0.00  0.00    +0.000 HD
ENDBRANCH   4  11
ENDBRANCH   2   7
ENDBRANCH   1   2
BRANCH   1  15
ATOM     15  C   UNL     1      44.692   3.075   8.759  0.00  0.00    +0.000 C 
BRANCH  15  16
ATOM     16  C   UNL     1      44.608   3.408  10.235  0.00  0.00    +0.000 A 
ATOM     17  C   UNL     1      43.631   2.793  11.027  0.00  0.00    +0.000 A 
ATOM     18  C   UNL     1      43.472   3.161  12.361  0.00  0.00    +0.000 A 
ATOM     19  C   UNL     1      44.302   4.130  12.927  0.00  0.00    +0.000 A 
ATOM     20  C   UNL     1      45.316   4.719  12.169  0.00  0.00    +0.000 A 
ATOM     21  C   UNL     1      45.447   4.375  10.815  0.00  0.00    +0.000 A 
BRANCH  20  22
ATOM     22  O   UNL     1      46.185   5.666  12.654  0.00  0.00    +0.000 OA
BRANCH  22  23
ATOM     23  C   UNL     1      46.308   6.851  11.848  0.00  0.00    +0.000 C 
ATOM     24  C   UNL     1      47.456   7.717  12.322  0.00  0.00    +0.000 C 
ATOM     25  C   UNL     1      46.825   8.643  13.336  0.00  0.00    +0.000 C 
ATOM     26  O   UNL     1      45.447   8.785  12.995  0.00  0.00    +0.000 OA
ATOM     27  C   UNL     1      45.096   7.754  12.059  0.00  0.00    +0.000 C 
ENDBRANCH  22  23
ENDBRANCH  20  22
ENDBRANCH  15  16
ENDBRANCH   1  15
TORSDOF 7
ENDMDL
