MODEL 1
REMARK VINA RESULT:    -6.913      0.000      0.000
REMARK INTER + INTRA:          -9.465
REMARK INTER:                  -9.136
REMARK INTRA:                  -0.328
REMARK UNBOUND:                -0.328
REMARK  Name = 
REMARK  7 active torsions:
REMARK  status: ('A' for Active; 'I' for Inactive)
REMARK    1  A    between atoms: C_1  and  N_2
REMARK    2  A    between atoms: C_4  and  C_5
REMARK    3  A    between atoms: N_7  and  C_8
REMARK    4  A    between atoms: C_8  and  C_9
REMARK    5  A    between atoms: N_12  and  C_13
REMARK    6  A    between atoms: C_13  and  C_14
REMARK    7  A    between atoms: C_14  and  O_15
REMARK                            x       y       z     vdW  Elec       q    Type
REMARK                         _______ _______ _______ _____ _____    ______ ____
ROOT
ATOM      1  C   UNL     1      46.071   5.009  12.697  0.00  0.00    +0.000 C 
ATOM      2  O   UNL     1      45.890   4.368  13.730  0.00  0.00    +0.000 OA
ATOM      3  N   UNL     1      45.521   4.613  11.493  0.00  0.00    +0.000 N 
ATOM      4  H   UNL     1      45.808   5.102  10.654  0.00  0.00    +0.000 HD
ENDROOT
BRANCH   1   8
ATOM      5  C   UNL     1      49.955   7.956  13.375  0.00  0.00    +0.000 C 
ATOM      6  N   UNL     1      48.592   7.573  13.078  0.00  0.00    +0.000 N 
ATOM      7  C   UNL     1      48.136   6.293  13.074  0.00  0.00    +0.000 A 
ATOM      8  C   UNL     1      46.795   6.280  12.716  0.00  0.00    +0.000 A 
ATOM      9  C   UNL     1      46.445   7.651  12.417  0.00  0.00    +0.000 A 
ATOM     10  C   UNL     1      45.341   8.360  11.905  0.00  0.00    +0.000 A 
ATOM     11 CL   UNL     1      43.997   7.501  11.310  0.00  0.00    +0.000 Cl
ATOM     12  C   UNL     1      45.407   9.743  11.831  0.00  0.00    +0.000 A 
ATOM     13  N   UNL     1      46.477  10.473  12.205  0.00  0.00    +0.000 NA
ATOM     14  C   UNL     1      47.580   9.827  12.640  0.00  0.00    +0.000 A 
ATOM     15  C   UNL     1      47.577   8.434  12.729  0.00  0.00    +0.000 A 
ENDBRANCH   1   8
BRANCH   3  16
ATOM     16  C   UNL     1      44.864   3.324  11.363  0.00  0.00    +0.000 C 
BRANCH  16  17
ATOM     17  C   UNL     1      44.076   3.144  10.052  0.00  0.00    +0.000 C 
ATOM     18  C   UNL     1      44.370   1.835   9.305  0.00  0.00    +0.000 C 
ATOM     19  C   UNL     1      45.719   1.822   8.573  0.00  0.00    +0.000 C 
ATOM     20  N   UNL     1      45.870   2.980   7.673  0.00  0.00    +0.000 NA
ATOM     21  C   UNL     1      45.731   4.232   8.439  0.00  0.00    +0.000 C 
ATOM     22  C   UNL     1      44.352   4.323   9.101  0.00  0.00    +0.000 C 
BRANCH  20  23
ATOM     23  C   UNL     1      47.185   2.975   6.983  0.00  0.00    +0.000 C 
BRANCH  23  24
ATOM     24  C   UNL     1      47.689   1.573   6.599  0.00  0.00    +0.000 C 
BRANCH  24  25
ATOM     25  O   UNL     1      48.565   1.643   5.482  0.00  0.00    +0.000 OA
ATOM     26  H   UNL     1      49.293   2.231   5.763  0.00  0.00    +0.000 HD
ENDBRANCH  24  25
ENDBRANCH  23  24
ENDBRANCH  20  23
ENDBRANCH  16  17
ENDBRANCH   3  16
TORSDOF 6
ENDMDL
MODEL 2
REMARK VINA RESULT:    -6.849      4.120      7.359
REMARK INTER + INTRA:          -9.380
REMARK INTER:                  -8.716
REMARK INTRA:                  -0.664
REMARK UNBOUND:                -0.328
REMARK  Name = 
REMARK  7 active torsions:
REMARK  status: ('A' for Active; 'I' for Inactive)
REMARK    1  A    between atoms: C_1  and  N_2
REMARK    2  A    between atoms: C_4  and  C_5
REMARK    3  A    between atoms: N_7  and  C_8
REMARK    4  A    between atoms: C_8  and  C_9
REMARK    5  A    between atoms: N_12  and  C_13
REMARK    6  A    between atoms: C_13  and  C_14
REMARK    7  A    between atoms: C_14  and  O_15
REMARK                            x       y       z     vdW  Elec       q    Type
REMARK                         _______ _______ _______ _____ _____    ______ ____
ROOT
ATOM      1  C   UNL     1      47.710   6.379  13.549  0.00  0.00    +0.000 C 
ATOM      2  O   UNL     1      48.751   6.119  12.950  0.00  0.00    +0.000 OA
ATOM      3  N   UNL     1      47.696   6.612  14.911  0.00  0.00    +0.000 N 
ATOM      4  H   UNL     1      46.798   6.692  15.372  0.00  0.00    +0.000 HD
ENDROOT
BRANCH   1   8
ATOM      5  C   UNL     1      44.254   8.874  11.086  0.00  0.00    +0.000 C 
ATOM      6  N   UNL     1      44.896   7.756  11.742  0.00  0.00    +0.000 N 
ATOM      7  C   UNL     1      46.124   7.806  12.322  0.00  0.00    +0.000 A 
ATOM      8  C   UNL     1      46.449   6.555  12.827  0.00  0.00    +0.000 A 
ATOM      9  C   UNL     1      45.361   5.677  12.458  0.00  0.00    +0.000 A 
ATOM     10  C   UNL     1      45.057   4.303  12.526  0.00  0.00    +0.000 A 
ATOM     11 CL   UNL     1      46.247   3.207  13.058  0.00  0.00    +0.000 Cl
ATOM     12  C   UNL     1      43.816   3.867  12.086  0.00  0.00    +0.000 A 
ATOM     13  N   UNL     1      42.866   4.675  11.573  0.00  0.00    +0.000 NA
ATOM     14  C   UNL     1      43.143   5.988  11.431  0.00  0.00    +0.000 A 
ATOM     15  C   UNL     1      44.379   6.486  11.848  0.00  0.00    +0.000 A 
ENDBRANCH   1   8
BRANCH   3  16
ATOM     16  C   UNL     1      48.880   6.374  15.718  0.00  0.00    +0.000 C 
BRANCH  16  17
ATOM     17  C   UNL     1      48.586   5.809  17.121  0.00  0.00    +0.000 C 
ATOM     18  C   UNL     1      49.835   5.414  17.924  0.00  0.00    +0.000 C 
ATOM     19  C   UNL     1      50.489   4.106  17.461  0.00  0.00    +0.000 C 
ATOM     20  N   UNL     1      49.524   2.992  17.418  0.00  0.00    +0.000 NA
ATOM     21  C   UNL     1      48.404   3.332  16.523  0.00  0.00    +0.000 C 
ATOM     22  C   UNL     1      47.664   4.580  17.015  0.00  0.00    +0.000 C 
BRANCH  20  23
ATOM     23  C   UNL     1      50.156   1.732  16.950  0.00  0.00    +0.000 C 
BRANCH  23  24
ATOM     24  C   UNL     1      51.584   1.510  17.478  0.00  0.00    +0.000 C 
BRANCH  24  25
ATOM     25  O   UNL     1      51.665   0.294  18.210  0.00  0.00    +0.000 OA
ATOM     26  H   UNL     1      50.808  -0.152  18.064  0.00  0.00    +0.000 HD
ENDBRANCH  24  25
ENDBRANCH  23  24
ENDBRANCH  20  23
ENDBRANCH  16  17
ENDBRANCH   3  16
TORSDOF 6
ENDMDL
MODEL 3
REMARK VINA RESULT:    -6.738      3.772      4.849
REMARK INTER + INTRA:          -9.232
REMARK INTER:                  -8.746
REMARK INTRA:                  -0.486
REMARK UNBOUND:                -0.328
REMARK  Name = 
REMARK  7 active torsions:
REMARK  status: ('A' for Active; 'I' for Inactive)
REMARK    1  A    between atoms: C_1  and  N_2
REMARK    2  A    between atoms: C_4  and  C_5
REMARK    3  A    between atoms: N_7  and  C_8
REMARK    4  A    between atoms: C_8  and  C_9
REMARK    5  A    between atoms: N_12  and  C_13
REMARK    6  A    between atoms: C_13  and  C_14
REMARK    7  A    between atoms: C_14  and  O_15
REMARK                            x       y       z     vdW  Elec       q    Type
REMARK                         _______ _______ _______ _____ _____    ______ ____
ROOT
ATOM      1  C   UNL     1      47.204   4.359  14.623  0.00  0.00    +0.000 C 
ATOM      2  O   UNL     1      47.496   3.177  14.453  0.00  0.00    +0.000 OA
ATOM      3  N   UNL     1      46.126   4.938  13.982  0.00  0.00    +0.000 N 
ATOM      4  H   UNL     1      46.009   5.941  14.057  0.00  0.00    +0.000 HD
ENDROOT
BRANCH   1   8
ATOM      5  C   UNL     1      49.568   8.362  16.242  0.00  0.00    +0.000 C 
ATOM      6  N   UNL     1      49.024   7.021  16.259  0.00  0.00    +0.000 N 
ATOM      7  C   UNL     1      48.329   6.460  15.235  0.00  0.00    +0.000 A 
ATOM      8  C   UNL     1      47.926   5.181  15.594  0.00  0.00    +0.000 A 
ATOM      9  C   UNL     1      48.355   4.994  16.962  0.00  0.00    +0.000 A 
ATOM     10  C   UNL     1      48.210   4.032  17.981  0.00  0.00    +0.000 A 
ATOM     11 CL   UNL     1      47.167   2.708  17.740  0.00  0.00    +0.000 Cl
ATOM     12  C   UNL     1      48.866   4.226  19.188  0.00  0.00    +0.000 A 
ATOM     13  N   UNL     1      49.635   5.298  19.469  0.00  0.00    +0.000 NA
ATOM     14  C   UNL     1      49.747   6.274  18.542  0.00  0.00    +0.000 A 
ATOM     15  C   UNL     1      49.103   6.139  17.311  0.00  0.00    +0.000 A 
ENDBRANCH   1   8
BRANCH   3  16
ATOM     16  C   UNL     1      45.409   4.224  12.940  0.00  0.00    +0.000 C 
BRANCH  16  17
ATOM     17  C   UNL     1      44.405   5.090  12.155  0.00  0.00    +0.000 C 
ATOM     18  C   UNL     1      43.279   4.301  11.471  0.00  0.00    +0.000 C 
ATOM     19  C   UNL     1      43.720   3.549  10.208  0.00  0.00    +0.000 C 
ATOM     20  N   UNL     1      44.393   4.439   9.243  0.00  0.00    +0.000 NA
ATOM     21  C   UNL     1      45.561   5.074   9.877  0.00  0.00    +0.000 C 
ATOM     22  C   UNL     1      45.142   5.918  11.086  0.00  0.00    +0.000 C 
BRANCH  20  23
ATOM     23  C   UNL     1      44.836   3.704   8.031  0.00  0.00    +0.000 C 
BRANCH  23  24
ATOM     24  C   UNL     1      46.359   3.717   7.809  0.00  0.00    +0.000 C 
BRANCH  24  25
ATOM     25  O   UNL     1      46.676   4.260   6.535  0.00  0.00    +0.000 OA
ATOM     26  H   UNL     1      45.873   4.738   6.251  0.00  0.00    +0.000 HD
ENDBRANCH  24  25
ENDBRANCH  23  24
ENDBRANCH  20  23
ENDBRANCH  16  17
ENDBRANCH   3  16
TORSDOF 6
ENDMDL
MODEL 4
REMARK VINA RESULT:    -6.666      3.564      4.479
REMARK INTER + INTRA:          -9.137
REMARK INTER:                  -8.611
REMARK INTRA:                  -0.526
REMARK UNBOUND:                -0.328
REMARK  Name = 
REMARK  7 active torsions:
REMARK  status: ('A' for Active; 'I' for Inactive)
REMARK    1  A    between atoms: C_1  and  N_2
REMARK    2  A    between atoms: C_4  and  C_5
REMARK    3  A    between atoms: N_7  and  C_8
REMARK    4  A    between atoms: C_8  and  C_9
REMARK    5  A    between atoms: N_12  and  C_13
REMARK    6  A    between atoms: C_13  and  C_14
REMARK    7  A    between atoms: C_14  and  O_15
REMARK                            x       y       z     vdW  Elec       q    Type
REMARK                         _______ _______ _______ _____ _____    ______ ____
ROOT
ATOM      1  C   UNL     1      47.281   4.064  15.083  0.00  0.00    +0.000 C 
ATOM      2  O   UNL     1      47.598   2.905  14.825  0.00  0.00    +0.000 OA
ATOM      3  N   UNL     1      46.306   4.726  14.361  0.00  0.00    +0.000 N 
ATOM      4  H   UNL     1      46.177   5.716  14.529  0.00  0.00    +0.000 HD
ENDROOT
BRANCH   1   8
ATOM      5  C   UNL     1      48.557   4.649  19.801  0.00  0.00    +0.000 C 
ATOM      6  N   UNL     1      48.375   4.982  18.405  0.00  0.00    +0.000 N 
ATOM      7  C   UNL     1      47.854   4.140  17.475  0.00  0.00    +0.000 A 
ATOM      8  C   UNL     1      47.851   4.763  16.235  0.00  0.00    +0.000 A 
ATOM      9  C   UNL     1      48.484   6.049  16.430  0.00  0.00    +0.000 A 
ATOM     10  C   UNL     1      48.914   7.132  15.639  0.00  0.00    +0.000 A 
ATOM     11 CL   UNL     1      48.854   7.007  13.942  0.00  0.00    +0.000 Cl
ATOM     12  C   UNL     1      49.446   8.251  16.264  0.00  0.00    +0.000 A 
ATOM     13  N   UNL     1      49.599   8.373  17.598  0.00  0.00    +0.000 NA
ATOM     14  C   UNL     1      49.259   7.330  18.386  0.00  0.00    +0.000 A 
ATOM     15  C   UNL     1      48.726   6.174  17.814  0.00  0.00    +0.000 A 
ENDBRANCH   1   8
BRANCH   3  16
ATOM     16  C   UNL     1      45.753   4.143  13.151  0.00  0.00    +0.000 C 
BRANCH  16  17
ATOM     17  C   UNL     1      44.537   4.901  12.582  0.00  0.00    +0.000 C 
ATOM     18  C   UNL     1      43.454   4.000  11.970  0.00  0.00    +0.000 C 
ATOM     19  C   UNL     1      43.821   3.424  10.596  0.00  0.00    +0.000 C 
ATOM     20  N   UNL     1      44.221   4.478   9.646  0.00  0.00    +0.000 NA
ATOM     21  C   UNL     1      45.362   5.236  10.188  0.00  0.00    +0.000 C 
ATOM     22  C   UNL     1      44.995   5.911  11.514  0.00  0.00    +0.000 C 
BRANCH  20  23
ATOM     23  C   UNL     1      44.596   3.914   8.324  0.00  0.00    +0.000 C 
BRANCH  23  24
ATOM     24  C   UNL     1      46.111   3.731   8.124  0.00  0.00    +0.000 C 
BRANCH  24  25
ATOM     25  O   UNL     1      46.542   4.372   6.931  0.00  0.00    +0.000 OA
ATOM     26  H   UNL     1      47.517   4.331   6.954  0.00  0.00    +0.000 HD
ENDBRANCH  24  25
ENDBRANCH  23  24
ENDBRANCH  20  23
ENDBRANCH  16  17
ENDBRANCH   3  16
TORSDOF 6
ENDMDL
MODEL 5
REMARK VINA RESULT:    -6.311      4.444      8.435
REMARK INTER + INTRA:          -8.668
REMARK INTER:                  -8.001
REMARK INTRA:                  -0.667
REMARK UNBOUND:                -0.328
REMARK  Name = 
REMARK  7 active torsions:
REMARK  status: ('A' for Active; 'I' for Inactive)
REMARK    1  A    between atoms: C_1  and  N_2
REMARK    2  A    between atoms: C_4  and  C_5
REMARK    3  A    between atoms: N_7  and  C_8
REMARK    4  A    between atoms: C_8  and  C_9
REMARK    5  A    between atoms: N_12  and  C_13
REMARK    6  A    between atoms: C_13  and  C_14
REMARK    7  A    between atoms: C_14  and  O_15
REMARK                            x       y       z     vdW  Elec       q    Type
REMARK                         _______ _______ _______ _____ _____    ______ ____
ROOT
ATOM      1  C   UNL     1      47.758   6.319  13.628  0.00  0.00    +0.000 C 
ATOM      2  O   UNL     1      48.824   6.150  13.040  0.00  0.00    +0.000 OA
ATOM      3  N   UNL     1      47.701   6.443  15.003  0.00  0.00    +0.000 N 
ATOM      4  H   UNL     1      46.790   6.449  15.444  0.00  0.00    +0.000 HD
ENDROOT
BRANCH   1   8
ATOM      5  C   UNL     1      44.343   8.824  11.118  0.00  0.00    +0.000 C 
ATOM      6  N   UNL     1      44.974   7.703  11.782  0.00  0.00    +0.000 N 
ATOM      7  C   UNL     1      46.193   7.750  12.380  0.00  0.00    +0.000 A 
ATOM      8  C   UNL     1      46.509   6.498  12.888  0.00  0.00    +0.000 A 
ATOM      9  C   UNL     1      45.425   5.622  12.500  0.00  0.00    +0.000 A 
ATOM     10  C   UNL     1      45.118   4.248  12.561  0.00  0.00    +0.000 A 
ATOM     11 CL   UNL     1      46.298   3.150  13.110  0.00  0.00    +0.000 Cl
ATOM     12  C   UNL     1      43.883   3.815  12.102  0.00  0.00    +0.000 A 
ATOM     13  N   UNL     1      42.942   4.625  11.577  0.00  0.00    +0.000 NA
ATOM     14  C   UNL     1      43.223   5.939  11.441  0.00  0.00    +0.000 A 
ATOM     15  C   UNL     1      44.453   6.434  11.877  0.00  0.00    +0.000 A 
ENDBRANCH   1   8
BRANCH   3  16
ATOM     16  C   UNL     1      48.874   6.193  15.821  0.00  0.00    +0.000 C 
BRANCH  16  17
ATOM     17  C   UNL     1      48.774   4.932  16.703  0.00  0.00    +0.000 C 
ATOM     18  C   UNL     1      47.384   4.687  17.309  0.00  0.00    +0.000 C 
ATOM     19  C   UNL     1      47.040   5.616  18.481  0.00  0.00    +0.000 C 
ATOM     20  N   UNL     1      48.077   5.589  19.529  0.00  0.00    +0.000 NA
ATOM     21  C   UNL     1      49.379   5.973  18.956  0.00  0.00    +0.000 C 
ATOM     22  C   UNL     1      49.801   5.002  17.847  0.00  0.00    +0.000 C 
BRANCH  20  23
ATOM     23  C   UNL     1      47.751   6.504  20.652  0.00  0.00    +0.000 C 
BRANCH  23  24
ATOM     24  C   UNL     1      47.412   5.786  21.971  0.00  0.00    +0.000 C 
BRANCH  24  25
ATOM     25  O   UNL     1      47.722   4.402  21.883  0.00  0.00    +0.000 OA
ATOM     26  H   UNL     1      48.678   4.364  21.685  0.00  0.00    +0.000 HD
ENDBRANCH  24  25
ENDBRANCH  23  24
ENDBRANCH  20  23
ENDBRANCH  16  17
ENDBRANCH   3  16
TORSDOF 6
ENDMDL
MODEL 6
REMARK VINA RESULT:    -6.285      4.226      7.385
REMARK INTER + INTRA:          -8.634
REMARK INTER:                  -7.942
REMARK INTRA:                  -0.692
REMARK UNBOUND:                -0.328
REMARK  Name = 
REMARK  7 active torsions:
REMARK  status: ('A' for Active; 'I' for Inactive)
REMARK    1  A    between atoms: C_1  and  N_2
REMARK    2  A    between atoms: C_4  and  C_5
REMARK    3  A    between atoms: N_7  and  C_8
REMARK    4  A    between atoms: C_8  and  C_9
REMARK    5  A    between atoms: N_12  and  C_13
REMARK    6  A    between atoms: C_13  and  C_14
REMARK    7  A    between atoms: C_14  and  O_15
REMARK                            x       y       z     vdW  Elec       q    Type
REMARK                         _______ _______ _______ _____ _____    ______ ____
ROOT
ATOM      1  C   UNL     1      46.978   5.235  13.974  0.00  0.00    +0.000 C 
ATOM      2  O   UNL     1      48.181   5.398  13.786  0.00  0.00    +0.000 OA
ATOM      3  N   UNL     1      46.505   4.466  15.020  0.00  0.00    +0.000 N 
ATOM      4  H   UNL     1      45.514   4.259  15.051  0.00  0.00    +0.000 HD
ENDROOT
BRANCH   1   8
ATOM      5  C   UNL     1      42.950   5.645  11.172  0.00  0.00    +0.000 C 
ATOM      6  N   UNL     1      44.160   6.047  11.858  0.00  0.00    +0.000 N 
ATOM      7  C   UNL     1      44.922   5.221  12.622  0.00  0.00    +0.000 A 
ATOM      8  C   UNL     1      45.986   5.934  13.156  0.00  0.00    +0.000 A 
ATOM      9  C   UNL     1      45.803   7.305  12.735  0.00  0.00    +0.000 A 
ATOM     10  C   UNL     1      46.398   8.560  12.972  0.00  0.00    +0.000 A 
ATOM     11 CL   UNL     1      47.615   8.700  14.155  0.00  0.00    +0.000 Cl
ATOM     12  C   UNL     1      45.925   9.668  12.286  0.00  0.00    +0.000 A 
ATOM     13  N   UNL     1      44.906   9.636  11.402  0.00  0.00    +0.000 NA
ATOM     14  C   UNL     1      44.268   8.465  11.195  0.00  0.00    +0.000 A 
ATOM     15  C   UNL     1      44.693   7.315  11.864  0.00  0.00    +0.000 A 
ENDBRANCH   1   8
BRANCH   3  16
ATOM     16  C   UNL     1      47.413   3.668  15.825  0.00  0.00    +0.000 C 
BRANCH  16  17
ATOM     17  C   UNL     1      47.616   4.194  17.260  0.00  0.00    +0.000 C 
ATOM     18  C   UNL     1      48.380   5.523  17.350  0.00  0.00    +0.000 C 
ATOM     19  C   UNL     1      49.891   5.393  17.113  0.00  0.00    +0.000 C 
ATOM     20  N   UNL     1      50.502   4.380  17.993  0.00  0.00    +0.000 NA
ATOM     21  C   UNL     1      49.851   3.075  17.783  0.00  0.00    +0.000 C 
ATOM     22  C   UNL     1      48.356   3.145  18.110  0.00  0.00    +0.000 C 
BRANCH  20  23
ATOM     23  C   UNL     1      51.960   4.242  17.747  0.00  0.00    +0.000 C 
BRANCH  23  24
ATOM     24  C   UNL     1      52.526   2.851  18.082  0.00  0.00    +0.000 C 
BRANCH  24  25
ATOM     25  O   UNL     1      52.943   2.792  19.439  0.00  0.00    +0.000 OA
ATOM     26  H   UNL     1      53.574   2.048  19.483  0.00  0.00    +0.000 HD
ENDBRANCH  24  25
ENDBRANCH  23  24
ENDBRANCH  20  23
ENDBRANCH  16  17
ENDBRANCH   3  16
TORSDOF 6
ENDMDL
MODEL 7
REMARK VINA RESULT:    -6.106      4.295      6.158
REMARK INTER + INTRA:          -8.398
REMARK INTER:                  -7.768
REMARK INTRA:                  -0.630
REMARK UNBOUND:                -0.328
REMARK  Name = 
REMARK  7 active torsions:
REMARK  status: ('A' for Active; 'I' for Inactive)
REMARK    1  A    between atoms: C_1  and  N_2
REMARK    2  A    between atoms: C_4  and  C_5
REMARK    3  A    between atoms: N_7  and  C_8
REMARK    4  A    between atoms: C_8  and  C_9
REMARK    5  A    between atoms: N_12  and  C_13
REMARK    6  A    between atoms: C_13  and  C_14
REMARK    7  A    between atoms: C_14  and  O_15
REMARK                            x       y       z     vdW  Elec       q    Type
REMARK                         _______ _______ _______ _____ _____    ______ ____
ROOT
ATOM      1  C   UNL     1      48.712   6.763  14.936  0.00  0.00    +0.000 C 
ATOM      2  O   UNL     1      49.758   6.911  14.308  0.00  0.00    +0.000 OA
ATOM      3  N   UNL     1      47.591   6.199  14.355  0.00  0.00    +0.000 N 
ATOM      4  H   UNL     1      46.723   6.220  14.874  0.00  0.00    +0.000 HD
ENDROOT
BRANCH   1   8
ATOM      5  C   UNL     1      48.488   9.713  18.871  0.00  0.00    +0.000 C 
ATOM      6  N   UNL     1      48.571   8.483  18.114  0.00  0.00    +0.000 N 
ATOM      7  C   UNL     1      48.581   8.413  16.757  0.00  0.00    +0.000 A 
ATOM      8  C   UNL     1      48.636   7.084  16.361  0.00  0.00    +0.000 A 
ATOM      9  C   UNL     1      48.583   6.300  17.576  0.00  0.00    +0.000 A 
ATOM     10  C   UNL     1      48.488   4.943  17.941  0.00  0.00    +0.000 A 
ATOM     11 CL   UNL     1      48.238   3.767  16.736  0.00  0.00    +0.000 Cl
ATOM     12  C   UNL     1      48.528   4.604  19.285  0.00  0.00    +0.000 A 
ATOM     13  N   UNL     1      48.637   5.498  20.290  0.00  0.00    +0.000 NA
ATOM     14  C   UNL     1      48.665   6.813  19.985  0.00  0.00    +0.000 A 
ATOM     15  C   UNL     1      48.620   7.216  18.649  0.00  0.00    +0.000 A 
ENDBRANCH   1   8
BRANCH   3  16
ATOM     16  C   UNL     1      47.549   5.933  12.928  0.00  0.00    +0.000 C 
BRANCH  16  17
ATOM     17  C   UNL     1      46.572   6.832  12.145  0.00  0.00    +0.000 C 
ATOM     18  C   UNL     1      45.263   7.146  12.885  0.00  0.00    +0.000 C 
ATOM     19  C   UNL     1      44.267   5.979  12.918  0.00  0.00    +0.000 C 
ATOM     20  N   UNL     1      43.990   5.452  11.569  0.00  0.00    +0.000 NA
ATOM     21  C   UNL     1      45.246   5.017  10.932  0.00  0.00    +0.000 C 
ATOM     22  C   UNL     1      46.226   6.187  10.791  0.00  0.00    +0.000 C 
BRANCH  20  23
ATOM     23  C   UNL     1      43.042   4.309  11.607  0.00  0.00    +0.000 C 
BRANCH  23  24
ATOM     24  C   UNL     1      43.692   2.965  11.979  0.00  0.00    +0.000 C 
BRANCH  24  25
ATOM     25  O   UNL     1      42.841   1.882  11.628  0.00  0.00    +0.000 OA
ATOM     26  H   UNL     1      42.945   1.229  12.347  0.00  0.00    +0.000 HD
ENDBRANCH  24  25
ENDBRANCH  23  24
ENDBRANCH  20  23
ENDBRANCH  16  17
ENDBRANCH   3  16
TORSDOF 6
ENDMDL
MODEL 8
REMARK VINA RESULT:    -6.022      4.034      7.543
REMARK INTER + INTRA:          -8.287
REMARK INTER:                  -7.604
REMARK INTRA:                  -0.683
REMARK UNBOUND:                -0.328
REMARK  Name = 
REMARK  7 active torsions:
REMARK  status: ('A' for Active; 'I' for Inactive)
REMARK    1  A    between atoms: C_1  and  N_2
REMARK    2  A    between atoms: C_4  and  C_5
REMARK    3  A    between atoms: N_7  and  C_8
REMARK    4  A    between atoms: C_8  and  C_9
REMARK    5  A    between atoms: N_12  and  C_13
REMARK    6  A    between atoms: C_13  and  C_14
REMARK    7  A    between atoms: C_14  and  O_15
REMARK                            x       y       z     vdW  Elec       q    Type
REMARK                         _______ _______ _______ _____ _____    ______ ____
ROOT
ATOM      1  C   UNL     1      47.205   5.340  14.183  0.00  0.00    +0.000 C 
ATOM      2  O   UNL     1      48.391   5.657  14.180  0.00  0.00    +0.000 OA
ATOM      3  N   UNL     1      46.708   4.398  15.065  0.00  0.00    +0.000 N 
ATOM      4  H   UNL     1      45.756   4.080  14.938  0.00  0.00    +0.000 HD
ENDROOT
BRANCH   1   8
ATOM      5  C   UNL     1      45.064   9.204  12.011  0.00  0.00    +0.000 C 
ATOM      6  N   UNL     1      45.287   7.825  12.389  0.00  0.00    +0.000 N 
ATOM      7  C   UNL     1      46.300   7.400  13.187  0.00  0.00    +0.000 A 
ATOM      8  C   UNL     1      46.240   6.020  13.319  0.00  0.00    +0.000 A 
ATOM      9  C   UNL     1      45.148   5.584  12.477  0.00  0.00    +0.000 A 
ATOM     10  C   UNL     1      44.588   4.368  12.038  0.00  0.00    +0.000 A 
ATOM     11 CL   UNL     1      45.365   2.902  12.419  0.00  0.00    +0.000 Cl
ATOM     12  C   UNL     1      43.452   4.400  11.243  0.00  0.00    +0.000 A 
ATOM     13  N   UNL     1      42.842   5.532  10.837  0.00  0.00    +0.000 NA
ATOM     14  C   UNL     1      43.385   6.718  11.182  0.00  0.00    +0.000 A 
ATOM     15  C   UNL     1      44.534   6.751  11.975  0.00  0.00    +0.000 A 
ENDBRANCH   1   8
BRANCH   3  16
ATOM     16  C   UNL     1      47.605   3.612  15.895  0.00  0.00    +0.000 C 
BRANCH  16  17
ATOM     17  C   UNL     1      47.372   3.777  17.409  0.00  0.00    +0.000 C 
ATOM     18  C   UNL     1      47.324   5.234  17.893  0.00  0.00    +0.000 C 
ATOM     19  C   UNL     1      48.697   5.916  17.962  0.00  0.00    +0.000 C 
ATOM     20  N   UNL     1      49.661   5.135  18.758  0.00  0.00    +0.000 NA
ATOM     21  C   UNL     1      49.805   3.785  18.187  0.00  0.00    +0.000 C 
ATOM     22  C   UNL     1      48.468   3.036  18.197  0.00  0.00    +0.000 C 
BRANCH  20  23
ATOM     23  C   UNL     1      50.994   5.788  18.806  0.00  0.00    +0.000 C 
BRANCH  23  24
ATOM     24  C   UNL     1      51.282   6.718  17.614  0.00  0.00    +0.000 C 
BRANCH  24  25
ATOM     25  O   UNL     1      52.014   6.032  16.607  0.00  0.00    +0.000 OA
ATOM     26  H   UNL     1      52.784   6.601  16.415  0.00  0.00    +0.000 HD
ENDBRANCH  24  25
ENDBRANCH  23  24
ENDBRANCH  20  23
ENDBRANCH  16  17
ENDBRANCH   3  16
TORSDOF 6
ENDMDL
MODEL 9
REMARK VINA RESULT:    -5.917      4.458      8.207
REMARK INTER + INTRA:          -8.148
REMARK INTER:                  -7.605
REMARK INTRA:                  -0.544
REMARK UNBOUND:                -0.328
REMARK  Name = 
REMARK  7 active torsions:
REMARK  status: ('A' for Active; 'I' for Inactive)
REMARK    1  A    between atoms: C_1  and  N_2
REMARK    2  A    between atoms: C_4  and  C_5
REMARK    3  A    between atoms: N_7  and  C_8
REMARK    4  A    between atoms: C_8  and  C_9
REMARK    5  A    between atoms: N_12  and  C_13
REMARK    6  A    between atoms: C_13  and  C_14
REMARK    7  A    between atoms: C_14  and  O_15
REMARK                            x       y       z     vdW  Elec       q    Type
REMARK                         _______ _______ _______ _____ _____    ______ ____
ROOT
ATOM      1  C   UNL     1      46.814   4.340  14.302  0.00  0.00    +0.000 C 
ATOM      2  O   UNL     1      47.307   3.327  13.810  0.00  0.00    +0.000 OA
ATOM      3  N   UNL     1      46.943   4.628  15.648  0.00  0.00    +0.000 N 
ATOM      4  H   UNL     1      46.410   5.403  16.023  0.00  0.00    +0.000 HD
ENDROOT
BRANCH   1   8
ATOM      5  C   UNL     1      46.243   8.735  12.160  0.00  0.00    +0.000 C 
ATOM      6  N   UNL     1      45.933   7.376  12.546  0.00  0.00    +0.000 N 
ATOM      7  C   UNL     1      46.734   6.592  13.314  0.00  0.00    +0.000 A 
ATOM      8  C   UNL     1      46.153   5.340  13.464  0.00  0.00    +0.000 A 
ATOM      9  C   UNL     1      44.947   5.359  12.666  0.00  0.00    +0.000 A 
ATOM     10  C   UNL     1      43.947   4.453  12.262  0.00  0.00    +0.000 A 
ATOM     11 CL   UNL     1      44.116   2.800  12.632  0.00  0.00    +0.000 Cl
ATOM     12  C   UNL     1      42.882   4.921  11.506  0.00  0.00    +0.000 A 
ATOM     13  N   UNL     1      42.739   6.201  11.108  0.00  0.00    +0.000 NA
ATOM     14  C   UNL     1      43.709   7.087  11.420  0.00  0.00    +0.000 A 
ATOM     15  C   UNL     1      44.810   6.674  12.172  0.00  0.00    +0.000 A 
ENDBRANCH   1   8
BRANCH   3  16
ATOM     16  C   UNL     1      47.504   3.653  16.566  0.00  0.00    +0.000 C 
BRANCH  16  17
ATOM     17  C   UNL     1      48.938   3.973  17.030  0.00  0.00    +0.000 C 
ATOM     18  C   UNL     1      49.286   3.455  18.433  0.00  0.00    +0.000 C 
ATOM     19  C   UNL     1      48.663   4.272  19.574  0.00  0.00    +0.000 C 
ATOM     20  N   UNL     1      48.975   5.708  19.457  0.00  0.00    +0.000 NA
ATOM     21  C   UNL     1      48.499   6.221  18.160  0.00  0.00    +0.000 C 
ATOM     22  C   UNL     1      49.180   5.493  16.996  0.00  0.00    +0.000 C 
BRANCH  20  23
ATOM     23  C   UNL     1      48.354   6.498  20.551  0.00  0.00    +0.000 C 
BRANCH  23  24
ATOM     24  C   UNL     1      48.608   8.013  20.455  0.00  0.00    +0.000 C 
BRANCH  24  25
ATOM     25  O   UNL     1      47.402   8.738  20.657  0.00  0.00    +0.000 OA
ATOM     26  H   UNL     1      46.792   8.108  21.089  0.00  0.00    +0.000 HD
ENDBRANCH  24  25
ENDBRANCH  23  24
ENDBRANCH  20  23
ENDBRANCH  16  17
ENDBRANCH   3  16
TORSDOF 6
ENDMDL
