MODEL 1
REMARK VINA RESULT:    -8.470      0.000      0.000
REMARK INTER + INTRA:         -11.141
REMARK INTER:                 -10.451
REMARK INTRA:                  -0.691
REMARK UNBOUND:                -0.691
REMARK  Name = 
REMARK  4 active torsions:
REMARK  status: ('A' for Active; 'I' for Inactive)
REMARK    1  A    between atoms: C_2  and  C_4
REMARK    2  A    between atoms: N_8  and  C_9
REMARK    3  A    between atoms: C_9  and  C_10
REMARK    4  A    between atoms: C_10  and  C_11
REMARK                            x       y       z     vdW  Elec       q    Type
REMARK                         _______ _______ _______ _____ _____    ______ ____
ROOT
ATOM      1  C   UNL     1      43.224   4.549  10.932  0.00  0.00    +0.000 C 
ENDROOT
BRANCH   1   6
ATOM      2  C   UNL     1      46.511   2.413   7.678  0.00  0.00    +0.000 A 
ATOM      3  C   UNL     1      45.727   1.880   8.691  0.00  0.00    +0.000 A 
ATOM      4  C   UNL     1      44.931   2.736   9.442  0.00  0.00    +0.000 A 
ATOM      5  C   UNL     1      44.930   4.107   9.190  0.00  0.00    +0.000 A 
ATOM      6  N   UNL     1      44.137   4.983   9.893  0.00  0.00    +0.000 N 
ATOM      7  N   UNL     1      45.712   4.634   8.229  0.00  0.00    +0.000 NA
ATOM      8  C   UNL     1      46.493   3.787   7.499  0.00  0.00    +0.000 A 
ATOM      9  H   UNL     1      44.235   5.954   9.624  0.00  0.00    +0.000 HD
BRANCH   2  11
ATOM     10  N   UNL     1      48.490   2.125   6.312  0.00  0.00    +0.000 N 
ATOM     11  C   UNL     1      47.350   1.556   6.817  0.00  0.00    +0.000 C 
ATOM     12  O   UNL     1      47.059   0.391   6.591  0.00  0.00    +0.000 OA
ATOM     13  H   UNL     1      49.110   1.521   5.791  0.00  0.00    +0.000 HD
ATOM     14  H   UNL     1      48.870   2.988   6.675  0.00  0.00    +0.000 HD
ENDBRANCH   2  11
ENDBRANCH   1   6
BRANCH   1  15
ATOM     15  C   UNL     1      43.394   5.326  12.238  0.00  0.00    +0.000 C 
BRANCH  15  16
ATOM     16  C   UNL     1      44.816   5.229  12.739  0.00  0.00    +0.000 A 
ATOM     17  C   UNL     1      45.359   4.022  13.167  0.00  0.00    +0.000 A 
ATOM     18  C   UNL     1      46.692   4.004  13.548  0.00  0.00    +0.000 A 
ATOM     19  N   UNL     1      47.510   5.081  13.520  0.00  0.00    +0.000 NA
ATOM     20  C   UNL     1      46.990   6.263  13.132  0.00  0.00    +0.000 A 
ATOM     21  N   UNL     1      47.793   7.389  13.086  0.00  0.00    +0.000 N 
ATOM     22  C   UNL     1      49.222   7.247  12.830  0.00  0.00    +0.000 C 
ATOM     23  C   UNL     1      50.059   7.641  14.044  0.00  0.00    +0.000 C 
ATOM     24  C   UNL     1      49.639   8.998  14.601  0.00  0.00    +0.000 C 
ATOM     25  C   UNL     1      48.145   9.013  14.903  0.00  0.00    +0.000 C 
ATOM     26  C   UNL     1      47.321   8.640  13.672  0.00  0.00    +0.000 C 
ATOM     27  C   UNL     1      45.654   6.352  12.727  0.00  0.00    +0.000 A 
ENDBRANCH  15  16
ENDBRANCH   1  15
TORSDOF 4
ENDMDL
MODEL 2
REMARK VINA RESULT:    -8.044      2.296      3.164
REMARK INTER + INTRA:         -10.616
REMARK INTER:                 -10.072
REMARK INTRA:                  -0.544
REMARK UNBOUND:                -0.691
REMARK  Name = 
REMARK  4 active torsions:
REMARK  status: ('A' for Active; 'I' for Inactive)
REMARK    1  A    between atoms: C_2  and  C_4
REMARK    2  A    between atoms: N_8  and  C_9
REMARK    3  A    between atoms: C_9  and  C_10
REMARK    4  A    between atoms: C_10  and  C_11
REMARK                            x       y       z     vdW  Elec       q    Type
REMARK                         _______ _______ _______ _____ _____    ______ ____
ROOT
ATOM      1  C   UNL     1      44.054   4.677  11.250  0.00  0.00    +0.000 C 
ENDROOT
BRANCH   1   6
ATOM      2  C   UNL     1      46.576   2.832   7.227  0.00  0.00    +0.000 A 
ATOM      3  C   UNL     1      46.254   4.127   7.608  0.00  0.00    +0.000 A 
ATOM      4  C   UNL     1      45.519   4.318   8.771  0.00  0.00    +0.000 A 
ATOM      5  C   UNL     1      45.103   3.229   9.535  0.00  0.00    +0.000 A 
ATOM      6  N   UNL     1      44.397   3.379  10.706  0.00  0.00    +0.000 N 
ATOM      7  N   UNL     1      45.384   1.969   9.153  0.00  0.00    +0.000 NA
ATOM      8  C   UNL     1      46.103   1.789   8.007  0.00  0.00    +0.000 A 
ATOM      9  H   UNL     1      44.142   2.512  11.162  0.00  0.00    +0.000 HD
BRANCH   2  11
ATOM     10  N   UNL     1      48.740   2.455   6.207  0.00  0.00    +0.000 N 
ATOM     11  C   UNL     1      47.386   2.558   6.023  0.00  0.00    +0.000 C 
ATOM     12  O   UNL     1      46.873   2.402   4.925  0.00  0.00    +0.000 OA
ATOM     13  H   UNL     1      49.291   2.187   5.404  0.00  0.00    +0.000 HD
ATOM     14  H   UNL     1      49.154   2.338   7.122  0.00  0.00    +0.000 HD
ENDBRANCH   2  11
ENDBRANCH   1   6
BRANCH   1  15
ATOM     15  C   UNL     1      44.162   4.733  12.774  0.00  0.00    +0.000 C 
BRANCH  15  16
ATOM     16  C   UNL     1      45.576   5.052  13.201  0.00  0.00    +0.000 A 
ATOM     17  C   UNL     1      46.434   5.788  12.391  0.00  0.00    +0.000 A 
ATOM     18  C   UNL     1      47.693   6.097  12.883  0.00  0.00    +0.000 A 
ATOM     19  N   UNL     1      48.143   5.741  14.109  0.00  0.00    +0.000 NA
ATOM     20  C   UNL     1      47.331   5.004  14.894  0.00  0.00    +0.000 A 
ATOM     21  N   UNL     1      47.751   4.622  16.156  0.00  0.00    +0.000 N 
ATOM     22  C   UNL     1      48.699   5.456  16.885  0.00  0.00    +0.000 C 
ATOM     23  C   UNL     1      50.046   4.762  17.066  0.00  0.00    +0.000 C 
ATOM     24  C   UNL     1      49.881   3.348  17.615  0.00  0.00    +0.000 C 
ATOM     25  C   UNL     1      48.931   2.541  16.738  0.00  0.00    +0.000 C 
ATOM     26  C   UNL     1      47.580   3.238  16.587  0.00  0.00    +0.000 C 
ATOM     27  C   UNL     1      46.044   4.664  14.463  0.00  0.00    +0.000 A 
ENDBRANCH  15  16
ENDBRANCH   1  15
TORSDOF 4
ENDMDL
MODEL 3
REMARK VINA RESULT:    -7.885      1.553      2.371
REMARK INTER + INTRA:         -10.420
REMARK INTER:                  -9.760
REMARK INTRA:                  -0.660
REMARK UNBOUND:                -0.691
REMARK  Name = 
REMARK  4 active torsions:
REMARK  status: ('A' for Active; 'I' for Inactive)
REMARK    1  A    between atoms: C_2  and  C_4
REMARK    2  A    between atoms: N_8  and  C_9
REMARK    3  A    between atoms: C_9  and  C_10
REMARK    4  A    between atoms: C_10  and  C_11
REMARK                            x       y       z     vdW  Elec       q    Type
REMARK                         _______ _______ _______ _____ _____    ______ ____
ROOT
ATOM      1  C   UNL     1      43.504   3.624  11.123  0.00  0.00    +0.000 C 
ENDROOT
BRANCH   1   6
ATOM      2  C   UNL     1      46.546   2.516   7.190  0.00  0.00    +0.000 A 
ATOM      3  C   UNL     1      45.972   3.705   7.614  0.00  0.00    +0.000 A 
ATOM      4  C   UNL     1      45.149   3.689   8.734  0.00  0.00    +0.000 A 
ATOM      5  C   UNL     1      44.896   2.497   9.410  0.00  0.00    +0.000 A 
ATOM      6  N   UNL     1      44.110   2.444  10.537  0.00  0.00    +0.000 N 
ATOM      7  N   UNL     1      45.424   1.334   8.985  0.00  0.00    +0.000 NA
ATOM      8  C   UNL     1      46.228   1.359   7.882  0.00  0.00    +0.000 A 
ATOM      9  H   UNL     1      43.992   1.519  10.930  0.00  0.00    +0.000 HD
BRANCH   2  11
ATOM     10  N   UNL     1      48.788   2.681   6.290  0.00  0.00    +0.000 N 
ATOM     11  C   UNL     1      47.460   2.468   6.031  0.00  0.00    +0.000 C 
ATOM     12  O   UNL     1      47.056   2.222   4.904  0.00  0.00    +0.000 OA
ATOM     13  H   UNL     1      49.429   2.567   5.516  0.00  0.00    +0.000 HD
ATOM     14  H   UNL     1      49.170   2.643   7.225  0.00  0.00    +0.000 HD
ENDBRANCH   2  11
ENDBRANCH   1   6
BRANCH   1  15
ATOM     15  C   UNL     1      44.250   4.126  12.359  0.00  0.00    +0.000 C 
BRANCH  15  16
ATOM     16  C   UNL     1      44.749   5.537  12.149  0.00  0.00    +0.000 A 
ATOM     17  C   UNL     1      43.981   6.492  11.492  0.00  0.00    +0.000 A 
ATOM     18  C   UNL     1      44.482   7.782  11.399  0.00  0.00    +0.000 A 
ATOM     19  N   UNL     1      45.666   8.182  11.918  0.00  0.00    +0.000 NA
ATOM     20  C   UNL     1      46.432   7.259  12.534  0.00  0.00    +0.000 A 
ATOM     21  N   UNL     1      47.650   7.626  13.081  0.00  0.00    +0.000 N 
ATOM     22  C   UNL     1      47.843   8.989  13.563  0.00  0.00    +0.000 C 
ATOM     23  C   UNL     1      48.862   9.751  12.721  0.00  0.00    +0.000 C 
ATOM     24  C   UNL     1      50.147   8.950  12.531  0.00  0.00    +0.000 C 
ATOM     25  C   UNL     1      49.837   7.573  11.954  0.00  0.00    +0.000 C 
ATOM     26  C   UNL     1      48.834   6.814  12.822  0.00  0.00    +0.000 C 
ATOM     27  C   UNL     1      45.985   5.940  12.670  0.00  0.00    +0.000 A 
ENDBRANCH  15  16
ENDBRANCH   1  15
TORSDOF 4
ENDMDL
MODEL 4
REMARK VINA RESULT:    -6.471      3.068      5.592
REMARK INTER + INTRA:          -8.675
REMARK INTER:                  -7.862
REMARK INTRA:                  -0.813
REMARK UNBOUND:                -0.691
REMARK  Name = 
REMARK  4 active torsions:
REMARK  status: ('A' for Active; 'I' for Inactive)
REMARK    1  A    between atoms: C_2  and  C_4
REMARK    2  A    between atoms: N_8  and  C_9
REMARK    3  A    between atoms: C_9  and  C_10
REMARK    4  A    between atoms: C_10  and  C_11
REMARK                            x       y       z     vdW  Elec       q    Type
REMARK                         _______ _______ _______ _____ _____    ______ ____
ROOT
ATOM      1  C   UNL     1      47.788   8.548  13.016  0.00  0.00    +0.000 C 
ENDROOT
BRANCH   1   6
ATOM      2  C   UNL     1      44.780   4.596  11.886  0.00  0.00    +0.000 A 
ATOM      3  C   UNL     1      45.161   5.157  13.096  0.00  0.00    +0.000 A 
ATOM      4  C   UNL     1      46.032   6.240  13.086  0.00  0.00    +0.000 A 
ATOM      5  C   UNL     1      46.523   6.743  11.883  0.00  0.00    +0.000 A 
ATOM      6  N   UNL     1      47.366   7.829  11.831  0.00  0.00    +0.000 N 
ATOM      7  N   UNL     1      46.183   6.183  10.708  0.00  0.00    +0.000 NA
ATOM      8  C   UNL     1      45.330   5.118  10.726  0.00  0.00    +0.000 A 
ATOM      9  H   UNL     1      47.663   8.091  10.899  0.00  0.00    +0.000 HD
BRANCH   2  11
ATOM     10  N   UNL     1      44.104   2.388  12.616  0.00  0.00    +0.000 N 
ATOM     11  C   UNL     1      43.828   3.469  11.821  0.00  0.00    +0.000 C 
ATOM     12  O   UNL     1      42.829   3.511  11.117  0.00  0.00    +0.000 OA
ATOM     13  H   UNL     1      43.414   1.649  12.639  0.00  0.00    +0.000 HD
ATOM     14  H   UNL     1      44.773   2.429  13.372  0.00  0.00    +0.000 HD
ENDBRANCH   2  11
ENDBRANCH   1   6
BRANCH   1  15
ATOM     15  C   UNL     1      49.309   8.621  13.160  0.00  0.00    +0.000 C 
BRANCH  15  16
ATOM     16  C   UNL     1      49.781   7.754  14.304  0.00  0.00    +0.000 A 
ATOM     17  C   UNL     1      51.106   7.761  14.727  0.00  0.00    +0.000 A 
ATOM     18  C   UNL     1      51.445   6.988  15.827  0.00  0.00    +0.000 A 
ATOM     19  N   UNL     1      50.570   6.232  16.529  0.00  0.00    +0.000 NA
ATOM     20  C   UNL     1      49.288   6.194  16.113  0.00  0.00    +0.000 A 
ATOM     21  N   UNL     1      48.359   5.436  16.805  0.00  0.00    +0.000 N 
ATOM     22  C   UNL     1      48.536   5.206  18.235  0.00  0.00    +0.000 C 
ATOM     23  C   UNL     1      48.822   3.739  18.543  0.00  0.00    +0.000 C 
ATOM     24  C   UNL     1      47.817   2.814  17.863  0.00  0.00    +0.000 C 
ATOM     25  C   UNL     1      47.766   3.088  16.365  0.00  0.00    +0.000 C 
ATOM     26  C   UNL     1      47.455   4.555  16.074  0.00  0.00    +0.000 C 
ATOM     27  C   UNL     1      48.874   6.957  15.015  0.00  0.00    +0.000 A 
ENDBRANCH  15  16
ENDBRANCH   1  15
TORSDOF 4
ENDMDL
MODEL 5
REMARK VINA RESULT:    -6.403      4.393      7.475
REMARK INTER + INTRA:          -8.591
REMARK INTER:                  -7.837
REMARK INTRA:                  -0.754
REMARK UNBOUND:                -0.691
REMARK  Name = 
REMARK  4 active torsions:
REMARK  status: ('A' for Active; 'I' for Inactive)
REMARK    1  A    between atoms: C_2  and  C_4
REMARK    2  A    between atoms: N_8  and  C_9
REMARK    3  A    between atoms: C_9  and  C_10
REMARK    4  A    between atoms: C_10  and  C_11
REMARK                            x       y       z     vdW  Elec       q    Type
REMARK                         _______ _______ _______ _____ _____    ______ ____
ROOT
ATOM      1  C   UNL     1      47.101   9.950  11.992  0.00  0.00    +0.000 C 
ENDROOT
BRANCH   1   6
ATOM      2  C   UNL     1      42.194  10.710  10.854  0.00  0.00    +0.000 A 
ATOM      3  C   UNL     1      43.040   9.631  10.645  0.00  0.00    +0.000 A 
ATOM      4  C   UNL     1      44.364   9.730  11.053  0.00  0.00    +0.000 A 
ATOM      5  C   UNL     1      44.837  10.897  11.649  0.00  0.00    +0.000 A 
ATOM      6  N   UNL     1      46.134  11.025  12.090  0.00  0.00    +0.000 N 
ATOM      7  N   UNL     1      44.030  11.961  11.825  0.00  0.00    +0.000 NA
ATOM      8  C   UNL     1      42.731  11.856  11.419  0.00  0.00    +0.000 A 
ATOM      9  H   UNL     1      46.358  11.926  12.494  0.00  0.00    +0.000 HD
BRANCH   2  11
ATOM     10  N   UNL     1      40.005   9.704  11.102  0.00  0.00    +0.000 N 
ATOM     11  C   UNL     1      40.767  10.659  10.480  0.00  0.00    +0.000 C 
ATOM     12  O   UNL     1      40.282  11.446   9.680  0.00  0.00    +0.000 OA
ATOM     13  H   UNL     1      39.012   9.717  10.913  0.00  0.00    +0.000 HD
ATOM     14  H   UNL     1      40.320   9.214  11.928  0.00  0.00    +0.000 HD
ENDBRANCH   2  11
ENDBRANCH   1   6
BRANCH   1  15
ATOM     15  C   UNL     1      47.550   9.426  13.356  0.00  0.00    +0.000 C 
BRANCH  15  16
ATOM     16  C   UNL     1      47.279   7.944  13.477  0.00  0.00    +0.000 A 
ATOM     17  C   UNL     1      48.086   7.115  14.249  0.00  0.00    +0.000 A 
ATOM     18  C   UNL     1      47.731   5.779  14.363  0.00  0.00    +0.000 A 
ATOM     19  N   UNL     1      46.642   5.225  13.782  0.00  0.00    +0.000 NA
ATOM     20  C   UNL     1      45.866   6.012  13.009  0.00  0.00    +0.000 A 
ATOM     21  N   UNL     1      44.740   5.486  12.399  0.00  0.00    +0.000 N 
ATOM     22  C   UNL     1      44.036   4.371  13.022  0.00  0.00    +0.000 C 
ATOM     23  C   UNL     1      44.140   3.096  12.190  0.00  0.00    +0.000 C 
ATOM     24  C   UNL     1      43.780   3.347  10.728  0.00  0.00    +0.000 C 
ATOM     25  C   UNL     1      44.625   4.479  10.156  0.00  0.00    +0.000 C 
ATOM     26  C   UNL     1      44.490   5.754  10.986  0.00  0.00    +0.000 C 
ATOM     27  C   UNL     1      46.161   7.371  12.856  0.00  0.00    +0.000 A 
ENDBRANCH  15  16
ENDBRANCH   1  15
TORSDOF 4
ENDMDL
MODEL 6
REMARK VINA RESULT:    -6.363      3.106      6.892
REMARK INTER + INTRA:          -8.542
REMARK INTER:                  -7.838
REMARK INTRA:                  -0.704
REMARK UNBOUND:                -0.691
REMARK  Name = 
REMARK  4 active torsions:
REMARK  status: ('A' for Active; 'I' for Inactive)
REMARK    1  A    between atoms: C_2  and  C_4
REMARK    2  A    between atoms: N_8  and  C_9
REMARK    3  A    between atoms: C_9  and  C_10
REMARK    4  A    between atoms: C_10  and  C_11
REMARK                            x       y       z     vdW  Elec       q    Type
REMARK                         _______ _______ _______ _____ _____    ______ ____
ROOT
ATOM      1  C   UNL     1      45.828   8.812  12.992  0.00  0.00    +0.000 C 
ENDROOT
BRANCH   1   6
ATOM      2  C   UNL     1      50.628   8.603  11.297  0.00  0.00    +0.000 A 
ATOM      3  C   UNL     1      49.766   7.624  11.771  0.00  0.00    +0.000 A 
ATOM      4  C   UNL     1      48.497   7.999  12.194  0.00  0.00    +0.000 A 
ATOM      5  C   UNL     1      48.101   9.334  12.154  0.00  0.00    +0.000 A 
ATOM      6  N   UNL     1      46.845   9.741  12.540  0.00  0.00    +0.000 N 
ATOM      7  N   UNL     1      48.944  10.293  11.726  0.00  0.00    +0.000 NA
ATOM      8  C   UNL     1      50.190   9.918  11.316  0.00  0.00    +0.000 A 
ATOM      9  H   UNL     1      46.683  10.738  12.476  0.00  0.00    +0.000 HD
BRANCH   2  11
ATOM     10  N   UNL     1      52.252   6.941  10.617  0.00  0.00    +0.000 N 
ATOM     11  C   UNL     1      51.976   8.271  10.796  0.00  0.00    +0.000 C 
ATOM     12  O   UNL     1      52.794   9.138  10.527  0.00  0.00    +0.000 OA
ATOM     13  H   UNL     1      53.142   6.711  10.197  0.00  0.00    +0.000 HD
ATOM     14  H   UNL     1      51.528   6.236  10.598  0.00  0.00    +0.000 HD
ENDBRANCH   2  11
ENDBRANCH   1   6
BRANCH   1  15
ATOM     15  C   UNL     1      45.013   8.214  11.844  0.00  0.00    +0.000 C 
BRANCH  15  16
ATOM     16  C   UNL     1      45.195   6.716  11.780  0.00  0.00    +0.000 A 
ATOM     17  C   UNL     1      45.430   5.959  12.923  0.00  0.00    +0.000 A 
ATOM     18  C   UNL     1      45.518   4.582  12.789  0.00  0.00    +0.000 A 
ATOM     19  N   UNL     1      45.378   3.917  11.619  0.00  0.00    +0.000 NA
ATOM     20  C   UNL     1      45.176   4.640  10.498  0.00  0.00    +0.000 A 
ATOM     21  N   UNL     1      45.023   4.000   9.281  0.00  0.00    +0.000 N 
ATOM     22  C   UNL     1      44.463   2.654   9.238  0.00  0.00    +0.000 C 
ATOM     23  C   UNL     1      45.491   1.624   8.781  0.00  0.00    +0.000 C 
ATOM     24  C   UNL     1      46.200   2.065   7.503  0.00  0.00    +0.000 C 
ATOM     25  C   UNL     1      46.812   3.449   7.682  0.00  0.00    +0.000 C 
ATOM     26  C   UNL     1      45.765   4.473   8.116  0.00  0.00    +0.000 C 
ATOM     27  C   UNL     1      45.069   6.034  10.562  0.00  0.00    +0.000 A 
ENDBRANCH  15  16
ENDBRANCH   1  15
TORSDOF 4
ENDMDL
MODEL 7
REMARK VINA RESULT:    -6.249      3.602      7.633
REMARK INTER + INTRA:          -8.401
REMARK INTER:                  -7.574
REMARK INTRA:                  -0.827
REMARK UNBOUND:                -0.691
REMARK  Name = 
REMARK  4 active torsions:
REMARK  status: ('A' for Active; 'I' for Inactive)
REMARK    1  A    between atoms: C_2  and  C_4
REMARK    2  A    between atoms: N_8  and  C_9
REMARK    3  A    between atoms: C_9  and  C_10
REMARK    4  A    between atoms: C_10  and  C_11
REMARK                            x       y       z     vdW  Elec       q    Type
REMARK                         _______ _______ _______ _____ _____    ______ ____
ROOT
ATOM      1  C   UNL     1      49.399   7.742  13.363  0.00  0.00    +0.000 C 
ENDROOT
BRANCH   1   6
ATOM      2  C   UNL     1      48.042   4.491  17.043  0.00  0.00    +0.000 A 
ATOM      3  C   UNL     1      47.692   4.577  15.704  0.00  0.00    +0.000 A 
ATOM      4  C   UNL     1      48.217   5.612  14.940  0.00  0.00    +0.000 A 
ATOM      5  C   UNL     1      49.069   6.554  15.513  0.00  0.00    +0.000 A 
ATOM      6  N   UNL     1      49.630   7.577  14.785  0.00  0.00    +0.000 N 
ATOM      7  N   UNL     1      49.387   6.495  16.820  0.00  0.00    +0.000 NA
ATOM      8  C   UNL     1      48.865   5.477  17.563  0.00  0.00    +0.000 A 
ATOM      9  H   UNL     1      50.222   8.203  15.317  0.00  0.00    +0.000 HD
BRANCH   2  11
ATOM     10  N   UNL     1      48.240   3.174  19.066  0.00  0.00    +0.000 N 
ATOM     11  C   UNL     1      47.551   3.395  17.903  0.00  0.00    +0.000 C 
ATOM     12  O   UNL     1      46.564   2.738  17.606  0.00  0.00    +0.000 OA
ATOM     13  H   UNL     1      47.861   2.482  19.698  0.00  0.00    +0.000 HD
ATOM     14  H   UNL     1      48.894   3.847  19.444  0.00  0.00    +0.000 HD
ENDBRANCH   2  11
ENDBRANCH   1   6
BRANCH   1  15
ATOM     15  C   UNL     1      48.538   8.962  13.036  0.00  0.00    +0.000 C 
BRANCH  15  16
ATOM     16  C   UNL     1      47.181   8.540  12.524  0.00  0.00    +0.000 A 
ATOM     17  C   UNL     1      46.182   9.468  12.250  0.00  0.00    +0.000 A 
ATOM     18  C   UNL     1      44.988   9.006  11.719  0.00  0.00    +0.000 A 
ATOM     19  N   UNL     1      44.729   7.709  11.434  0.00  0.00    +0.000 NA
ATOM     20  C   UNL     1      45.679   6.795  11.718  0.00  0.00    +0.000 A 
ATOM     21  N   UNL     1      45.457   5.457  11.439  0.00  0.00    +0.000 N 
ATOM     22  C   UNL     1      44.575   5.087  10.338  0.00  0.00    +0.000 C 
ATOM     23  C   UNL     1      43.304   4.402  10.834  0.00  0.00    +0.000 C 
ATOM     24  C   UNL     1      43.617   3.275  11.813  0.00  0.00    +0.000 C 
ATOM     25  C   UNL     1      44.480   3.787  12.961  0.00  0.00    +0.000 C 
ATOM     26  C   UNL     1      45.758   4.447  12.449  0.00  0.00    +0.000 C 
ATOM     27  C   UNL     1      46.912   7.193  12.249  0.00  0.00    +0.000 A 
ENDBRANCH  15  16
ENDBRANCH   1  15
TORSDOF 4
ENDMDL
MODEL 8
REMARK VINA RESULT:    -6.171      5.233      6.839
REMARK INTER + INTRA:          -8.305
REMARK INTER:                  -7.985
REMARK INTRA:                  -0.320
REMARK UNBOUND:                -0.691
REMARK  Name = 
REMARK  4 active torsions:
REMARK  status: ('A' for Active; 'I' for Inactive)
REMARK    1  A    between atoms: C_2  and  C_4
REMARK    2  A    between atoms: N_8  and  C_9
REMARK    3  A    between atoms: C_9  and  C_10
REMARK    4  A    between atoms: C_10  and  C_11
REMARK                            x       y       z     vdW  Elec       q    Type
REMARK                         _______ _______ _______ _____ _____    ______ ____
ROOT
ATOM      1  C   UNL     1      47.653   4.429  15.750  0.00  0.00    +0.000 C 
ENDROOT
BRANCH   1   6
ATOM      2  C   UNL     1      44.486   4.714  11.770  0.00  0.00    +0.000 A 
ATOM      3  C   UNL     1      44.849   5.640  12.737  0.00  0.00    +0.000 A 
ATOM      4  C   UNL     1      45.736   5.254  13.734  0.00  0.00    +0.000 A 
ATOM      5  C   UNL     1      46.242   3.956  13.769  0.00  0.00    +0.000 A 
ATOM      6  N   UNL     1      47.142   3.542  14.723  0.00  0.00    +0.000 N 
ATOM      7  N   UNL     1      45.869   3.043  12.852  0.00  0.00    +0.000 NA
ATOM      8  C   UNL     1      44.994   3.430  11.878  0.00  0.00    +0.000 A 
ATOM      9  H   UNL     1      47.425   2.574  14.649  0.00  0.00    +0.000 HD
BRANCH   2  11
ATOM     10  N   UNL     1      43.863   4.521   9.438  0.00  0.00    +0.000 N 
ATOM     11  C   UNL     1      43.578   5.069  10.661  0.00  0.00    +0.000 C 
ATOM     12  O   UNL     1      42.606   5.790  10.831  0.00  0.00    +0.000 OA
ATOM     13  H   UNL     1      43.200   4.692   8.694  0.00  0.00    +0.000 HD
ATOM     14  H   UNL     1      44.501   3.745   9.328  0.00  0.00    +0.000 HD
ENDBRANCH   2  11
ENDBRANCH   1   6
BRANCH   1  15
ATOM     15  C   UNL     1      47.749   3.760  17.122  0.00  0.00    +0.000 C 
BRANCH  15  16
ATOM     16  C   UNL     1      49.154   3.270  17.383  0.00  0.00    +0.000 A 
ATOM     17  C   UNL     1      49.614   2.063  16.869  0.00  0.00    +0.000 A 
ATOM     18  C   UNL     1      50.937   1.717  17.097  0.00  0.00    +0.000 A 
ATOM     19  N   UNL     1      51.822   2.483  17.778  0.00  0.00    +0.000 NA
ATOM     20  C   UNL     1      51.382   3.644  18.305  0.00  0.00    +0.000 A 
ATOM     21  N   UNL     1      52.254   4.459  19.006  0.00  0.00    +0.000 N 
ATOM     22  C   UNL     1      53.675   4.446  18.678  0.00  0.00    +0.000 C 
ATOM     23  C   UNL     1      54.516   3.870  19.814  0.00  0.00    +0.000 C 
ATOM     24  C   UNL     1      54.171   4.516  21.152  0.00  0.00    +0.000 C 
ATOM     25  C   UNL     1      52.676   4.408  21.430  0.00  0.00    +0.000 C 
ATOM     26  C   UNL     1      51.851   5.011  20.295  0.00  0.00    +0.000 C 
ATOM     27  C   UNL     1      50.060   4.058  18.106  0.00  0.00    +0.000 A 
ENDBRANCH  15  16
ENDBRANCH   1  15
TORSDOF 4
ENDMDL
MODEL 9
REMARK VINA RESULT:    -5.808      3.593      5.882
REMARK INTER + INTRA:          -7.857
REMARK INTER:                  -7.320
REMARK INTRA:                  -0.537
REMARK UNBOUND:                -0.691
REMARK  Name = 
REMARK  4 active torsions:
REMARK  status: ('A' for Active; 'I' for Inactive)
REMARK    1  A    between atoms: C_2  and  C_4
REMARK    2  A    between atoms: N_8  and  C_9
REMARK    3  A    between atoms: C_9  and  C_10
REMARK    4  A    between atoms: C_10  and  C_11
REMARK                            x       y       z     vdW  Elec       q    Type
REMARK                         _______ _______ _______ _____ _____    ______ ____
ROOT
ATOM      1  C   UNL     1      47.715   7.439  13.936  0.00  0.00    +0.000 C 
ENDROOT
BRANCH   1   6
ATOM      2  C   UNL     1      44.994   4.355  10.930  0.00  0.00    +0.000 A 
ATOM      3  C   UNL     1      45.534   5.616  10.722  0.00  0.00    +0.000 A 
ATOM      4  C   UNL     1      46.220   6.229  11.763  0.00  0.00    +0.000 A 
ATOM      5  C   UNL     1      46.353   5.594  12.996  0.00  0.00    +0.000 A 
ATOM      6  N   UNL     1      47.047   6.157  14.042  0.00  0.00    +0.000 N 
ATOM      7  N   UNL     1      45.805   4.384  13.214  0.00  0.00    +0.000 NA
ATOM      8  C   UNL     1      45.129   3.790  12.188  0.00  0.00    +0.000 A 
ATOM      9  H   UNL     1      47.062   5.603  14.889  0.00  0.00    +0.000 HD
BRANCH   2  11
ATOM     10  N   UNL     1      44.035   4.331   8.706  0.00  0.00    +0.000 N 
ATOM     11  C   UNL     1      44.287   3.630   9.856  0.00  0.00    +0.000 C 
ATOM     12  O   UNL     1      43.968   2.456   9.975  0.00  0.00    +0.000 OA
ATOM     13  H   UNL     1      43.626   3.818   7.938  0.00  0.00    +0.000 HD
ATOM     14  H   UNL     1      44.495   5.206   8.495  0.00  0.00    +0.000 HD
ENDBRANCH   2  11
ENDBRANCH   1   6
BRANCH   1  15
ATOM     15  C   UNL     1      49.230   7.312  13.774  0.00  0.00    +0.000 C 
BRANCH  15  16
ATOM     16  C   UNL     1      49.731   8.225  12.680  0.00  0.00    +0.000 A 
ATOM     17  C   UNL     1      49.108   9.435  12.396  0.00  0.00    +0.000 A 
ATOM     18  C   UNL     1      49.669  10.247  11.423  0.00  0.00    +0.000 A 
ATOM     19  N   UNL     1      50.795   9.949  10.734  0.00  0.00    +0.000 NA
ATOM     20  C   UNL     1      51.395   8.767  10.981  0.00  0.00    +0.000 A 
ATOM     21  N   UNL     1      52.551   8.423  10.301  0.00  0.00    +0.000 N 
ATOM     22  C   UNL     1      53.453   9.471   9.836  0.00  0.00    +0.000 C 
ATOM     23  C   UNL     1      53.497   9.548   8.313  0.00  0.00    +0.000 C 
ATOM     24  C   UNL     1      53.729   8.177   7.686  0.00  0.00    +0.000 C 
ATOM     25  C   UNL     1      52.689   7.179   8.181  0.00  0.00    +0.000 C 
ATOM     26  C   UNL     1      52.674   7.096   9.707  0.00  0.00    +0.000 C 
ATOM     27  C   UNL     1      50.886   7.902  11.956  0.00  0.00    +0.000 A 
ENDBRANCH  15  16
ENDBRANCH   1  15
TORSDOF 4
ENDMDL
