MODEL 1
REMARK VINA RESULT:    -8.828      0.000      0.000
REMARK INTER + INTRA:         -14.292
REMARK INTER:                 -13.215
REMARK INTRA:                  -1.076
REMARK UNBOUND:                -1.076
REMARK  Name = 
REMARK  9 active torsions:
REMARK  status: ('A' for Active; 'I' for Inactive)
REMARK    1  A    between atoms: N_1  and  C_2
REMARK    2  A    between atoms: C_2  and  N_3
REMARK    3  A    between atoms: C_2  and  C_20
REMARK    4  A    between atoms: N_3  and  C_4
REMARK    5  A    between atoms: C_4  and  C_5
REMARK    6  A    between atoms: C_9  and  C_10
REMARK    7  A    between atoms: C_10  and  N_11
REMARK    8  A    between atoms: N_11  and  C_12
REMARK    9  A    between atoms: C_12  and  C_13
REMARK                            x       y       z     vdW  Elec       q    Type
REMARK                         _______ _______ _______ _____ _____    ______ ____
ROOT
ATOM      1  N   UNL     1      47.675   4.939  15.753  0.00  0.00    +0.000 NA
ATOM      2  H   UNL     1      48.643   5.018  15.430  0.00  0.00    +0.000 HD
ENDROOT
BRANCH   1   3
ATOM      3  C   UNL     1      47.734   4.201  17.001  0.00  0.00    +0.000 C 
BRANCH   3   4
ATOM      4  C   UNL     1      49.132   4.314  17.591  0.00  0.00    +0.000 A 
ATOM      5  C   UNL     1      49.602   5.383  18.346  0.00  0.00    +0.000 A 
ATOM      6  S   UNL     1      51.195   5.180  18.921  0.00  0.00    +0.000 S 
ATOM      7  C   UNL     1      51.317   3.649  18.193  0.00  0.00    +0.000 A 
ATOM      8  N   UNL     1      52.446   2.904  18.315  0.00  0.00    +0.000 NA
ATOM      9  C   UNL     1      52.394   1.762  17.717  0.00  0.00    +0.000 A 
ATOM     10  N   UNL     1      51.320   1.302  16.997  0.00  0.00    +0.000 N 
ATOM     11  C   UNL     1      50.166   2.033  16.822  0.00  0.00    +0.000 A 
ATOM     12  O   UNL     1      49.237   1.628  16.133  0.00  0.00    +0.000 OA
ATOM     13  C   UNL     1      50.168   3.313  17.504  0.00  0.00    +0.000 A 
ATOM     14  H   UNL     1      51.357   0.401  16.538  0.00  0.00    +0.000 HD
ENDBRANCH   3   4
BRANCH   3  15
ATOM     15  N   UNL     1      46.816   4.845  17.911  0.00  0.00    +0.000 NA
ATOM     16  H   UNL     1      46.926   5.850  17.844  0.00  0.00    +0.000 HD
ATOM     17  H   UNL     1      47.146   4.588  18.841  0.00  0.00    +0.000 HD
ENDBRANCH   3  15
ENDBRANCH   1   3
BRANCH   1  18
ATOM     18  C   UNL     1      46.943   4.226  14.699  0.00  0.00    +0.000 C 
BRANCH  18  19
ATOM     19  C   UNL     1      46.538   5.102  13.534  0.00  0.00    +0.000 A 
ATOM     20  C   UNL     1      47.444   5.977  12.924  0.00  0.00    +0.000 A 
ATOM     21  C   UNL     1      47.075   6.696  11.786  0.00  0.00    +0.000 A 
ATOM     22  C   UNL     1      45.807   6.530  11.225  0.00  0.00    +0.000 A 
ATOM     23  C   UNL     1      44.885   5.652  11.804  0.00  0.00    +0.000 A 
ATOM     24  C   UNL     1      45.255   4.962  12.970  0.00  0.00    +0.000 A 
BRANCH  23  25
ATOM     25  C   UNL     1      43.537   5.397  11.167  0.00  0.00    +0.000 C 
BRANCH  25  26
ATOM     26  N   UNL     1      43.688   4.836   9.831  0.00  0.00    +0.000 NA
ATOM     27  H   UNL     1      44.430   5.341   9.344  0.00  0.00    +0.000 HD
BRANCH  26  28
ATOM     28  C   UNL     1      44.019   3.410   9.868  0.00  0.00    +0.000 C 
BRANCH  28  29
ATOM     29  C   UNL     1      45.119   3.065   8.897  0.00  0.00    +0.000 A 
ATOM     30  C   UNL     1      45.713   4.017   8.060  0.00  0.00    +0.000 A 
ATOM     31  C   UNL     1      46.728   3.642   7.187  0.00  0.00    +0.000 A 
ATOM     32  C   UNL     1      47.108   2.312   7.159  0.00  0.00    +0.000 A 
ATOM     33  N   UNL     1      46.539   1.352   7.921  0.00  0.00    +0.000 NA
ATOM     34  C   UNL     1      45.557   1.751   8.764  0.00  0.00    +0.000 A 
ENDBRANCH  28  29
ENDBRANCH  26  28
ENDBRANCH  25  26
ENDBRANCH  23  25
ENDBRANCH  18  19
ENDBRANCH   1  18
TORSDOF 9
ENDMDL
MODEL 2
REMARK VINA RESULT:    -7.963      2.009      2.812
REMARK INTER + INTRA:         -12.996
REMARK INTER:                 -11.854
REMARK INTRA:                  -1.142
REMARK UNBOUND:                -1.076
REMARK  Name = 
REMARK  9 active torsions:
REMARK  status: ('A' for Active; 'I' for Inactive)
REMARK    1  A    between atoms: N_1  and  C_2
REMARK    2  A    between atoms: C_2  and  N_3
REMARK    3  A    between atoms: C_2  and  C_20
REMARK    4  A    between atoms: N_3  and  C_4
REMARK    5  A    between atoms: C_4  and  C_5
REMARK    6  A    between atoms: C_9  and  C_10
REMARK    7  A    between atoms: C_10  and  N_11
REMARK    8  A    between atoms: N_11  and  C_12
REMARK    9  A    between atoms: C_12  and  C_13
REMARK                            x       y       z     vdW  Elec       q    Type
REMARK                         _______ _______ _______ _____ _____    ______ ____
ROOT
ATOM      1  N   UNL     1      46.954   4.462  16.231  0.00  0.00    +0.000 NA
ATOM      2  H   UNL     1      46.776   5.123  16.992  0.00  0.00    +0.000 HD
ENDROOT
BRANCH   1   3
ATOM      3  C   UNL     1      47.646   3.340  16.838  0.00  0.00    +0.000 C 
BRANCH   3   4
ATOM      4  C   UNL     1      48.820   3.853  17.658  0.00  0.00    +0.000 A 
ATOM      5  C   UNL     1      50.140   3.434  17.524  0.00  0.00    +0.000 A 
ATOM      6  S   UNL     1      51.234   4.250  18.547  0.00  0.00    +0.000 S 
ATOM      7  C   UNL     1      49.990   5.204  19.203  0.00  0.00    +0.000 A 
ATOM      8  N   UNL     1      50.254   6.146  20.145  0.00  0.00    +0.000 NA
ATOM      9  C   UNL     1      49.215   6.798  20.546  0.00  0.00    +0.000 A 
ATOM     10  N   UNL     1      47.935   6.586  20.100  0.00  0.00    +0.000 N 
ATOM     11  C   UNL     1      47.616   5.624  19.168  0.00  0.00    +0.000 A 
ATOM     12  O   UNL     1      46.460   5.413  18.819  0.00  0.00    +0.000 OA
ATOM     13  C   UNL     1      48.759   4.885  18.664  0.00  0.00    +0.000 A 
ATOM     14  H   UNL     1      47.164   7.123  20.474  0.00  0.00    +0.000 HD
ENDBRANCH   3   4
BRANCH   3  15
ATOM     15  N   UNL     1      46.712   2.715  17.745  0.00  0.00    +0.000 NA
ATOM     16  H   UNL     1      46.070   2.134  17.218  0.00  0.00    +0.000 HD
ATOM     17  H   UNL     1      46.154   3.483  18.117  0.00  0.00    +0.000 HD
ENDBRANCH   3  15
ENDBRANCH   1   3
BRANCH   1  18
ATOM     18  C   UNL     1      47.773   5.176  15.244  0.00  0.00    +0.000 C 
BRANCH  18  19
ATOM     19  C   UNL     1      47.064   5.440  13.935  0.00  0.00    +0.000 A 
ATOM     20  C   UNL     1      47.549   6.375  13.013  0.00  0.00    +0.000 A 
ATOM     21  C   UNL     1      46.935   6.523  11.768  0.00  0.00    +0.000 A 
ATOM     22  C   UNL     1      45.848   5.721  11.415  0.00  0.00    +0.000 A 
ATOM     23  C   UNL     1      45.350   4.768  12.310  0.00  0.00    +0.000 A 
ATOM     24  C   UNL     1      45.953   4.654  13.574  0.00  0.00    +0.000 A 
BRANCH  23  25
ATOM     25  C   UNL     1      44.227   3.835  11.919  0.00  0.00    +0.000 C 
BRANCH  25  26
ATOM     26  N   UNL     1      44.728   2.715  11.131  0.00  0.00    +0.000 NA
ATOM     27  H   UNL     1      44.462   1.844  11.594  0.00  0.00    +0.000 HD
BRANCH  26  28
ATOM     28  C   UNL     1      44.195   2.721   9.768  0.00  0.00    +0.000 C 
BRANCH  28  29
ATOM     29  C   UNL     1      45.295   2.768   8.737  0.00  0.00    +0.000 A 
ATOM     30  C   UNL     1      46.026   1.635   8.362  0.00  0.00    +0.000 A 
ATOM     31  C   UNL     1      47.026   1.737   7.401  0.00  0.00    +0.000 A 
ATOM     32  C   UNL     1      47.284   2.982   6.857  0.00  0.00    +0.000 A 
ATOM     33  N   UNL     1      46.631   4.109   7.215  0.00  0.00    +0.000 NA
ATOM     34  C   UNL     1      45.660   3.975   8.148  0.00  0.00    +0.000 A 
ENDBRANCH  28  29
ENDBRANCH  26  28
ENDBRANCH  25  26
ENDBRANCH  23  25
ENDBRANCH  18  19
ENDBRANCH   1  18
TORSDOF 9
ENDMDL
MODEL 3
REMARK VINA RESULT:    -7.774      2.361      3.215
REMARK INTER + INTRA:         -12.714
REMARK INTER:                 -11.663
REMARK INTRA:                  -1.051
REMARK UNBOUND:                -1.076
REMARK  Name = 
REMARK  9 active torsions:
REMARK  status: ('A' for Active; 'I' for Inactive)
REMARK    1  A    between atoms: N_1  and  C_2
REMARK    2  A    between atoms: C_2  and  N_3
REMARK    3  A    between atoms: C_2  and  C_20
REMARK    4  A    between atoms: N_3  and  C_4
REMARK    5  A    between atoms: C_4  and  C_5
REMARK    6  A    between atoms: C_9  and  C_10
REMARK    7  A    between atoms: C_10  and  N_11
REMARK    8  A    between atoms: N_11  and  C_12
REMARK    9  A    between atoms: C_12  and  C_13
REMARK                            x       y       z     vdW  Elec       q    Type
REMARK                         _______ _______ _______ _____ _____    ______ ____
ROOT
ATOM      1  N   UNL     1      47.029   7.208  13.571  0.00  0.00    +0.000 NA
ATOM      2  H   UNL     1      46.725   8.178  13.692  0.00  0.00    +0.000 HD
ENDROOT
BRANCH   1   3
ATOM      3  C   UNL     1      48.442   7.195  13.904  0.00  0.00    +0.000 C 
BRANCH   3   4
ATOM      4  C   UNL     1      48.615   6.797  15.362  0.00  0.00    +0.000 A 
ATOM      5  C   UNL     1      49.202   7.585  16.347  0.00  0.00    +0.000 A 
ATOM      6  S   UNL     1      49.185   6.881  17.900  0.00  0.00    +0.000 S 
ATOM      7  C   UNL     1      48.382   5.500  17.322  0.00  0.00    +0.000 A 
ATOM      8  N   UNL     1      48.040   4.486  18.160  0.00  0.00    +0.000 NA
ATOM      9  C   UNL     1      47.430   3.507  17.584  0.00  0.00    +0.000 A 
ATOM     10  N   UNL     1      47.140   3.441  16.244  0.00  0.00    +0.000 N 
ATOM     11  C   UNL     1      47.491   4.430  15.353  0.00  0.00    +0.000 A 
ATOM     12  O   UNL     1      47.270   4.332  14.151  0.00  0.00    +0.000 OA
ATOM     13  C   UNL     1      48.154   5.569  15.962  0.00  0.00    +0.000 A 
ATOM     14  H   UNL     1      46.674   2.631  15.858  0.00  0.00    +0.000 HD
ENDBRANCH   3   4
BRANCH   3  15
ATOM     15  N   UNL     1      49.052   6.169  13.090  0.00  0.00    +0.000 NA
ATOM     16  H   UNL     1      48.401   5.403  12.972  0.00  0.00    +0.000 HD
ATOM     17  H   UNL     1      49.815   5.803  13.660  0.00  0.00    +0.000 HD
ENDBRANCH   3  15
ENDBRANCH   1   3
BRANCH   1  18
ATOM     18  C   UNL     1      46.767   6.862  12.168  0.00  0.00    +0.000 C 
BRANCH  18  19
ATOM     19  C   UNL     1      45.373   6.331  11.919  0.00  0.00    +0.000 A 
ATOM     20  C   UNL     1      44.304   7.186  11.627  0.00  0.00    +0.000 A 
ATOM     21  C   UNL     1      43.052   6.664  11.297  0.00  0.00    +0.000 A 
ATOM     22  C   UNL     1      42.858   5.283  11.226  0.00  0.00    +0.000 A 
ATOM     23  C   UNL     1      43.912   4.404  11.498  0.00  0.00    +0.000 A 
ATOM     24  C   UNL     1      45.157   4.941  11.865  0.00  0.00    +0.000 A 
BRANCH  23  25
ATOM     25  C   UNL     1      43.745   2.909  11.348  0.00  0.00    +0.000 C 
BRANCH  25  26
ATOM     26  N   UNL     1      44.833   2.337  10.563  0.00  0.00    +0.000 NA
ATOM     27  H   UNL     1      45.073   1.424  10.952  0.00  0.00    +0.000 HD
BRANCH  26  28
ATOM     28  C   UNL     1      44.471   2.184   9.154  0.00  0.00    +0.000 C 
BRANCH  28  29
ATOM     29  C   UNL     1      45.670   2.321   8.249  0.00  0.00    +0.000 A 
ATOM     30  C   UNL     1      45.999   3.522   7.610  0.00  0.00    +0.000 A 
ATOM     31  C   UNL     1      47.121   3.592   6.792  0.00  0.00    +0.000 A 
ATOM     32  C   UNL     1      47.873   2.444   6.615  0.00  0.00    +0.000 A 
ATOM     33  N   UNL     1      47.573   1.255   7.181  0.00  0.00    +0.000 NA
ATOM     34  C   UNL     1      46.479   1.222   7.976  0.00  0.00    +0.000 A 
ENDBRANCH  28  29
ENDBRANCH  26  28
ENDBRANCH  25  26
ENDBRANCH  23  25
ENDBRANCH  18  19
ENDBRANCH   1  18
TORSDOF 9
ENDMDL
MODEL 4
REMARK VINA RESULT:    -7.625      1.999      2.806
REMARK INTER + INTRA:         -12.490
REMARK INTER:                 -11.414
REMARK INTRA:                  -1.076
REMARK UNBOUND:                -1.076
REMARK  Name = 
REMARK  9 active torsions:
REMARK  status: ('A' for Active; 'I' for Inactive)
REMARK    1  A    between atoms: N_1  and  C_2
REMARK    2  A    between atoms: C_2  and  N_3
REMARK    3  A    between atoms: C_2  and  C_20
REMARK    4  A    between atoms: N_3  and  C_4
REMARK    5  A    between atoms: C_4  and  C_5
REMARK    6  A    between atoms: C_9  and  C_10
REMARK    7  A    between atoms: C_10  and  N_11
REMARK    8  A    between atoms: N_11  and  C_12
REMARK    9  A    between atoms: C_12  and  C_13
REMARK                            x       y       z     vdW  Elec       q    Type
REMARK                         _______ _______ _______ _____ _____    ______ ____
ROOT
ATOM      1  N   UNL     1      48.462   6.061  13.695  0.00  0.00    +0.000 NA
ATOM      2  H   UNL     1      47.817   5.294  13.901  0.00  0.00    +0.000 HD
ENDROOT
BRANCH   1   3
ATOM      3  C   UNL     1      48.435   6.923  14.863  0.00  0.00    +0.000 C 
BRANCH   3   4
ATOM      4  C   UNL     1      49.014   6.178  16.056  0.00  0.00    +0.000 A 
ATOM      5  C   UNL     1      50.132   6.569  16.784  0.00  0.00    +0.000 A 
ATOM      6  S   UNL     1      50.488   5.555  18.108  0.00  0.00    +0.000 S 
ATOM      7  C   UNL     1      49.155   4.557  17.769  0.00  0.00    +0.000 A 
ATOM      8  N   UNL     1      48.867   3.484  18.551  0.00  0.00    +0.000 NA
ATOM      9  C   UNL     1      47.823   2.824  18.178  0.00  0.00    +0.000 A 
ATOM     10  N   UNL     1      47.049   3.129  17.087  0.00  0.00    +0.000 N 
ATOM     11  C   UNL     1      47.318   4.189  16.250  0.00  0.00    +0.000 A 
ATOM     12  O   UNL     1      46.646   4.418  15.251  0.00  0.00    +0.000 OA
ATOM     13  C   UNL     1      48.467   4.981  16.649  0.00  0.00    +0.000 A 
ATOM     14  H   UNL     1      46.254   2.554  16.843  0.00  0.00    +0.000 HD
ENDBRANCH   3   4
BRANCH   3  15
ATOM     15  N   UNL     1      49.303   8.041  14.576  0.00  0.00    +0.000 NA
ATOM     16  H   UNL     1      49.693   8.395  15.442  0.00  0.00    +0.000 HD
ATOM     17  H   UNL     1      48.683   8.772  14.229  0.00  0.00    +0.000 HD
ENDBRANCH   3  15
ENDBRANCH   1   3
BRANCH   1  18
ATOM     18  C   UNL     1      47.952   6.719  12.485  0.00  0.00    +0.000 C 
BRANCH  18  19
ATOM     19  C   UNL     1      46.477   6.489  12.239  0.00  0.00    +0.000 A 
ATOM     20  C   UNL     1      45.646   7.508  11.761  0.00  0.00    +0.000 A 
ATOM     21  C   UNL     1      44.313   7.241  11.442  0.00  0.00    +0.000 A 
ATOM     22  C   UNL     1      43.801   5.948  11.569  0.00  0.00    +0.000 A 
ATOM     23  C   UNL     1      44.612   4.907  12.031  0.00  0.00    +0.000 A 
ATOM     24  C   UNL     1      45.941   5.195  12.383  0.00  0.00    +0.000 A 
BRANCH  23  25
ATOM     25  C   UNL     1      44.101   3.485  12.099  0.00  0.00    +0.000 C 
BRANCH  25  26
ATOM     26  N   UNL     1      44.776   2.639  11.123  0.00  0.00    +0.000 NA
ATOM     27  H   UNL     1      44.692   1.665  11.419  0.00  0.00    +0.000 HD
BRANCH  26  28
ATOM     28  C   UNL     1      44.209   2.787   9.782  0.00  0.00    +0.000 C 
BRANCH  28  29
ATOM     29  C   UNL     1      45.279   2.795   8.719  0.00  0.00    +0.000 A 
ATOM     30  C   UNL     1      46.015   1.653   8.383  0.00  0.00    +0.000 A 
ATOM     31  C   UNL     1      46.986   1.718   7.389  0.00  0.00    +0.000 A 
ATOM     32  C   UNL     1      47.211   2.936   6.773  0.00  0.00    +0.000 A 
ATOM     33  N   UNL     1      46.551   4.071   7.090  0.00  0.00    +0.000 NA
ATOM     34  C   UNL     1      45.609   3.974   8.057  0.00  0.00    +0.000 A 
ENDBRANCH  28  29
ENDBRANCH  26  28
ENDBRANCH  25  26
ENDBRANCH  23  25
ENDBRANCH  18  19
ENDBRANCH   1  18
TORSDOF 9
ENDMDL
MODEL 5
REMARK VINA RESULT:    -7.490      1.701      2.195
REMARK INTER + INTRA:         -12.288
REMARK INTER:                 -11.122
REMARK INTRA:                  -1.166
REMARK UNBOUND:                -1.076
REMARK  Name = 
REMARK  9 active torsions:
REMARK  status: ('A' for Active; 'I' for Inactive)
REMARK    1  A    between atoms: N_1  and  C_2
REMARK    2  A    between atoms: C_2  and  N_3
REMARK    3  A    between atoms: C_2  and  C_20
REMARK    4  A    between atoms: N_3  and  C_4
REMARK    5  A    between atoms: C_4  and  C_5
REMARK    6  A    between atoms: C_9  and  C_10
REMARK    7  A    between atoms: C_10  and  N_11
REMARK    8  A    between atoms: N_11  and  C_12
REMARK    9  A    between atoms: C_12  and  C_13
REMARK                            x       y       z     vdW  Elec       q    Type
REMARK                         _______ _______ _______ _____ _____    ______ ____
ROOT
ATOM      1  N   UNL     1      46.908   4.229  15.868  0.00  0.00    +0.000 NA
ATOM      2  H   UNL     1      47.226   5.164  16.137  0.00  0.00    +0.000 HD
ENDROOT
BRANCH   1   3
ATOM      3  C   UNL     1      47.644   3.305  16.711  0.00  0.00    +0.000 C 
BRANCH   3   4
ATOM      4  C   UNL     1      48.782   4.042  17.399  0.00  0.00    +0.000 A 
ATOM      5  C   UNL     1      48.707   5.327  17.925  0.00  0.00    +0.000 A 
ATOM      6  S   UNL     1      50.138   5.848  18.693  0.00  0.00    +0.000 S 
ATOM      7  C   UNL     1      50.913   4.372  18.364  0.00  0.00    +0.000 A 
ATOM      8  N   UNL     1      52.187   4.143  18.775  0.00  0.00    +0.000 NA
ATOM      9  C   UNL     1      52.643   2.978  18.461  0.00  0.00    +0.000 A 
ATOM     10  N   UNL     1      51.946   2.024  17.763  0.00  0.00    +0.000 N 
ATOM     11  C   UNL     1      50.664   2.221  17.302  0.00  0.00    +0.000 A 
ATOM     12  O   UNL     1      50.074   1.377  16.635  0.00  0.00    +0.000 OA
ATOM     13  C   UNL     1      50.097   3.508  17.659  0.00  0.00    +0.000 A 
ATOM     14  H   UNL     1      52.375   1.137  17.536  0.00  0.00    +0.000 HD
ENDBRANCH   3   4
BRANCH   3  15
ATOM     15  N   UNL     1      46.727   2.853  17.733  0.00  0.00    +0.000 NA
ATOM     16  H   UNL     1      47.000   1.927  18.043  0.00  0.00    +0.000 HD
ATOM     17  H   UNL     1      45.836   2.736  17.252  0.00  0.00    +0.000 HD
ENDBRANCH   3  15
ENDBRANCH   1   3
BRANCH   1  18
ATOM     18  C   UNL     1      47.222   4.078  14.441  0.00  0.00    +0.000 C 
BRANCH  18  19
ATOM     19  C   UNL     1      47.289   5.388  13.687  0.00  0.00    +0.000 A 
ATOM     20  C   UNL     1      48.495   6.079  13.524  0.00  0.00    +0.000 A 
ATOM     21  C   UNL     1      48.547   7.230  12.735  0.00  0.00    +0.000 A 
ATOM     22  C   UNL     1      47.404   7.689  12.077  0.00  0.00    +0.000 A 
ATOM     23  C   UNL     1      46.189   7.011  12.210  0.00  0.00    +0.000 A 
ATOM     24  C   UNL     1      46.140   5.876  13.036  0.00  0.00    +0.000 A 
BRANCH  23  25
ATOM     25  C   UNL     1      44.960   7.444  11.442  0.00  0.00    +0.000 C 
BRANCH  25  26
ATOM     26  N   UNL     1      43.746   6.936  12.069  0.00  0.00    +0.000 NA
ATOM     27  H   UNL     1      43.247   7.717  12.499  0.00  0.00    +0.000 HD
BRANCH  26  28
ATOM     28  C   UNL     1      42.866   6.273  11.106  0.00  0.00    +0.000 C 
BRANCH  28  29
ATOM     29  C   UNL     1      43.379   4.905  10.729  0.00  0.00    +0.000 A 
ATOM     30  C   UNL     1      44.127   4.675   9.568  0.00  0.00    +0.000 A 
ATOM     31  C   UNL     1      44.579   3.393   9.273  0.00  0.00    +0.000 A 
ATOM     32  C   UNL     1      44.248   2.368  10.141  0.00  0.00    +0.000 A 
ATOM     33  N   UNL     1      43.498   2.536  11.252  0.00  0.00    +0.000 NA
ATOM     34  C   UNL     1      43.078   3.796  11.514  0.00  0.00    +0.000 A 
ENDBRANCH  28  29
ENDBRANCH  26  28
ENDBRANCH  25  26
ENDBRANCH  23  25
ENDBRANCH  18  19
ENDBRANCH   1  18
TORSDOF 9
ENDMDL
MODEL 6
REMARK VINA RESULT:    -7.271      2.802      3.512
REMARK INTER + INTRA:         -11.960
REMARK INTER:                 -10.833
REMARK INTRA:                  -1.127
REMARK UNBOUND:                -1.076
REMARK  Name = 
REMARK  9 active torsions:
REMARK  status: ('A' for Active; 'I' for Inactive)
REMARK    1  A    between atoms: N_1  and  C_2
REMARK    2  A    between atoms: C_2  and  N_3
REMARK    3  A    between atoms: C_2  and  C_20
REMARK    4  A    between atoms: N_3  and  C_4
REMARK    5  A    between atoms: C_4  and  C_5
REMARK    6  A    between atoms: C_9  and  C_10
REMARK    7  A    between atoms: C_10  and  N_11
REMARK    8  A    between atoms: N_11  and  C_12
REMARK    9  A    between atoms: C_12  and  C_13
REMARK                            x       y       z     vdW  Elec       q    Type
REMARK                         _______ _______ _______ _____ _____    ______ ____
ROOT
ATOM      1  N   UNL     1      48.407   5.887  13.662  0.00  0.00    +0.000 NA
ATOM      2  H   UNL     1      47.680   5.204  13.888  0.00  0.00    +0.000 HD
ENDROOT
BRANCH   1   3
ATOM      3  C   UNL     1      48.666   6.608  14.895  0.00  0.00    +0.000 C 
BRANCH   3   4
ATOM      4  C   UNL     1      48.279   5.737  16.081  0.00  0.00    +0.000 A 
ATOM      5  C   UNL     1      47.734   4.461  15.999  0.00  0.00    +0.000 A 
ATOM      6  S   UNL     1      47.473   3.718  17.512  0.00  0.00    +0.000 S 
ATOM      7  C   UNL     1      48.088   5.069  18.339  0.00  0.00    +0.000 A 
ATOM      8  N   UNL     1      48.167   5.084  19.695  0.00  0.00    +0.000 NA
ATOM      9  C   UNL     1      48.661   6.170  20.185  0.00  0.00    +0.000 A 
ATOM     10  N   UNL     1      49.072   7.249  19.443  0.00  0.00    +0.000 N 
ATOM     11  C   UNL     1      48.986   7.291  18.070  0.00  0.00    +0.000 A 
ATOM     12  O   UNL     1      49.310   8.283  17.426  0.00  0.00    +0.000 OA
ATOM     13  C   UNL     1      48.464   6.076  17.472  0.00  0.00    +0.000 A 
ATOM     14  H   UNL     1      49.433   8.078  19.897  0.00  0.00    +0.000 HD
ENDBRANCH   3   4
BRANCH   3  15
ATOM     15  N   UNL     1      50.092   6.831  14.956  0.00  0.00    +0.000 NA
ATOM     16  H   UNL     1      50.383   6.879  15.926  0.00  0.00    +0.000 HD
ATOM     17  H   UNL     1      50.227   7.767  14.577  0.00  0.00    +0.000 HD
ENDBRANCH   3  15
ENDBRANCH   1   3
BRANCH   1  18
ATOM     18  C   UNL     1      47.859   6.743  12.602  0.00  0.00    +0.000 C 
BRANCH  18  19
ATOM     19  C   UNL     1      46.403   6.476  12.292  0.00  0.00    +0.000 A 
ATOM     20  C   UNL     1      45.556   7.486  11.821  0.00  0.00    +0.000 A 
ATOM     21  C   UNL     1      44.245   7.188  11.443  0.00  0.00    +0.000 A 
ATOM     22  C   UNL     1      43.772   5.876  11.501  0.00  0.00    +0.000 A 
ATOM     23  C   UNL     1      44.601   4.844  11.953  0.00  0.00    +0.000 A 
ATOM     24  C   UNL     1      45.905   5.161  12.366  0.00  0.00    +0.000 A 
BRANCH  23  25
ATOM     25  C   UNL     1      44.135   3.405  11.947  0.00  0.00    +0.000 C 
BRANCH  25  26
ATOM     26  N   UNL     1      44.869   2.621  10.961  0.00  0.00    +0.000 NA
ATOM     27  H   UNL     1      44.850   1.640  11.241  0.00  0.00    +0.000 HD
BRANCH  26  28
ATOM     28  C   UNL     1      44.297   2.753   9.620  0.00  0.00    +0.000 C 
BRANCH  28  29
ATOM     29  C   UNL     1      45.359   2.692   8.550  0.00  0.00    +0.000 A 
ATOM     30  C   UNL     1      46.118   1.542   8.307  0.00  0.00    +0.000 A 
ATOM     31  C   UNL     1      47.080   1.541   7.302  0.00  0.00    +0.000 A 
ATOM     32  C   UNL     1      47.272   2.706   6.581  0.00  0.00    +0.000 A 
ATOM     33  N   UNL     1      46.589   3.850   6.805  0.00  0.00    +0.000 NA
ATOM     34  C   UNL     1      45.657   3.816   7.786  0.00  0.00    +0.000 A 
ENDBRANCH  28  29
ENDBRANCH  26  28
ENDBRANCH  25  26
ENDBRANCH  23  25
ENDBRANCH  18  19
ENDBRANCH   1  18
TORSDOF 9
ENDMDL
MODEL 7
REMARK VINA RESULT:    -7.267      2.064      2.747
REMARK INTER + INTRA:         -11.955
REMARK INTER:                 -10.636
REMARK INTRA:                  -1.319
REMARK UNBOUND:                -1.076
REMARK  Name = 
REMARK  9 active torsions:
REMARK  status: ('A' for Active; 'I' for Inactive)
REMARK    1  A    between atoms: N_1  and  C_2
REMARK    2  A    between atoms: C_2  and  N_3
REMARK    3  A    between atoms: C_2  and  C_20
REMARK    4  A    between atoms: N_3  and  C_4
REMARK    5  A    between atoms: C_4  and  C_5
REMARK    6  A    between atoms: C_9  and  C_10
REMARK    7  A    between atoms: C_10  and  N_11
REMARK    8  A    between atoms: N_11  and  C_12
REMARK    9  A    between atoms: C_12  and  C_13
REMARK                            x       y       z     vdW  Elec       q    Type
REMARK                         _______ _______ _______ _____ _____    ______ ____
ROOT
ATOM      1  N   UNL     1      48.045   6.078  15.085  0.00  0.00    +0.000 NA
ATOM      2  H   UNL     1      47.110   6.360  15.389  0.00  0.00    +0.000 HD
ENDROOT
BRANCH   1   3
ATOM      3  C   UNL     1      48.954   7.063  15.644  0.00  0.00    +0.000 C 
BRANCH   3   4
ATOM      4  C   UNL     1      48.751   7.143  17.149  0.00  0.00    +0.000 A 
ATOM      5  C   UNL     1      48.389   8.286  17.853  0.00  0.00    +0.000 A 
ATOM      6  S   UNL     1      48.175   8.033  19.526  0.00  0.00    +0.000 S 
ATOM      7  C   UNL     1      48.548   6.382  19.376  0.00  0.00    +0.000 A 
ATOM      8  N   UNL     1      48.530   5.559  20.457  0.00  0.00    +0.000 NA
ATOM      9  C   UNL     1      48.826   4.332  20.193  0.00  0.00    +0.000 A 
ATOM     10  N   UNL     1      49.150   3.853  18.948  0.00  0.00    +0.000 N 
ATOM     11  C   UNL     1      49.208   4.654  17.829  0.00  0.00    +0.000 A 
ATOM     12  O   UNL     1      49.549   4.220  16.734  0.00  0.00    +0.000 OA
ATOM     13  C   UNL     1      48.852   6.039  18.073  0.00  0.00    +0.000 A 
ATOM     14  H   UNL     1      49.390   2.880  18.818  0.00  0.00    +0.000 HD
ENDBRANCH   3   4
BRANCH   3  15
ATOM     15  N   UNL     1      50.293   6.578  15.402  0.00  0.00    +0.000 NA
ATOM     16  H   UNL     1      50.897   7.360  15.176  0.00  0.00    +0.000 HD
ATOM     17  H   UNL     1      50.221   6.024  14.550  0.00  0.00    +0.000 HD
ENDBRANCH   3  15
ENDBRANCH   1   3
BRANCH   1  18
ATOM     18  C   UNL     1      48.025   6.084  13.617  0.00  0.00    +0.000 C 
BRANCH  18  19
ATOM     19  C   UNL     1      46.652   6.314  13.024  0.00  0.00    +0.000 A 
ATOM     20  C   UNL     1      46.384   7.414  12.200  0.00  0.00    +0.000 A 
ATOM     21  C   UNL     1      45.139   7.545  11.582  0.00  0.00    +0.000 A 
ATOM     22  C   UNL     1      44.157   6.568  11.755  0.00  0.00    +0.000 A 
ATOM     23  C   UNL     1      44.402   5.451  12.561  0.00  0.00    +0.000 A 
ATOM     24  C   UNL     1      45.645   5.349  13.207  0.00  0.00    +0.000 A 
BRANCH  23  25
ATOM     25  C   UNL     1      43.382   4.343  12.696  0.00  0.00    +0.000 C 
BRANCH  25  26
ATOM     26  N   UNL     1      42.944   3.873  11.388  0.00  0.00    +0.000 NA
ATOM     27  H   UNL     1      43.103   4.613  10.703  0.00  0.00    +0.000 HD
BRANCH  26  28
ATOM     28  C   UNL     1      43.659   2.666  10.970  0.00  0.00    +0.000 C 
BRANCH  28  29
ATOM     29  C   UNL     1      44.550   2.925   9.781  0.00  0.00    +0.000 A 
ATOM     30  C   UNL     1      44.718   4.201   9.230  0.00  0.00    +0.000 A 
ATOM     31  C   UNL     1      45.558   4.382   8.137  0.00  0.00    +0.000 A 
ATOM     32  C   UNL     1      46.190   3.271   7.607  0.00  0.00    +0.000 A 
ATOM     33  N   UNL     1      46.029   2.017   8.082  0.00  0.00    +0.000 NA
ATOM     34  C   UNL     1      45.210   1.875   9.150  0.00  0.00    +0.000 A 
ENDBRANCH  28  29
ENDBRANCH  26  28
ENDBRANCH  25  26
ENDBRANCH  23  25
ENDBRANCH  18  19
ENDBRANCH   1  18
TORSDOF 9
ENDMDL
MODEL 8
REMARK VINA RESULT:    -7.252      3.088      8.940
REMARK INTER + INTRA:         -11.932
REMARK INTER:                 -10.875
REMARK INTRA:                  -1.057
REMARK UNBOUND:                -1.076
REMARK  Name = 
REMARK  9 active torsions:
REMARK  status: ('A' for Active; 'I' for Inactive)
REMARK    1  A    between atoms: N_1  and  C_2
REMARK    2  A    between atoms: C_2  and  N_3
REMARK    3  A    between atoms: C_2  and  C_20
REMARK    4  A    between atoms: N_3  and  C_4
REMARK    5  A    between atoms: C_4  and  C_5
REMARK    6  A    between atoms: C_9  and  C_10
REMARK    7  A    between atoms: C_10  and  N_11
REMARK    8  A    between atoms: N_11  and  C_12
REMARK    9  A    between atoms: C_12  and  C_13
REMARK                            x       y       z     vdW  Elec       q    Type
REMARK                         _______ _______ _______ _____ _____    ______ ____
ROOT
ATOM      1  N   UNL     1      45.800   7.245  12.314  0.00  0.00    +0.000 NA
ATOM      2  H   UNL     1      45.210   6.980  13.107  0.00  0.00    +0.000 HD
ENDROOT
BRANCH   1   3
ATOM      3  C   UNL     1      45.019   6.945  11.127  0.00  0.00    +0.000 C 
BRANCH   3   4
ATOM      4  C   UNL     1      44.518   5.511  11.198  0.00  0.00    +0.000 A 
ATOM      5  C   UNL     1      43.714   4.989  12.206  0.00  0.00    +0.000 A 
ATOM      6  S   UNL     1      43.266   3.361  11.963  0.00  0.00    +0.000 S 
ATOM      7  C   UNL     1      44.119   3.291  10.495  0.00  0.00    +0.000 A 
ATOM      8  N   UNL     1      44.132   2.158   9.746  0.00  0.00    +0.000 NA
ATOM      9  C   UNL     1      44.814   2.253   8.655  0.00  0.00    +0.000 A 
ATOM     10  N   UNL     1      45.494   3.374   8.250  0.00  0.00    +0.000 N 
ATOM     11  C   UNL     1      45.532   4.535   8.988  0.00  0.00    +0.000 A 
ATOM     12  O   UNL     1      46.187   5.510   8.636  0.00  0.00    +0.000 OA
ATOM     13  C   UNL     1      44.753   4.485  10.211  0.00  0.00    +0.000 A 
ATOM     14  H   UNL     1      46.024   3.370   7.388  0.00  0.00    +0.000 HD
ENDBRANCH   3   4
BRANCH   3  15
ATOM     15  N   UNL     1      43.869   7.818  11.153  0.00  0.00    +0.000 NA
ATOM     16  H   UNL     1      43.823   8.340  10.285  0.00  0.00    +0.000 HD
ATOM     17  H   UNL     1      44.076   8.502  11.880  0.00  0.00    +0.000 HD
ENDBRANCH   3  15
ENDBRANCH   1   3
BRANCH   1  18
ATOM     18  C   UNL     1      47.021   6.436  12.416  0.00  0.00    +0.000 C 
BRANCH  18  19
ATOM     19  C   UNL     1      47.260   5.861  13.795  0.00  0.00    +0.000 A 
ATOM     20  C   UNL     1      46.637   4.679  14.214  0.00  0.00    +0.000 A 
ATOM     21  C   UNL     1      46.956   4.114  15.450  0.00  0.00    +0.000 A 
ATOM     22  C   UNL     1      47.920   4.704  16.270  0.00  0.00    +0.000 A 
ATOM     23  C   UNL     1      48.569   5.876  15.871  0.00  0.00    +0.000 A 
ATOM     24  C   UNL     1      48.214   6.456  14.642  0.00  0.00    +0.000 A 
BRANCH  23  25
ATOM     25  C   UNL     1      49.673   6.486  16.706  0.00  0.00    +0.000 C 
BRANCH  25  26
ATOM     26  N   UNL     1      50.842   5.616  16.742  0.00  0.00    +0.000 NA
ATOM     27  H   UNL     1      51.677   6.182  16.583  0.00  0.00    +0.000 HD
BRANCH  26  28
ATOM     28  C   UNL     1      50.968   4.918  18.022  0.00  0.00    +0.000 C 
BRANCH  28  29
ATOM     29  C   UNL     1      51.466   3.505  17.843  0.00  0.00    +0.000 A 
ATOM     30  C   UNL     1      52.788   3.132  18.112  0.00  0.00    +0.000 A 
ATOM     31  C   UNL     1      53.190   1.813  17.935  0.00  0.00    +0.000 A 
ATOM     32  C   UNL     1      52.258   0.903  17.467  0.00  0.00    +0.000 A 
ATOM     33  N   UNL     1      50.983   1.225  17.160  0.00  0.00    +0.000 NA
ATOM     34  C   UNL     1      50.621   2.516  17.349  0.00  0.00    +0.000 A 
ENDBRANCH  28  29
ENDBRANCH  26  28
ENDBRANCH  25  26
ENDBRANCH  23  25
ENDBRANCH  18  19
ENDBRANCH   1  18
TORSDOF 9
ENDMDL
MODEL 9
REMARK VINA RESULT:    -6.942      3.161      8.428
REMARK INTER + INTRA:         -11.468
REMARK INTER:                  -9.772
REMARK INTRA:                  -1.696
REMARK UNBOUND:                -1.076
REMARK  Name = 
REMARK  9 active torsions:
REMARK  status: ('A' for Active; 'I' for Inactive)
REMARK    1  A    between atoms: N_1  and  C_2
REMARK    2  A    between atoms: C_2  and  N_3
REMARK    3  A    between atoms: C_2  and  C_20
REMARK    4  A    between atoms: N_3  and  C_4
REMARK    5  A    between atoms: C_4  and  C_5
REMARK    6  A    between atoms: C_9  and  C_10
REMARK    7  A    between atoms: C_10  and  N_11
REMARK    8  A    between atoms: N_11  and  C_12
REMARK    9  A    between atoms: C_12  and  C_13
REMARK                            x       y       z     vdW  Elec       q    Type
REMARK                         _______ _______ _______ _____ _____    ______ ____
ROOT
ATOM      1  N   UNL     1      47.752   7.107  14.764  0.00  0.00    +0.000 NA
ATOM      2  H   UNL     1      47.504   6.688  15.664  0.00  0.00    +0.000 HD
ENDROOT
BRANCH   1   3
ATOM      3  C   UNL     1      47.737   6.017  13.805  0.00  0.00    +0.000 C 
BRANCH   3   4
ATOM      4  C   UNL     1      46.478   6.105  12.957  0.00  0.00    +0.000 A 
ATOM      5  C   UNL     1      45.961   7.271  12.402  0.00  0.00    +0.000 A 
ATOM      6  S   UNL     1      44.571   7.027  11.444  0.00  0.00    +0.000 S 
ATOM      7  C   UNL     1      44.610   5.351  11.723  0.00  0.00    +0.000 A 
ATOM      8  N   UNL     1      43.686   4.527  11.163  0.00  0.00    +0.000 NA
ATOM      9  C   UNL     1      43.844   3.280  11.456  0.00  0.00    +0.000 A 
ATOM     10  N   UNL     1      44.833   2.783  12.267  0.00  0.00    +0.000 N 
ATOM     11  C   UNL     1      45.773   3.582  12.878  0.00  0.00    +0.000 A 
ATOM     12  O   UNL     1      46.619   3.127  13.640  0.00  0.00    +0.000 OA
ATOM     13  C   UNL     1      45.654   4.991  12.552  0.00  0.00    +0.000 A 
ATOM     14  H   UNL     1      44.884   1.793  12.468  0.00  0.00    +0.000 HD
ENDBRANCH   3   4
BRANCH   3  15
ATOM     15  N   UNL     1      48.872   6.213  12.934  0.00  0.00    +0.000 NA
ATOM     16  H   UNL     1      48.834   5.541  12.176  0.00  0.00    +0.000 HD
ATOM     17  H   UNL     1      49.682   5.953  13.497  0.00  0.00    +0.000 HD
ENDBRANCH   3  15
ENDBRANCH   1   3
BRANCH   1  18
ATOM     18  C   UNL     1      49.083   7.702  14.935  0.00  0.00    +0.000 C 
BRANCH  18  19
ATOM     19  C   UNL     1      49.595   7.658  16.357  0.00  0.00    +0.000 A 
ATOM     20  C   UNL     1      48.807   8.079  17.434  0.00  0.00    +0.000 A 
ATOM     21  C   UNL     1      49.265   7.929  18.745  0.00  0.00    +0.000 A 
ATOM     22  C   UNL     1      50.501   7.332  18.998  0.00  0.00    +0.000 A 
ATOM     23  C   UNL     1      51.304   6.888  17.943  0.00  0.00    +0.000 A 
ATOM     24  C   UNL     1      50.849   7.078  16.628  0.00  0.00    +0.000 A 
BRANCH  23  25
ATOM     25  C   UNL     1      52.608   6.166  18.198  0.00  0.00    +0.000 C 
BRANCH  25  26
ATOM     26  N   UNL     1      52.581   4.823  17.633  0.00  0.00    +0.000 NA
ATOM     27  H   UNL     1      53.541   4.485  17.544  0.00  0.00    +0.000 HD
BRANCH  26  28
ATOM     28  C   UNL     1      51.816   3.893  18.465  0.00  0.00    +0.000 C 
BRANCH  28  29
ATOM     29  C   UNL     1      50.609   3.355  17.738  0.00  0.00    +0.000 A 
ATOM     30  C   UNL     1      49.346   3.953  17.829  0.00  0.00    +0.000 A 
ATOM     31  C   UNL     1      48.269   3.416  17.132  0.00  0.00    +0.000 A 
ATOM     32  C   UNL     1      48.482   2.276  16.379  0.00  0.00    +0.000 A 
ATOM     33  N   UNL     1      49.672   1.644  16.291  0.00  0.00    +0.000 NA
ATOM     34  C   UNL     1      50.702   2.194  16.976  0.00  0.00    +0.000 A 
ENDBRANCH  28  29
ENDBRANCH  26  28
ENDBRANCH  25  26
ENDBRANCH  23  25
ENDBRANCH  18  19
ENDBRANCH   1  18
TORSDOF 9
ENDMDL
