MODEL 1
REMARK VINA RESULT:    -7.539      0.000      0.000
REMARK INTER + INTRA:         -10.092
REMARK INTER:                  -9.743
REMARK INTRA:                  -0.349
REMARK UNBOUND:                -0.349
REMARK  Name = 
REMARK  5 active torsions:
REMARK  status: ('A' for Active; 'I' for Inactive)
REMARK    1  A    between atoms: C_2  and  C_4
REMARK    2  A    between atoms: C_8  and  C_9
REMARK    3  A    between atoms: C_9  and  O_10
REMARK    4  A    between atoms: O_10  and  C_11
REMARK    5  A    between atoms: C_16  and  N_17
REMARK                            x       y       z     vdW  Elec       q    Type
REMARK                         _______ _______ _______ _____ _____    ______ ____
ROOT
ATOM      1  C   UNL     1      45.371   3.844  12.141  0.00  0.00    +0.000 A 
ATOM      2  C   UNL     1      46.045   3.327  13.239  0.00  0.00    +0.000 A 
ATOM      3  C   UNL     1      46.855   4.171  13.984  0.00  0.00    +0.000 A 
ATOM      4  F   UNL     1      47.489   3.695  15.064  0.00  0.00    +0.000 F 
ATOM      5  C   UNL     1      47.002   5.517  13.647  0.00  0.00    +0.000 A 
ATOM      6  C   UNL     1      46.352   6.058  12.534  0.00  0.00    +0.000 A 
ATOM      7  C   UNL     1      45.563   5.181  11.780  0.00  0.00    +0.000 A 
ENDROOT
BRANCH   6   8
ATOM      8  N   UNL     1      46.448   7.388  12.187  0.00  0.00    +0.000 N 
ATOM      9  C   UNL     1      47.710   8.131  12.246  0.00  0.00    +0.000 C 
ATOM     10  C   UNL     1      47.518   9.434  13.048  0.00  0.00    +0.000 C 
ATOM     11  N   UNL     1      46.414  10.281  12.539  0.00  0.00    +0.000 NA
ATOM     12  C   UNL     1      45.171   9.482  12.531  0.00  0.00    +0.000 C 
ATOM     13  C   UNL     1      45.281   8.163  11.729  0.00  0.00    +0.000 C 
ATOM     14  H   UNL     1      46.631  10.527  11.573  0.00  0.00    +0.000 HD
ENDBRANCH   6   8
BRANCH   1  15
ATOM     15  O   UNL     1      44.540   2.987  11.469  0.00  0.00    +0.000 OA
BRANCH  15  16
ATOM     16  C   UNL     1      44.007   3.525  10.249  0.00  0.00    +0.000 C 
BRANCH  16  21
ATOM     17  C   UNL     1      46.436   2.134   7.725  0.00  0.00    +0.000 A 
ATOM     18  C   UNL     1      46.885   3.311   7.131  0.00  0.00    +0.000 A 
ATOM     19  C   UNL     1      46.369   4.504   7.592  0.00  0.00    +0.000 A 
ATOM     20  N   UNL     1      45.462   4.591   8.587  0.00  0.00    +0.000 NA
ATOM     21  C   UNL     1      45.037   3.433   9.153  0.00  0.00    +0.000 A 
ATOM     22  C   UNL     1      45.480   2.187   8.734  0.00  0.00    +0.000 A 
BRANCH  17  24
ATOM     23  N   UNL     1      47.751   0.768   6.215  0.00  0.00    +0.000 N 
ATOM     24  C   UNL     1      46.942   0.805   7.315  0.00  0.00    +0.000 C 
ATOM     25  O   UNL     1      46.691  -0.206   7.955  0.00  0.00    +0.000 OA
ATOM     26  H   UNL     1      48.212  -0.115   6.037  0.00  0.00    +0.000 HD
ATOM     27  H   UNL     1      48.194   1.601   5.851  0.00  0.00    +0.000 HD
ENDBRANCH  17  24
ENDBRANCH  16  21
ENDBRANCH  15  16
ENDBRANCH   1  15
TORSDOF 5
ENDMDL
MODEL 2
REMARK VINA RESULT:    -7.388      3.971      7.703
REMARK INTER + INTRA:          -9.897
REMARK INTER:                  -9.166
REMARK INTRA:                  -0.731
REMARK UNBOUND:                -0.349
REMARK  Name = 
REMARK  5 active torsions:
REMARK  status: ('A' for Active; 'I' for Inactive)
REMARK    1  A    between atoms: C_2  and  C_4
REMARK    2  A    between atoms: C_8  and  C_9
REMARK    3  A    between atoms: C_9  and  O_10
REMARK    4  A    between atoms: O_10  and  C_11
REMARK    5  A    between atoms: C_16  and  N_17
REMARK                            x       y       z     vdW  Elec       q    Type
REMARK                         _______ _______ _______ _____ _____    ______ ____
ROOT
ATOM      1  C   UNL     1      47.272   6.698  13.033  0.00  0.00    +0.000 A 
ATOM      2  C   UNL     1      46.868   8.026  12.996  0.00  0.00    +0.000 A 
ATOM      3  C   UNL     1      45.628   8.333  12.457  0.00  0.00    +0.000 A 
ATOM      4  F   UNL     1      45.212   9.607  12.439  0.00  0.00    +0.000 F 
ATOM      5  C   UNL     1      44.790   7.337  11.955  0.00  0.00    +0.000 A 
ATOM      6  C   UNL     1      45.180   5.994  11.961  0.00  0.00    +0.000 A 
ATOM      7  C   UNL     1      46.448   5.711  12.483  0.00  0.00    +0.000 A 
ENDROOT
BRANCH   6   8
ATOM      8  N   UNL     1      44.368   4.980  11.504  0.00  0.00    +0.000 N 
ATOM      9  C   UNL     1      43.353   4.340  12.345  0.00  0.00    +0.000 C 
ATOM     10  C   UNL     1      43.522   2.807  12.302  0.00  0.00    +0.000 C 
ATOM     11  N   UNL     1      43.515   2.253  10.928  0.00  0.00    +0.000 NA
ATOM     12  C   UNL     1      44.576   2.920  10.145  0.00  0.00    +0.000 C 
ATOM     13  C   UNL     1      44.463   4.463  10.127  0.00  0.00    +0.000 C 
ATOM     14  H   UNL     1      42.619   2.490  10.502  0.00  0.00    +0.000 HD
ENDBRANCH   6   8
BRANCH   1  15
ATOM     15  O   UNL     1      48.479   6.438  13.624  0.00  0.00    +0.000 OA
BRANCH  15  16
ATOM     16  C   UNL     1      48.685   7.130  14.865  0.00  0.00    +0.000 C 
BRANCH  16  21
ATOM     17  C   UNL     1      48.727   4.350  17.409  0.00  0.00    +0.000 A 
ATOM     18  C   UNL     1      50.058   4.401  17.818  0.00  0.00    +0.000 A 
ATOM     19  C   UNL     1      50.875   5.350  17.239  0.00  0.00    +0.000 A 
ATOM     20  N   UNL     1      50.453   6.231  16.307  0.00  0.00    +0.000 NA
ATOM     21  C   UNL     1      49.153   6.164  15.922  0.00  0.00    +0.000 A 
ATOM     22  C   UNL     1      48.268   5.223  16.430  0.00  0.00    +0.000 A 
BRANCH  17  24
ATOM     23  N   UNL     1      48.058   2.890  19.224  0.00  0.00    +0.000 N 
ATOM     24  C   UNL     1      47.767   3.381  17.983  0.00  0.00    +0.000 C 
ATOM     25  O   UNL     1      46.738   3.070  17.400  0.00  0.00    +0.000 OA
ATOM     26  H   UNL     1      47.323   2.353  19.668  0.00  0.00    +0.000 HD
ATOM     27  H   UNL     1      48.731   3.338  19.830  0.00  0.00    +0.000 HD
ENDBRANCH  17  24
ENDBRANCH  16  21
ENDBRANCH  15  16
ENDBRANCH   1  15
TORSDOF 5
ENDMDL
MODEL 3
REMARK VINA RESULT:    -7.311      4.301      7.636
REMARK INTER + INTRA:          -9.797
REMARK INTER:                  -9.046
REMARK INTRA:                  -0.751
REMARK UNBOUND:                -0.349
REMARK  Name = 
REMARK  5 active torsions:
REMARK  status: ('A' for Active; 'I' for Inactive)
REMARK    1  A    between atoms: C_2  and  C_4
REMARK    2  A    between atoms: C_8  and  C_9
REMARK    3  A    between atoms: C_9  and  O_10
REMARK    4  A    between atoms: O_10  and  C_11
REMARK    5  A    between atoms: C_16  and  N_17
REMARK                            x       y       z     vdW  Elec       q    Type
REMARK                         _______ _______ _______ _____ _____    ______ ____
ROOT
ATOM      1  C   UNL     1      48.088   6.703  13.898  0.00  0.00    +0.000 A 
ATOM      2  C   UNL     1      48.030   7.919  13.231  0.00  0.00    +0.000 A 
ATOM      3  C   UNL     1      46.953   8.172  12.395  0.00  0.00    +0.000 A 
ATOM      4  F   UNL     1      46.867   9.352  11.766  0.00  0.00    +0.000 F 
ATOM      5  C   UNL     1      45.939   7.231  12.215  0.00  0.00    +0.000 A 
ATOM      6  C   UNL     1      45.984   5.989  12.858  0.00  0.00    +0.000 A 
ATOM      7  C   UNL     1      47.095   5.744  13.674  0.00  0.00    +0.000 A 
ENDROOT
BRANCH   6   8
ATOM      8  N   UNL     1      44.988   5.047  12.729  0.00  0.00    +0.000 N 
ATOM      9  C   UNL     1      45.257   3.661  12.334  0.00  0.00    +0.000 C 
ATOM     10  C   UNL     1      44.344   3.262  11.156  0.00  0.00    +0.000 C 
ATOM     11  N   UNL     1      42.904   3.478  11.429  0.00  0.00    +0.000 NA
ATOM     12  C   UNL     1      42.700   4.895  11.795  0.00  0.00    +0.000 C 
ATOM     13  C   UNL     1      43.572   5.366  12.983  0.00  0.00    +0.000 C 
ATOM     14  H   UNL     1      42.653   2.909  12.238  0.00  0.00    +0.000 HD
ENDBRANCH   6   8
BRANCH   1  15
ATOM     15  O   UNL     1      49.141   6.520  14.755  0.00  0.00    +0.000 OA
BRANCH  15  16
ATOM     16  C   UNL     1      48.886   6.962  16.097  0.00  0.00    +0.000 C 
BRANCH  16  21
ATOM     17  C   UNL     1      49.378   3.505  17.516  0.00  0.00    +0.000 A 
ATOM     18  C   UNL     1      48.803   3.664  18.775  0.00  0.00    +0.000 A 
ATOM     19  C   UNL     1      48.279   4.900  19.094  0.00  0.00    +0.000 A 
ATOM     20  N   UNL     1      48.289   5.955  18.252  0.00  0.00    +0.000 NA
ATOM     21  C   UNL     1      48.854   5.780  17.030  0.00  0.00    +0.000 A 
ATOM     22  C   UNL     1      49.430   4.580  16.636  0.00  0.00    +0.000 A 
BRANCH  17  24
ATOM     23  N   UNL     1      50.891   1.648  17.884  0.00  0.00    +0.000 N 
ATOM     24  C   UNL     1      49.951   2.214  17.072  0.00  0.00    +0.000 C 
ATOM     25  O   UNL     1      49.568   1.656  16.054  0.00  0.00    +0.000 OA
ATOM     26  H   UNL     1      51.160   0.700  17.652  0.00  0.00    +0.000 HD
ATOM     27  H   UNL     1      51.010   1.938  18.845  0.00  0.00    +0.000 HD
ENDBRANCH  17  24
ENDBRANCH  16  21
ENDBRANCH  15  16
ENDBRANCH   1  15
TORSDOF 5
ENDMDL
MODEL 4
REMARK VINA RESULT:    -7.101      4.386      8.172
REMARK INTER + INTRA:          -9.525
REMARK INTER:                  -8.892
REMARK INTRA:                  -0.634
REMARK UNBOUND:                -0.349
REMARK  Name = 
REMARK  5 active torsions:
REMARK  status: ('A' for Active; 'I' for Inactive)
REMARK    1  A    between atoms: C_2  and  C_4
REMARK    2  A    between atoms: C_8  and  C_9
REMARK    3  A    between atoms: C_9  and  O_10
REMARK    4  A    between atoms: O_10  and  C_11
REMARK    5  A    between atoms: C_16  and  N_17
REMARK                            x       y       z     vdW  Elec       q    Type
REMARK                         _______ _______ _______ _____ _____    ______ ____
ROOT
ATOM      1  C   UNL     1      47.386   6.515  13.292  0.00  0.00    +0.000 A 
ATOM      2  C   UNL     1      47.045   7.861  13.280  0.00  0.00    +0.000 A 
ATOM      3  C   UNL     1      45.843   8.240  12.702  0.00  0.00    +0.000 A 
ATOM      4  F   UNL     1      45.486   9.532  12.708  0.00  0.00    +0.000 F 
ATOM      5  C   UNL     1      44.983   7.300  12.135  0.00  0.00    +0.000 A 
ATOM      6  C   UNL     1      45.312   5.941  12.114  0.00  0.00    +0.000 A 
ATOM      7  C   UNL     1      46.543   5.584  12.678  0.00  0.00    +0.000 A 
ENDROOT
BRANCH   6   8
ATOM      8  N   UNL     1      44.475   4.979  11.592  0.00  0.00    +0.000 N 
ATOM      9  C   UNL     1      43.421   4.336  12.381  0.00  0.00    +0.000 C 
ATOM     10  C   UNL     1      43.538   2.802  12.266  0.00  0.00    +0.000 C 
ATOM     11  N   UNL     1      43.541   2.316  10.867  0.00  0.00    +0.000 NA
ATOM     12  C   UNL     1      44.640   2.982  10.138  0.00  0.00    +0.000 C 
ATOM     13  C   UNL     1      44.580   4.527  10.193  0.00  0.00    +0.000 C 
ATOM     14  H   UNL     1      42.662   2.604  10.436  0.00  0.00    +0.000 HD
ENDBRANCH   6   8
BRANCH   1  15
ATOM     15  O   UNL     1      48.555   6.181  13.923  0.00  0.00    +0.000 OA
BRANCH  15  16
ATOM     16  C   UNL     1      48.663   6.687  15.262  0.00  0.00    +0.000 C 
BRANCH  16  21
ATOM     17  C   UNL     1      48.377   4.780  18.500  0.00  0.00    +0.000 A 
ATOM     18  C   UNL     1      48.029   3.519  18.021  0.00  0.00    +0.000 A 
ATOM     19  C   UNL     1      47.907   3.358  16.656  0.00  0.00    +0.000 A 
ATOM     20  N   UNL     1      48.114   4.351  15.765  0.00  0.00    +0.000 NA
ATOM     21  C   UNL     1      48.453   5.572  16.252  0.00  0.00    +0.000 A 
ATOM     22  C   UNL     1      48.569   5.831  17.610  0.00  0.00    +0.000 A 
BRANCH  17  24
ATOM     23  N   UNL     1      48.526   3.970  20.779  0.00  0.00    +0.000 N 
ATOM     24  C   UNL     1      48.550   5.051  19.945  0.00  0.00    +0.000 C 
ATOM     25  O   UNL     1      48.754   6.179  20.369  0.00  0.00    +0.000 OA
ATOM     26  H   UNL     1      48.797   4.148  21.738  0.00  0.00    +0.000 HD
ATOM     27  H   UNL     1      48.645   3.027  20.434  0.00  0.00    +0.000 HD
ENDBRANCH  17  24
ENDBRANCH  16  21
ENDBRANCH  15  16
ENDBRANCH   1  15
TORSDOF 5
ENDMDL
MODEL 5
REMARK VINA RESULT:    -6.936      3.545      5.589
REMARK INTER + INTRA:          -9.312
REMARK INTER:                  -8.637
REMARK INTRA:                  -0.675
REMARK UNBOUND:                -0.349
REMARK  Name = 
REMARK  5 active torsions:
REMARK  status: ('A' for Active; 'I' for Inactive)
REMARK    1  A    between atoms: C_2  and  C_4
REMARK    2  A    between atoms: C_8  and  C_9
REMARK    3  A    between atoms: C_9  and  O_10
REMARK    4  A    between atoms: O_10  and  C_11
REMARK    5  A    between atoms: C_16  and  N_17
REMARK                            x       y       z     vdW  Elec       q    Type
REMARK                         _______ _______ _______ _____ _____    ______ ____
ROOT
ATOM      1  C   UNL     1      48.106   6.602  13.487  0.00  0.00    +0.000 A 
ATOM      2  C   UNL     1      49.258   7.378  13.497  0.00  0.00    +0.000 A 
ATOM      3  C   UNL     1      50.022   7.424  14.654  0.00  0.00    +0.000 A 
ATOM      4  F   UNL     1      51.152   8.144  14.670  0.00  0.00    +0.000 F 
ATOM      5  C   UNL     1      49.652   6.713  15.795  0.00  0.00    +0.000 A 
ATOM      6  C   UNL     1      48.485   5.942  15.819  0.00  0.00    +0.000 A 
ATOM      7  C   UNL     1      47.714   5.932  14.651  0.00  0.00    +0.000 A 
ENDROOT
BRANCH   6   8
ATOM      8  N   UNL     1      48.103   5.201  16.916  0.00  0.00    +0.000 N 
ATOM      9  C   UNL     1      48.271   5.682  18.291  0.00  0.00    +0.000 C 
ATOM     10  C   UNL     1      49.000   4.617  19.136  0.00  0.00    +0.000 C 
ATOM     11  N   UNL     1      48.344   3.289  19.102  0.00  0.00    +0.000 NA
ATOM     12  C   UNL     1      48.231   2.854  17.695  0.00  0.00    +0.000 C 
ATOM     13  C   UNL     1      47.494   3.866  16.785  0.00  0.00    +0.000 C 
ATOM     14  H   UNL     1      47.399   3.400  19.470  0.00  0.00    +0.000 HD
ENDBRANCH   6   8
BRANCH   1  15
ATOM     15  O   UNL     1      47.414   6.543  12.307  0.00  0.00    +0.000 OA
BRANCH  15  16
ATOM     16  C   UNL     1      46.083   7.076  12.382  0.00  0.00    +0.000 C 
BRANCH  16  21
ATOM     17  C   UNL     1      44.207   4.210  10.810  0.00  0.00    +0.000 A 
ATOM     18  C   UNL     1      43.242   3.973  11.787  0.00  0.00    +0.000 A 
ATOM     19  C   UNL     1      43.255   4.770  12.913  0.00  0.00    +0.000 A 
ATOM     20  N   UNL     1      44.144   5.766  13.114  0.00  0.00    +0.000 NA
ATOM     21  C   UNL     1      45.076   5.981  12.150  0.00  0.00    +0.000 A 
ATOM     22  C   UNL     1      45.155   5.209  11.000  0.00  0.00    +0.000 A 
BRANCH  17  24
ATOM     23  N   UNL     1      44.246   4.127   8.388  0.00  0.00    +0.000 N 
ATOM     24  C   UNL     1      44.267   3.423   9.558  0.00  0.00    +0.000 C 
ATOM     25  O   UNL     1      44.378   2.206   9.567  0.00  0.00    +0.000 OA
ATOM     26  H   UNL     1      44.442   3.594   7.550  0.00  0.00    +0.000 HD
ATOM     27  H   UNL     1      44.441   5.119   8.360  0.00  0.00    +0.000 HD
ENDBRANCH  17  24
ENDBRANCH  16  21
ENDBRANCH  15  16
ENDBRANCH   1  15
TORSDOF 5
ENDMDL
MODEL 6
REMARK VINA RESULT:    -6.730      3.927      7.407
REMARK INTER + INTRA:          -9.046
REMARK INTER:                  -8.232
REMARK INTRA:                  -0.815
REMARK UNBOUND:                -0.349
REMARK  Name = 
REMARK  5 active torsions:
REMARK  status: ('A' for Active; 'I' for Inactive)
REMARK    1  A    between atoms: C_2  and  C_4
REMARK    2  A    between atoms: C_8  and  C_9
REMARK    3  A    between atoms: C_9  and  O_10
REMARK    4  A    between atoms: O_10  and  C_11
REMARK    5  A    between atoms: C_16  and  N_17
REMARK                            x       y       z     vdW  Elec       q    Type
REMARK                         _______ _______ _______ _____ _____    ______ ____
ROOT
ATOM      1  C   UNL     1      47.683   7.432  12.877  0.00  0.00    +0.000 A 
ATOM      2  C   UNL     1      47.395   8.789  12.814  0.00  0.00    +0.000 A 
ATOM      3  C   UNL     1      46.196   9.191  12.244  0.00  0.00    +0.000 A 
ATOM      4  F   UNL     1      45.890  10.495  12.202  0.00  0.00    +0.000 F 
ATOM      5  C   UNL     1      45.287   8.263  11.738  0.00  0.00    +0.000 A 
ATOM      6  C   UNL     1      45.562   6.892  11.769  0.00  0.00    +0.000 A 
ATOM      7  C   UNL     1      46.790   6.510  12.322  0.00  0.00    +0.000 A 
ENDROOT
BRANCH   6   8
ATOM      8  N   UNL     1      44.677   5.943  11.306  0.00  0.00    +0.000 N 
ATOM      9  C   UNL     1      43.227   6.157  11.288  0.00  0.00    +0.000 C 
ATOM     10  C   UNL     1      42.511   4.976  11.975  0.00  0.00    +0.000 C 
ATOM     11  N   UNL     1      42.871   3.658  11.403  0.00  0.00    +0.000 NA
ATOM     12  C   UNL     1      44.338   3.496  11.476  0.00  0.00    +0.000 C 
ATOM     13  C   UNL     1      45.127   4.638  10.792  0.00  0.00    +0.000 C 
ATOM     14  H   UNL     1      42.608   3.664  10.417  0.00  0.00    +0.000 HD
ENDBRANCH   6   8
BRANCH   1  15
ATOM     15  O   UNL     1      48.852   7.079  13.497  0.00  0.00    +0.000 OA
BRANCH  15  16
ATOM     16  C   UNL     1      49.108   7.796  14.714  0.00  0.00    +0.000 C 
BRANCH  16  21
ATOM     17  C   UNL     1      48.171   4.810  16.815  0.00  0.00    +0.000 A 
ATOM     18  C   UNL     1      48.279   5.356  18.093  0.00  0.00    +0.000 A 
ATOM     19  C   UNL     1      48.653   6.679  18.199  0.00  0.00    +0.000 A 
ATOM     20  N   UNL     1      48.911   7.471  17.137  0.00  0.00    +0.000 NA
ATOM     21  C   UNL     1      48.799   6.921  15.901  0.00  0.00    +0.000 A 
ATOM     22  C   UNL     1      48.457   5.591  15.701  0.00  0.00    +0.000 A 
BRANCH  17  24
ATOM     23  N   UNL     1      46.950   2.847  17.541  0.00  0.00    +0.000 N 
ATOM     24  C   UNL     1      47.759   3.406  16.593  0.00  0.00    +0.000 C 
ATOM     25  O   UNL     1      48.084   2.790  15.589  0.00  0.00    +0.000 OA
ATOM     26  H   UNL     1      46.552   1.947  17.304  0.00  0.00    +0.000 HD
ATOM     27  H   UNL     1      46.446   3.411  18.212  0.00  0.00    +0.000 HD
ENDBRANCH  17  24
ENDBRANCH  16  21
ENDBRANCH  15  16
ENDBRANCH   1  15
TORSDOF 5
ENDMDL
MODEL 7
REMARK VINA RESULT:    -6.628      4.972      8.832
REMARK INTER + INTRA:          -8.914
REMARK INTER:                  -8.382
REMARK INTRA:                  -0.531
REMARK UNBOUND:                -0.349
REMARK  Name = 
REMARK  5 active torsions:
REMARK  status: ('A' for Active; 'I' for Inactive)
REMARK    1  A    between atoms: C_2  and  C_4
REMARK    2  A    between atoms: C_8  and  C_9
REMARK    3  A    between atoms: C_9  and  O_10
REMARK    4  A    between atoms: O_10  and  C_11
REMARK    5  A    between atoms: C_16  and  N_17
REMARK                            x       y       z     vdW  Elec       q    Type
REMARK                         _______ _______ _______ _____ _____    ______ ____
ROOT
ATOM      1  C   UNL     1      47.968   5.918  13.988  0.00  0.00    +0.000 A 
ATOM      2  C   UNL     1      48.583   6.867  13.182  0.00  0.00    +0.000 A 
ATOM      3  C   UNL     1      47.973   7.229  11.990  0.00  0.00    +0.000 A 
ATOM      4  F   UNL     1      48.539   8.165  11.216  0.00  0.00    +0.000 F 
ATOM      5  C   UNL     1      46.765   6.657  11.593  0.00  0.00    +0.000 A 
ATOM      6  C   UNL     1      46.135   5.683  12.375  0.00  0.00    +0.000 A 
ATOM      7  C   UNL     1      46.783   5.312  13.559  0.00  0.00    +0.000 A 
ENDROOT
BRANCH   6   8
ATOM      8  N   UNL     1      44.927   5.117  12.031  0.00  0.00    +0.000 N 
ATOM      9  C   UNL     1      43.982   4.604  13.028  0.00  0.00    +0.000 C 
ATOM     10  C   UNL     1      43.570   3.162  12.669  0.00  0.00    +0.000 C 
ATOM     11  N   UNL     1      43.033   3.028  11.295  0.00  0.00    +0.000 NA
ATOM     12  C   UNL     1      44.042   3.536  10.343  0.00  0.00    +0.000 C 
ATOM     13  C   UNL     1      44.494   4.988  10.628  0.00  0.00    +0.000 C 
ATOM     14  H   UNL     1      42.210   3.625  11.224  0.00  0.00    +0.000 HD
ENDBRANCH   6   8
BRANCH   1  15
ATOM     15  O   UNL     1      48.579   5.633  15.180  0.00  0.00    +0.000 OA
BRANCH  15  16
ATOM     16  C   UNL     1      47.728   4.975  16.131  0.00  0.00    +0.000 C 
BRANCH  16  21
ATOM     17  C   UNL     1      48.260   5.523  19.821  0.00  0.00    +0.000 A 
ATOM     18  C   UNL     1      49.546   5.007  19.971  0.00  0.00    +0.000 A 
ATOM     19  C   UNL     1      50.175   4.507  18.850  0.00  0.00    +0.000 A 
ATOM     20  N   UNL     1      49.616   4.498  17.621  0.00  0.00    +0.000 NA
ATOM     21  C   UNL     1      48.363   5.005  17.496  0.00  0.00    +0.000 A 
ATOM     22  C   UNL     1      47.645   5.501  18.575  0.00  0.00    +0.000 A 
BRANCH  17  24
ATOM     23  N   UNL     1      47.044   5.219  21.896  0.00  0.00    +0.000 N 
ATOM     24  C   UNL     1      47.507   6.098  20.959  0.00  0.00    +0.000 C 
ATOM     25  O   UNL     1      47.349   7.304  21.083  0.00  0.00    +0.000 OA
ATOM     26  H   UNL     1      46.669   5.633  22.740  0.00  0.00    +0.000 HD
ATOM     27  H   UNL     1      47.401   4.276  21.964  0.00  0.00    +0.000 HD
ENDBRANCH  17  24
ENDBRANCH  16  21
ENDBRANCH  15  16
ENDBRANCH   1  15
TORSDOF 5
ENDMDL
MODEL 8
REMARK VINA RESULT:    -6.385      4.745      8.089
REMARK INTER + INTRA:          -8.600
REMARK INTER:                  -7.855
REMARK INTRA:                  -0.745
REMARK UNBOUND:                -0.349
REMARK  Name = 
REMARK  5 active torsions:
REMARK  status: ('A' for Active; 'I' for Inactive)
REMARK    1  A    between atoms: C_2  and  C_4
REMARK    2  A    between atoms: C_8  and  C_9
REMARK    3  A    between atoms: C_9  and  O_10
REMARK    4  A    between atoms: O_10  and  C_11
REMARK    5  A    between atoms: C_16  and  N_17
REMARK                            x       y       z     vdW  Elec       q    Type
REMARK                         _______ _______ _______ _____ _____    ______ ____
ROOT
ATOM      1  C   UNL     1      47.252   5.040  14.969  0.00  0.00    +0.000 A 
ATOM      2  C   UNL     1      48.202   5.988  14.611  0.00  0.00    +0.000 A 
ATOM      3  C   UNL     1      48.119   6.578  13.359  0.00  0.00    +0.000 A 
ATOM      4  F   UNL     1      49.011   7.515  13.010  0.00  0.00    +0.000 F 
ATOM      5  C   UNL     1      47.107   6.235  12.463  0.00  0.00    +0.000 A 
ATOM      6  C   UNL     1      46.150   5.269  12.789  0.00  0.00    +0.000 A 
ATOM      7  C   UNL     1      46.270   4.665  14.046  0.00  0.00    +0.000 A 
ENDROOT
BRANCH   6   8
ATOM      8  N   UNL     1      45.119   4.926  11.942  0.00  0.00    +0.000 N 
ATOM      9  C   UNL     1      43.975   4.118  12.377  0.00  0.00    +0.000 C 
ATOM     10  C   UNL     1      43.768   2.934  11.410  0.00  0.00    +0.000 C 
ATOM     11  N   UNL     1      43.633   3.347   9.995  0.00  0.00    +0.000 NA
ATOM     12  C   UNL     1      44.826   4.132   9.615  0.00  0.00    +0.000 C 
ATOM     13  C   UNL     1      45.090   5.350  10.532  0.00  0.00    +0.000 C 
ATOM     14  H   UNL     1      42.822   3.963   9.927  0.00  0.00    +0.000 HD
ENDBRANCH   6   8
BRANCH   1  15
ATOM     15  O   UNL     1      47.341   4.525  16.234  0.00  0.00    +0.000 OA
BRANCH  15  16
ATOM     16  C   UNL     1      47.711   3.139  16.277  0.00  0.00    +0.000 C 
BRANCH  16  21
ATOM     17  C   UNL     1      50.947   3.856  18.071  0.00  0.00    +0.000 A 
ATOM     18  C   UNL     1      51.646   2.678  17.812  0.00  0.00    +0.000 A 
ATOM     19  C   UNL     1      51.018   1.708  17.059  0.00  0.00    +0.000 A 
ATOM     20  N   UNL     1      49.773   1.841  16.555  0.00  0.00    +0.000 NA
ATOM     21  C   UNL     1      49.109   2.996  16.818  0.00  0.00    +0.000 A 
ATOM     22  C   UNL     1      49.651   4.013  17.591  0.00  0.00    +0.000 A 
BRANCH  17  24
ATOM     23  N   UNL     1      50.677   5.917  19.315  0.00  0.00    +0.000 N 
ATOM     24  C   UNL     1      51.539   4.964  18.853  0.00  0.00    +0.000 C 
ATOM     25  O   UNL     1      52.731   5.002  19.117  0.00  0.00    +0.000 OA
ATOM     26  H   UNL     1      51.066   6.580  19.974  0.00  0.00    +0.000 HD
ATOM     27  H   UNL     1      49.679   5.759  19.356  0.00  0.00    +0.000 HD
ENDBRANCH  17  24
ENDBRANCH  16  21
ENDBRANCH  15  16
ENDBRANCH   1  15
TORSDOF 5
ENDMDL
MODEL 9
REMARK VINA RESULT:    -6.385      3.389      5.169
REMARK INTER + INTRA:          -8.600
REMARK INTER:                  -7.892
REMARK INTRA:                  -0.708
REMARK UNBOUND:                -0.349
REMARK  Name = 
REMARK  5 active torsions:
REMARK  status: ('A' for Active; 'I' for Inactive)
REMARK    1  A    between atoms: C_2  and  C_4
REMARK    2  A    between atoms: C_8  and  C_9
REMARK    3  A    between atoms: C_9  and  O_10
REMARK    4  A    between atoms: O_10  and  C_11
REMARK    5  A    between atoms: C_16  and  N_17
REMARK                            x       y       z     vdW  Elec       q    Type
REMARK                         _______ _______ _______ _____ _____    ______ ____
ROOT
ATOM      1  C   UNL     1      47.510   7.529  12.381  0.00  0.00    +0.000 A 
ATOM      2  C   UNL     1      48.664   7.724  11.633  0.00  0.00    +0.000 A 
ATOM      3  C   UNL     1      49.889   7.724  12.283  0.00  0.00    +0.000 A 
ATOM      4  F   UNL     1      51.014   7.882  11.572  0.00  0.00    +0.000 F 
ATOM      5  C   UNL     1      49.977   7.536  13.662  0.00  0.00    +0.000 A 
ATOM      6  C   UNL     1      48.829   7.360  14.442  0.00  0.00    +0.000 A 
ATOM      7  C   UNL     1      47.602   7.392  13.770  0.00  0.00    +0.000 A 
ENDROOT
BRANCH   6   8
ATOM      8  N   UNL     1      48.878   7.140  15.801  0.00  0.00    +0.000 N 
ATOM      9  C   UNL     1      49.149   8.211  16.765  0.00  0.00    +0.000 C 
ATOM     10  C   UNL     1      50.290   7.789  17.714  0.00  0.00    +0.000 C 
ATOM     11  N   UNL     1      50.042   6.498  18.395  0.00  0.00    +0.000 NA
ATOM     12  C   UNL     1      49.803   5.461  17.369  0.00  0.00    +0.000 C 
ATOM     13  C   UNL     1      48.658   5.806  16.387  0.00  0.00    +0.000 C 
ATOM     14  H   UNL     1      49.187   6.594  18.943  0.00  0.00    +0.000 HD
ENDBRANCH   6   8
BRANCH   1  15
ATOM     15  O   UNL     1      46.329   7.482  11.690  0.00  0.00    +0.000 OA
BRANCH  15  16
ATOM     16  C   UNL     1      45.169   7.328  12.522  0.00  0.00    +0.000 C 
BRANCH  16  21
ATOM     17  C   UNL     1      44.165   4.098  10.861  0.00  0.00    +0.000 A 
ATOM     18  C   UNL     1      43.357   3.544  11.852  0.00  0.00    +0.000 A 
ATOM     19  C   UNL     1      43.180   4.263  13.016  0.00  0.00    +0.000 A 
ATOM     20  N   UNL     1      43.740   5.470  13.242  0.00  0.00    +0.000 NA
ATOM     21  C   UNL     1      44.524   5.992  12.264  0.00  0.00    +0.000 A 
ATOM     22  C   UNL     1      44.780   5.326  11.074  0.00  0.00    +0.000 A 
BRANCH  17  24
ATOM     23  N   UNL     1      44.188   4.149   8.438  0.00  0.00    +0.000 N 
ATOM     24  C   UNL     1      44.403   3.415   9.570  0.00  0.00    +0.000 C 
ATOM     25  O   UNL     1      44.818   2.266   9.514  0.00  0.00    +0.000 OA
ATOM     26  H   UNL     1      44.499   3.726   7.573  0.00  0.00    +0.000 HD
ATOM     27  H   UNL     1      44.126   5.158   8.461  0.00  0.00    +0.000 HD
ENDBRANCH  17  24
ENDBRANCH  16  21
ENDBRANCH  15  16
ENDBRANCH   1  15
TORSDOF 5
ENDMDL
