MODEL 1
REMARK VINA RESULT:    -7.210      0.000      0.000
REMARK INTER + INTRA:         -10.064
REMARK INTER:                  -8.895
REMARK INTRA:                  -1.169
REMARK UNBOUND:                -1.169
REMARK  Name = 
REMARK  4 active torsions:
REMARK  status: ('A' for Active; 'I' for Inactive)
REMARK    1  A    between atoms: C_4  and  C_5
REMARK    2  A    between atoms: C_9  and  C_10
REMARK    3  A    between atoms: C_10  and  N_11
REMARK    4  A    between atoms: N_11  and  C_12
REMARK                            x       y       z     vdW  Elec       q    Type
REMARK                         _______ _______ _______ _____ _____    ______ ____
ROOT
ATOM      1  C   UNL     1      47.152   6.548  12.472  0.00  0.00    +0.000 A 
ATOM      2  C   UNL     1      47.569   5.572  13.389  0.00  0.00    +0.000 A 
ATOM      3  C   UNL     1      46.769   4.461  13.674  0.00  0.00    +0.000 A 
ATOM      4  C   UNL     1      45.548   4.288  13.022  0.00  0.00    +0.000 A 
ATOM      5  C   UNL     1      45.089   5.221  12.082  0.00  0.00    +0.000 A 
ATOM      6  C   UNL     1      45.900   6.351  11.855  0.00  0.00    +0.000 A 
ENDROOT
BRANCH   1  10
ATOM      7  C   UNL     1      49.548   9.989  11.452  0.00  0.00    +0.000 A 
ATOM      8  C   UNL     1      50.115   8.721  11.461  0.00  0.00    +0.000 A 
ATOM      9  C   UNL     1      49.340   7.612  11.817  0.00  0.00    +0.000 A 
ATOM     10  C   UNL     1      47.976   7.738  12.151  0.00  0.00    +0.000 A 
ATOM     11  C   UNL     1      47.433   9.034  12.144  0.00  0.00    +0.000 A 
ATOM     12  C   UNL     1      48.210  10.149  11.802  0.00  0.00    +0.000 A 
ENDBRANCH   1  10
BRANCH   5  13
ATOM     13  C   UNL     1      43.785   5.033  11.307  0.00  0.00    +0.000 C 
ATOM     14  C   UNL     1      42.928   6.252  11.035  0.00  0.00    +0.000 C 
ATOM     15  C   UNL     1      42.485   5.279  12.076  0.00  0.00    +0.000 C 
BRANCH  13  16
ATOM     16  N   UNL     1      43.738   3.818  10.477  0.00  0.00    +0.000 N 
ATOM     17  H   UNL     1      43.281   3.021  10.912  0.00  0.00    +0.000 HD
BRANCH  16  18
ATOM     18  C   UNL     1      44.670   3.430   9.498  0.00  0.00    +0.000 A 
ATOM     19  C   UNL     1      45.187   4.277   8.524  0.00  0.00    +0.000 A 
ATOM     20  C   UNL     1      46.040   3.749   7.562  0.00  0.00    +0.000 A 
ATOM     21  N   UNL     1      46.385   2.446   7.482  0.00  0.00    +0.000 NA
ATOM     22  C   UNL     1      45.848   1.632   8.410  0.00  0.00    +0.000 A 
ATOM     23  C   UNL     1      44.998   2.072   9.414  0.00  0.00    +0.000 A 
ENDBRANCH  16  18
ENDBRANCH  13  16
ENDBRANCH   5  13
TORSDOF 4
ENDMDL
MODEL 2
REMARK VINA RESULT:    -7.043      2.810      6.604
REMARK INTER + INTRA:          -9.859
REMARK INTER:                  -8.772
REMARK INTRA:                  -1.087
REMARK UNBOUND:                -1.169
REMARK  Name = 
REMARK  4 active torsions:
REMARK  status: ('A' for Active; 'I' for Inactive)
REMARK    1  A    between atoms: C_4  and  C_5
REMARK    2  A    between atoms: C_9  and  C_10
REMARK    3  A    between atoms: C_10  and  N_11
REMARK    4  A    between atoms: N_11  and  C_12
REMARK                            x       y       z     vdW  Elec       q    Type
REMARK                         _______ _______ _______ _____ _____    ______ ____
ROOT
ATOM      1  C   UNL     1      44.887   4.470  10.010  0.00  0.00    +0.000 A 
ATOM      2  C   UNL     1      43.560   4.260  10.416  0.00  0.00    +0.000 A 
ATOM      3  C   UNL     1      42.976   5.047  11.412  0.00  0.00    +0.000 A 
ATOM      4  C   UNL     1      43.700   6.084  12.002  0.00  0.00    +0.000 A 
ATOM      5  C   UNL     1      45.022   6.353  11.624  0.00  0.00    +0.000 A 
ATOM      6  C   UNL     1      45.592   5.509  10.649  0.00  0.00    +0.000 A 
ENDROOT
BRANCH   1  10
ATOM      7  C   UNL     1      46.848   2.106   6.980  0.00  0.00    +0.000 A 
ATOM      8  C   UNL     1      46.842   3.491   6.889  0.00  0.00    +0.000 A 
ATOM      9  C   UNL     1      46.184   4.253   7.860  0.00  0.00    +0.000 A 
ATOM     10  C   UNL     1      45.533   3.651   8.957  0.00  0.00    +0.000 A 
ATOM     11  C   UNL     1      45.546   2.247   9.016  0.00  0.00    +0.000 A 
ATOM     12  C   UNL     1      46.192   1.481   8.038  0.00  0.00    +0.000 A 
ENDBRANCH   1  10
BRANCH   5  13
ATOM     13  C   UNL     1      45.823   7.517  12.208  0.00  0.00    +0.000 C 
ATOM     14  C   UNL     1      47.313   7.568  11.943  0.00  0.00    +0.000 C 
ATOM     15  C   UNL     1      46.838   7.175  13.301  0.00  0.00    +0.000 C 
BRANCH  13  16
ATOM     16  N   UNL     1      45.022   8.712  12.522  0.00  0.00    +0.000 N 
ATOM     17  H   UNL     1      44.366   8.595  13.289  0.00  0.00    +0.000 HD
BRANCH  16  18
ATOM     18  C   UNL     1      44.624   9.719  11.625  0.00  0.00    +0.000 A 
ATOM     19  C   UNL     1      43.545   9.614  10.754  0.00  0.00    +0.000 A 
ATOM     20  C   UNL     1      43.305  10.650   9.859  0.00  0.00    +0.000 A 
ATOM     21  N   UNL     1      44.075  11.754   9.747  0.00  0.00    +0.000 NA
ATOM     22  C   UNL     1      45.136  11.824  10.572  0.00  0.00    +0.000 A 
ATOM     23  C   UNL     1      45.445  10.845  11.506  0.00  0.00    +0.000 A 
ENDBRANCH  16  18
ENDBRANCH  13  16
ENDBRANCH   5  13
TORSDOF 4
ENDMDL
MODEL 3
REMARK VINA RESULT:    -6.893      2.532      6.358
REMARK INTER + INTRA:          -9.673
REMARK INTER:                  -8.640
REMARK INTRA:                  -1.034
REMARK UNBOUND:                -1.169
REMARK  Name = 
REMARK  4 active torsions:
REMARK  status: ('A' for Active; 'I' for Inactive)
REMARK    1  A    between atoms: C_4  and  C_5
REMARK    2  A    between atoms: C_9  and  C_10
REMARK    3  A    between atoms: C_10  and  N_11
REMARK    4  A    between atoms: N_11  and  C_12
REMARK                            x       y       z     vdW  Elec       q    Type
REMARK                         _______ _______ _______ _____ _____    ______ ____
ROOT
ATOM      1  C   UNL     1      44.972   4.602   9.972  0.00  0.00    +0.000 A 
ATOM      2  C   UNL     1      43.593   4.589  10.229  0.00  0.00    +0.000 A 
ATOM      3  C   UNL     1      43.029   5.438  11.185  0.00  0.00    +0.000 A 
ATOM      4  C   UNL     1      43.831   6.341  11.883  0.00  0.00    +0.000 A 
ATOM      5  C   UNL     1      45.212   6.413  11.655  0.00  0.00    +0.000 A 
ATOM      6  C   UNL     1      45.751   5.510  10.716  0.00  0.00    +0.000 A 
ENDROOT
BRANCH   1  10
ATOM      7  C   UNL     1      46.718   1.992   7.012  0.00  0.00    +0.000 A 
ATOM      8  C   UNL     1      46.101   1.459   8.136  0.00  0.00    +0.000 A 
ATOM      9  C   UNL     1      45.558   2.309   9.105  0.00  0.00    +0.000 A 
ATOM     10  C   UNL     1      45.600   3.712   8.965  0.00  0.00    +0.000 A 
ATOM     11  C   UNL     1      46.240   4.222   7.823  0.00  0.00    +0.000 A 
ATOM     12  C   UNL     1      46.797   3.374   6.858  0.00  0.00    +0.000 A 
ENDBRANCH   1  10
BRANCH   5  13
ATOM     13  C   UNL     1      46.109   7.431  12.358  0.00  0.00    +0.000 C 
ATOM     14  C   UNL     1      45.465   8.660  12.964  0.00  0.00    +0.000 C 
ATOM     15  C   UNL     1      46.240   8.806  11.698  0.00  0.00    +0.000 C 
BRANCH  13  16
ATOM     16  N   UNL     1      47.399   6.891  12.820  0.00  0.00    +0.000 N 
ATOM     17  H   UNL     1      48.021   6.582  12.078  0.00  0.00    +0.000 HD
BRANCH  16  18
ATOM     18  C   UNL     1      47.650   6.234  14.037  0.00  0.00    +0.000 A 
ATOM     19  C   UNL     1      48.568   6.665  14.989  0.00  0.00    +0.000 A 
ATOM     20  C   UNL     1      48.782   5.880  16.115  0.00  0.00    +0.000 A 
ATOM     21  N   UNL     1      48.179   4.692  16.343  0.00  0.00    +0.000 NA
ATOM     22  C   UNL     1      47.320   4.272  15.395  0.00  0.00    +0.000 A 
ATOM     23  C   UNL     1      47.035   4.995  14.246  0.00  0.00    +0.000 A 
ENDBRANCH  16  18
ENDBRANCH  13  16
ENDBRANCH   5  13
TORSDOF 4
ENDMDL
MODEL 4
REMARK VINA RESULT:    -6.491      2.363      6.550
REMARK INTER + INTRA:          -9.178
REMARK INTER:                  -8.346
REMARK INTRA:                  -0.832
REMARK UNBOUND:                -1.169
REMARK  Name = 
REMARK  4 active torsions:
REMARK  status: ('A' for Active; 'I' for Inactive)
REMARK    1  A    between atoms: C_4  and  C_5
REMARK    2  A    between atoms: C_9  and  C_10
REMARK    3  A    between atoms: C_10  and  N_11
REMARK    4  A    between atoms: N_11  and  C_12
REMARK                            x       y       z     vdW  Elec       q    Type
REMARK                         _______ _______ _______ _____ _____    ______ ____
ROOT
ATOM      1  C   UNL     1      45.330   2.895   9.116  0.00  0.00    +0.000 A 
ATOM      2  C   UNL     1      44.361   2.061   9.696  0.00  0.00    +0.000 A 
ATOM      3  C   UNL     1      43.687   2.439  10.860  0.00  0.00    +0.000 A 
ATOM      4  C   UNL     1      43.947   3.674  11.453  0.00  0.00    +0.000 A 
ATOM      5  C   UNL     1      44.890   4.557  10.908  0.00  0.00    +0.000 A 
ATOM      6  C   UNL     1      45.582   4.122   9.760  0.00  0.00    +0.000 A 
ENDROOT
BRANCH   1  10
ATOM      7  C   UNL     1      47.530   1.856   5.553  0.00  0.00    +0.000 A 
ATOM      8  C   UNL     1      46.943   3.109   5.670  0.00  0.00    +0.000 A 
ATOM      9  C   UNL     1      46.210   3.432   6.817  0.00  0.00    +0.000 A 
ATOM     10  C   UNL     1      46.062   2.521   7.882  0.00  0.00    +0.000 A 
ATOM     11  C   UNL     1      46.658   1.257   7.730  0.00  0.00    +0.000 A 
ATOM     12  C   UNL     1      47.381   0.925   6.577  0.00  0.00    +0.000 A 
ENDBRANCH   1  10
BRANCH   5  13
ATOM     13  C   UNL     1      45.155   5.942  11.498  0.00  0.00    +0.000 C 
ATOM     14  C   UNL     1      44.392   6.353  12.739  0.00  0.00    +0.000 C 
ATOM     15  C   UNL     1      44.007   6.952  11.428  0.00  0.00    +0.000 C 
BRANCH  13  16
ATOM     16  N   UNL     1      46.455   6.525  11.126  0.00  0.00    +0.000 N 
ATOM     17  H   UNL     1      46.886   6.114  10.302  0.00  0.00    +0.000 HD
BRANCH  16  18
ATOM     18  C   UNL     1      47.401   7.098  11.994  0.00  0.00    +0.000 A 
ATOM     19  C   UNL     1      48.197   6.377  12.877  0.00  0.00    +0.000 A 
ATOM     20  C   UNL     1      49.035   7.072  13.742  0.00  0.00    +0.000 A 
ATOM     21  N   UNL     1      49.111   8.419  13.812  0.00  0.00    +0.000 NA
ATOM     22  C   UNL     1      48.307   9.103  12.977  0.00  0.00    +0.000 A 
ATOM     23  C   UNL     1      47.449   8.494  12.071  0.00  0.00    +0.000 A 
ENDBRANCH  16  18
ENDBRANCH  13  16
ENDBRANCH   5  13
TORSDOF 4
ENDMDL
MODEL 5
REMARK VINA RESULT:    -5.919      3.318      7.298
REMARK INTER + INTRA:          -8.472
REMARK INTER:                  -7.546
REMARK INTRA:                  -0.926
REMARK UNBOUND:                -1.169
REMARK  Name = 
REMARK  4 active torsions:
REMARK  status: ('A' for Active; 'I' for Inactive)
REMARK    1  A    between atoms: C_4  and  C_5
REMARK    2  A    between atoms: C_9  and  C_10
REMARK    3  A    between atoms: C_10  and  N_11
REMARK    4  A    between atoms: N_11  and  C_12
REMARK                            x       y       z     vdW  Elec       q    Type
REMARK                         _______ _______ _______ _____ _____    ______ ____
ROOT
ATOM      1  C   UNL     1      45.644   6.367  11.146  0.00  0.00    +0.000 A 
ATOM      2  C   UNL     1      44.725   7.389  11.427  0.00  0.00    +0.000 A 
ATOM      3  C   UNL     1      45.109   8.533  12.133  0.00  0.00    +0.000 A 
ATOM      4  C   UNL     1      46.432   8.691  12.546  0.00  0.00    +0.000 A 
ATOM      5  C   UNL     1      47.399   7.713  12.278  0.00  0.00    +0.000 A 
ATOM      6  C   UNL     1      46.964   6.553  11.604  0.00  0.00    +0.000 A 
ENDROOT
BRANCH   1  10
ATOM      7  C   UNL     1      44.626   2.774   8.985  0.00  0.00    +0.000 A 
ATOM      8  C   UNL     1      45.336   3.788   8.358  0.00  0.00    +0.000 A 
ATOM      9  C   UNL     1      45.643   4.962   9.054  0.00  0.00    +0.000 A 
ATOM     10  C   UNL     1      45.266   5.142  10.401  0.00  0.00    +0.000 A 
ATOM     11  C   UNL     1      44.539   4.103  11.007  0.00  0.00    +0.000 A 
ATOM     12  C   UNL     1      44.218   2.933  10.307  0.00  0.00    +0.000 A 
ENDBRANCH   1  10
BRANCH   5  13
ATOM     13  C   UNL     1      48.868   7.881  12.664  0.00  0.00    +0.000 C 
ATOM     14  C   UNL     1      49.602   9.114  12.179  0.00  0.00    +0.000 C 
ATOM     15  C   UNL     1      49.892   7.803  11.529  0.00  0.00    +0.000 C 
BRANCH  13  16
ATOM     16  N   UNL     1      49.277   7.123  13.858  0.00  0.00    +0.000 N 
ATOM     17  H   UNL     1      49.450   6.135  13.696  0.00  0.00    +0.000 HD
BRANCH  16  18
ATOM     18  C   UNL     1      48.917   7.391  15.190  0.00  0.00    +0.000 A 
ATOM     19  C   UNL     1      48.666   8.662  15.697  0.00  0.00    +0.000 A 
ATOM     20  C   UNL     1      48.399   8.800  17.054  0.00  0.00    +0.000 A 
ATOM     21  N   UNL     1      48.398   7.779  17.939  0.00  0.00    +0.000 NA
ATOM     22  C   UNL     1      48.678   6.561  17.440  0.00  0.00    +0.000 A 
ATOM     23  C   UNL     1      48.943   6.327  16.098  0.00  0.00    +0.000 A 
ENDBRANCH  16  18
ENDBRANCH  13  16
ENDBRANCH   5  13
TORSDOF 4
ENDMDL
MODEL 6
REMARK VINA RESULT:    -5.811      4.797      7.726
REMARK INTER + INTRA:          -8.339
REMARK INTER:                  -7.622
REMARK INTRA:                  -0.717
REMARK UNBOUND:                -1.169
REMARK  Name = 
REMARK  4 active torsions:
REMARK  status: ('A' for Active; 'I' for Inactive)
REMARK    1  A    between atoms: C_4  and  C_5
REMARK    2  A    between atoms: C_9  and  C_10
REMARK    3  A    between atoms: C_10  and  N_11
REMARK    4  A    between atoms: N_11  and  C_12
REMARK                            x       y       z     vdW  Elec       q    Type
REMARK                         _______ _______ _______ _____ _____    ______ ____
ROOT
ATOM      1  C   UNL     1      47.018   5.528  13.522  0.00  0.00    +0.000 A 
ATOM      2  C   UNL     1      47.773   6.691  13.302  0.00  0.00    +0.000 A 
ATOM      3  C   UNL     1      48.625   7.196  14.287  0.00  0.00    +0.000 A 
ATOM      4  C   UNL     1      48.764   6.531  15.505  0.00  0.00    +0.000 A 
ATOM      5  C   UNL     1      48.050   5.355  15.775  0.00  0.00    +0.000 A 
ATOM      6  C   UNL     1      47.166   4.901  14.775  0.00  0.00    +0.000 A 
ENDROOT
BRANCH   1  10
ATOM      7  C   UNL     1      44.429   3.879  10.490  0.00  0.00    +0.000 A 
ATOM      8  C   UNL     1      45.041   5.109  10.292  0.00  0.00    +0.000 A 
ATOM      9  C   UNL     1      45.860   5.651  11.288  0.00  0.00    +0.000 A 
ATOM     10  C   UNL     1      46.104   4.969  12.497  0.00  0.00    +0.000 A 
ATOM     11  C   UNL     1      45.463   3.731  12.675  0.00  0.00    +0.000 A 
ATOM     12  C   UNL     1      44.631   3.192  11.685  0.00  0.00    +0.000 A 
ENDBRANCH   1  10
BRANCH   5  13
ATOM     13  C   UNL     1      48.223   4.569  17.074  0.00  0.00    +0.000 C 
ATOM     14  C   UNL     1      47.246   3.451  17.373  0.00  0.00    +0.000 C 
ATOM     15  C   UNL     1      47.125   4.731  18.129  0.00  0.00    +0.000 C 
BRANCH  13  16
ATOM     16  N   UNL     1      49.579   4.623  17.645  0.00  0.00    +0.000 N 
ATOM     17  H   UNL     1      49.995   5.550  17.666  0.00  0.00    +0.000 HD
BRANCH  16  18
ATOM     18  C   UNL     1      50.546   3.603  17.617  0.00  0.00    +0.000 A 
ATOM     19  C   UNL     1      50.292   2.288  17.243  0.00  0.00    +0.000 A 
ATOM     20  C   UNL     1      51.318   1.355  17.338  0.00  0.00    +0.000 A 
ATOM     21  N   UNL     1      52.556   1.628  17.806  0.00  0.00    +0.000 NA
ATOM     22  C   UNL     1      52.775   2.897  18.198  0.00  0.00    +0.000 A 
ATOM     23  C   UNL     1      51.816   3.897  18.127  0.00  0.00    +0.000 A 
ENDBRANCH  16  18
ENDBRANCH  13  16
ENDBRANCH   5  13
TORSDOF 4
ENDMDL
MODEL 7
REMARK VINA RESULT:    -5.738      5.010      8.464
REMARK INTER + INTRA:          -8.248
REMARK INTER:                  -7.478
REMARK INTRA:                  -0.770
REMARK UNBOUND:                -1.169
REMARK  Name = 
REMARK  4 active torsions:
REMARK  status: ('A' for Active; 'I' for Inactive)
REMARK    1  A    between atoms: C_4  and  C_5
REMARK    2  A    between atoms: C_9  and  C_10
REMARK    3  A    between atoms: C_10  and  N_11
REMARK    4  A    between atoms: N_11  and  C_12
REMARK                            x       y       z     vdW  Elec       q    Type
REMARK                         _______ _______ _______ _____ _____    ______ ____
ROOT
ATOM      1  C   UNL     1      47.033   5.382  13.667  0.00  0.00    +0.000 A 
ATOM      2  C   UNL     1      47.978   6.399  13.461  0.00  0.00    +0.000 A 
ATOM      3  C   UNL     1      48.800   6.843  14.500  0.00  0.00    +0.000 A 
ATOM      4  C   UNL     1      48.717   6.254  15.762  0.00  0.00    +0.000 A 
ATOM      5  C   UNL     1      47.806   5.222  16.022  0.00  0.00    +0.000 A 
ATOM      6  C   UNL     1      46.962   4.832  14.963  0.00  0.00    +0.000 A 
ENDROOT
BRANCH   1  10
ATOM      7  C   UNL     1      44.521   3.939  10.470  0.00  0.00    +0.000 A 
ATOM      8  C   UNL     1      45.116   5.190  10.380  0.00  0.00    +0.000 A 
ATOM      9  C   UNL     1      45.910   5.664  11.430  0.00  0.00    +0.000 A 
ATOM     10  C   UNL     1      46.146   4.892  12.585  0.00  0.00    +0.000 A 
ATOM     11  C   UNL     1      45.521   3.635  12.653  0.00  0.00    +0.000 A 
ATOM     12  C   UNL     1      44.715   3.163  11.610  0.00  0.00    +0.000 A 
ENDBRANCH   1  10
BRANCH   5  13
ATOM     13  C   UNL     1      47.729   4.515  17.376  0.00  0.00    +0.000 C 
ATOM     14  C   UNL     1      48.850   3.571  17.758  0.00  0.00    +0.000 C 
ATOM     15  C   UNL     1      47.535   2.998  17.351  0.00  0.00    +0.000 C 
BRANCH  13  16
ATOM     16  N   UNL     1      46.874   5.187  18.368  0.00  0.00    +0.000 N 
ATOM     17  H   UNL     1      45.919   5.356  18.062  0.00  0.00    +0.000 HD
BRANCH  16  18
ATOM     18  C   UNL     1      47.286   6.095  19.359  0.00  0.00    +0.000 A 
ATOM     19  C   UNL     1      47.437   5.777  20.704  0.00  0.00    +0.000 A 
ATOM     20  C   UNL     1      47.771   6.787  21.598  0.00  0.00    +0.000 A 
ATOM     21  N   UNL     1      47.930   8.085  21.256  0.00  0.00    +0.000 NA
ATOM     22  C   UNL     1      47.745   8.383  19.957  0.00  0.00    +0.000 A 
ATOM     23  C   UNL     1      47.423   7.439  18.993  0.00  0.00    +0.000 A 
ENDBRANCH  16  18
ENDBRANCH  13  16
ENDBRANCH   5  13
TORSDOF 4
ENDMDL
MODEL 8
REMARK VINA RESULT:    -5.317      3.530      5.779
REMARK INTER + INTRA:          -7.729
REMARK INTER:                  -7.089
REMARK INTRA:                  -0.639
REMARK UNBOUND:                -1.169
REMARK  Name = 
REMARK  4 active torsions:
REMARK  status: ('A' for Active; 'I' for Inactive)
REMARK    1  A    between atoms: C_4  and  C_5
REMARK    2  A    between atoms: C_9  and  C_10
REMARK    3  A    between atoms: C_10  and  N_11
REMARK    4  A    between atoms: N_11  and  C_12
REMARK                            x       y       z     vdW  Elec       q    Type
REMARK                         _______ _______ _______ _____ _____    ______ ____
ROOT
ATOM      1  C   UNL     1      49.237   6.313  16.178  0.00  0.00    +0.000 A 
ATOM      2  C   UNL     1      50.358   7.033  15.738  0.00  0.00    +0.000 A 
ATOM      3  C   UNL     1      50.400   7.594  14.459  0.00  0.00    +0.000 A 
ATOM      4  C   UNL     1      49.305   7.471  13.602  0.00  0.00    +0.000 A 
ATOM      5  C   UNL     1      48.151   6.779  13.994  0.00  0.00    +0.000 A 
ATOM      6  C   UNL     1      48.164   6.189  15.274  0.00  0.00    +0.000 A 
ENDROOT
BRANCH   1  10
ATOM      7  C   UNL     1      48.951   4.589  20.123  0.00  0.00    +0.000 A 
ATOM      8  C   UNL     1      49.359   5.907  19.965  0.00  0.00    +0.000 A 
ATOM      9  C   UNL     1      49.474   6.454  18.683  0.00  0.00    +0.000 A 
ATOM     10  C   UNL     1      49.165   5.705  17.529  0.00  0.00    +0.000 A 
ATOM     11  C   UNL     1      48.765   4.371  17.719  0.00  0.00    +0.000 A 
ATOM     12  C   UNL     1      48.663   3.817  19.001  0.00  0.00    +0.000 A 
ENDBRANCH   1  10
BRANCH   5  13
ATOM     13  C   UNL     1      46.913   6.677  13.103  0.00  0.00    +0.000 C 
ATOM     14  C   UNL     1      47.072   6.932  11.619  0.00  0.00    +0.000 C 
ATOM     15  C   UNL     1      46.417   7.975  12.461  0.00  0.00    +0.000 C 
BRANCH  13  16
ATOM     16  N   UNL     1      45.823   5.862  13.665  0.00  0.00    +0.000 N 
ATOM     17  H   UNL     1      45.960   5.574  14.630  0.00  0.00    +0.000 HD
BRANCH  16  18
ATOM     18  C   UNL     1      44.977   4.987  12.961  0.00  0.00    +0.000 A 
ATOM     19  C   UNL     1      45.370   3.757  12.445  0.00  0.00    +0.000 A 
ATOM     20  C   UNL     1      44.457   3.023  11.696  0.00  0.00    +0.000 A 
ATOM     21  N   UNL     1      43.206   3.437  11.400  0.00  0.00    +0.000 NA
ATOM     22  C   UNL     1      42.852   4.646  11.877  0.00  0.00    +0.000 A 
ATOM     23  C   UNL     1      43.692   5.442  12.643  0.00  0.00    +0.000 A 
ENDBRANCH  16  18
ENDBRANCH  13  16
ENDBRANCH   5  13
TORSDOF 4
ENDMDL
MODEL 9
REMARK VINA RESULT:    -5.252      3.049      6.518
REMARK INTER + INTRA:          -7.649
REMARK INTER:                  -6.921
REMARK INTRA:                  -0.728
REMARK UNBOUND:                -1.169
REMARK  Name = 
REMARK  4 active torsions:
REMARK  status: ('A' for Active; 'I' for Inactive)
REMARK    1  A    between atoms: C_4  and  C_5
REMARK    2  A    between atoms: C_9  and  C_10
REMARK    3  A    between atoms: C_10  and  N_11
REMARK    4  A    between atoms: N_11  and  C_12
REMARK                            x       y       z     vdW  Elec       q    Type
REMARK                         _______ _______ _______ _____ _____    ______ ____
ROOT
ATOM      1  C   UNL     1      46.499   6.035  12.607  0.00  0.00    +0.000 A 
ATOM      2  C   UNL     1      47.333   5.664  13.673  0.00  0.00    +0.000 A 
ATOM      3  C   UNL     1      48.208   6.583  14.260  0.00  0.00    +0.000 A 
ATOM      4  C   UNL     1      48.243   7.904  13.812  0.00  0.00    +0.000 A 
ATOM      5  C   UNL     1      47.419   8.337  12.764  0.00  0.00    +0.000 A 
ATOM      6  C   UNL     1      46.584   7.371  12.167  0.00  0.00    +0.000 A 
ENDROOT
BRANCH   1  10
ATOM      7  C   UNL     1      43.708   3.303  10.774  0.00  0.00    +0.000 A 
ATOM      8  C   UNL     1      44.042   3.165  12.114  0.00  0.00    +0.000 A 
ATOM      9  C   UNL     1      44.966   4.038  12.698  0.00  0.00    +0.000 A 
ATOM     10  C   UNL     1      45.563   5.082  11.964  0.00  0.00    +0.000 A 
ATOM     11  C   UNL     1      45.215   5.191  10.606  0.00  0.00    +0.000 A 
ATOM     12  C   UNL     1      44.301   4.309  10.015  0.00  0.00    +0.000 A 
ENDBRANCH   1  10
BRANCH   5  13
ATOM     13  C   UNL     1      47.390   9.789  12.288  0.00  0.00    +0.000 C 
ATOM     14  C   UNL     1      48.474  10.257  11.339  0.00  0.00    +0.000 C 
ATOM     15  C   UNL     1      48.530  10.693  12.764  0.00  0.00    +0.000 C 
BRANCH  13  16
ATOM     16  N   UNL     1      46.070  10.435  12.380  0.00  0.00    +0.000 N 
ATOM     17  H   UNL     1      45.613  10.344  13.283  0.00  0.00    +0.000 HD
BRANCH  16  18
ATOM     18  C   UNL     1      45.152  10.627  11.332  0.00  0.00    +0.000 A 
ATOM     19  C   UNL     1      45.218  11.663  10.407  0.00  0.00    +0.000 A 
ATOM     20  C   UNL     1      44.201  11.789   9.469  0.00  0.00    +0.000 A 
ATOM     21  N   UNL     1      43.116  10.986   9.409  0.00  0.00    +0.000 NA
ATOM     22  C   UNL     1      43.048  10.010  10.334  0.00  0.00    +0.000 A 
ATOM     23  C   UNL     1      44.023   9.801  11.299  0.00  0.00    +0.000 A 
ENDBRANCH  16  18
ENDBRANCH  13  16
ENDBRANCH   5  13
TORSDOF 4
ENDMDL
