MODEL 1
REMARK VINA RESULT:    -8.181      0.000      0.000
REMARK INTER + INTRA:         -12.154
REMARK INTER:                 -11.051
REMARK INTRA:                  -1.103
REMARK UNBOUND:                -1.103
REMARK  Name = 
REMARK  7 active torsions:
REMARK  status: ('A' for Active; 'I' for Inactive)
REMARK    1  A    between atoms: C_1  and  N_2
REMARK    2  A    between atoms: N_2  and  C_3
REMARK    3  A    between atoms: C_3  and  C_4
REMARK    4  A    between atoms: C_7  and  C_8
REMARK    5  A    between atoms: C_8  and  N_9
REMARK    6  A    between atoms: C_10  and  C_12
REMARK    7  A    between atoms: C_24  and  C_26
REMARK                            x       y       z     vdW  Elec       q    Type
REMARK                         _______ _______ _______ _____ _____    ______ ____
ROOT
ATOM      1  C   UNL     1      46.592   4.624  13.521  0.00  0.00    +0.000 A 
ATOM      2  C   UNL     1      47.209   5.820  13.119  0.00  0.00    +0.000 A 
ATOM      3  C   UNL     1      48.059   6.506  13.987  0.00  0.00    +0.000 A 
ATOM      4  C   UNL     1      48.319   6.001  15.266  0.00  0.00    +0.000 A 
ATOM      5  C   UNL     1      47.662   4.836  15.684  0.00  0.00    +0.000 A 
ATOM      6  C   UNL     1      46.813   4.146  14.817  0.00  0.00    +0.000 A 
ENDROOT
BRANCH   1   7
ATOM      7  C   UNL     1      45.706   3.876  12.559  0.00  0.00    +0.000 C 
BRANCH   7   9
ATOM      8  C   UNL     1      43.577   5.202  12.964  0.00  0.00    +0.000 C 
ATOM      9  N   UNL     1      44.507   4.550  12.047  0.00  0.00    +0.000 N 
ATOM     10  C   UNL     1      44.086   4.500  10.704  0.00  0.00    +0.000 C 
ATOM     11  O   UNL     1      43.045   5.052  10.333  0.00  0.00    +0.000 OA
BRANCH  10  12
ATOM     12  C   UNL     1      44.883   3.831   9.644  0.00  0.00    +0.000 A 
ATOM     13  C   UNL     1      44.981   2.453   9.445  0.00  0.00    +0.000 A 
ATOM     14  C   UNL     1      45.799   1.948   8.434  0.00  0.00    +0.000 A 
ATOM     15  C   UNL     1      46.446   2.844   7.602  0.00  0.00    +0.000 A 
ATOM     16  N   UNL     1      46.321   4.182   7.710  0.00  0.00    +0.000 NA
ATOM     17  C   UNL     1      45.537   4.644   8.721  0.00  0.00    +0.000 A 
ENDBRANCH  10  12
ENDBRANCH   7   9
ENDBRANCH   1   7
BRANCH   4  18
ATOM     18  C   UNL     1      49.271   6.710  16.189  0.00  0.00    +0.000 C 
BRANCH  18  19
ATOM     19  N   UNL     1      50.308   5.826  16.648  0.00  0.00    +0.000 N 
ATOM     20  C   UNL     1      50.394   5.473  17.970  0.00  0.00    +0.000 C 
ATOM     21  O   UNL     1      49.566   5.846  18.797  0.00  0.00    +0.000 OA
ATOM     22  H   UNL     1      51.112   5.701  16.041  0.00  0.00    +0.000 HD
BRANCH  20  23
ATOM     23  C   UNL     1      51.492   4.575  18.337  0.00  0.00    +0.000 A 
ATOM     24  C   UNL     1      52.549   5.062  19.096  0.00  0.00    +0.000 A 
ATOM     25  S   UNL     1      53.714   3.880  19.481  0.00  0.00    +0.000 S 
ATOM     26  C   UNL     1      52.876   2.688  18.603  0.00  0.00    +0.000 A 
ATOM     27  N   UNL     1      53.361   1.421  18.510  0.00  0.00    +0.000 NA
ATOM     28  C   UNL     1      52.641   0.626  17.790  0.00  0.00    +0.000 A 
ATOM     29  N   UNL     1      51.475   0.983  17.161  0.00  0.00    +0.000 N 
ATOM     30  C   UNL     1      50.933   2.243  17.250  0.00  0.00    +0.000 A 
ATOM     31  O   UNL     1      49.868   2.517  16.706  0.00  0.00    +0.000 OA
ATOM     32  C   UNL     1      51.712   3.179  18.039  0.00  0.00    +0.000 A 
ATOM     33  H   UNL     1      50.955   0.309  16.620  0.00  0.00    +0.000 HD
ENDBRANCH  20  23
ENDBRANCH  18  19
ENDBRANCH   4  18
TORSDOF 6
ENDMDL
MODEL 2
REMARK VINA RESULT:    -7.944      2.658      3.327
REMARK INTER + INTRA:         -11.833
REMARK INTER:                 -11.041
REMARK INTRA:                  -0.792
REMARK UNBOUND:                -1.103
REMARK  Name = 
REMARK  7 active torsions:
REMARK  status: ('A' for Active; 'I' for Inactive)
REMARK    1  A    between atoms: C_1  and  N_2
REMARK    2  A    between atoms: N_2  and  C_3
REMARK    3  A    between atoms: C_3  and  C_4
REMARK    4  A    between atoms: C_7  and  C_8
REMARK    5  A    between atoms: C_8  and  N_9
REMARK    6  A    between atoms: C_10  and  C_12
REMARK    7  A    between atoms: C_24  and  C_26
REMARK                            x       y       z     vdW  Elec       q    Type
REMARK                         _______ _______ _______ _____ _____    ______ ____
ROOT
ATOM      1  C   UNL     1      45.345   6.774  11.361  0.00  0.00    +0.000 A 
ATOM      2  C   UNL     1      46.578   6.180  11.674  0.00  0.00    +0.000 A 
ATOM      3  C   UNL     1      47.436   6.772  12.601  0.00  0.00    +0.000 A 
ATOM      4  C   UNL     1      47.070   7.962  13.241  0.00  0.00    +0.000 A 
ATOM      5  C   UNL     1      45.863   8.581  12.888  0.00  0.00    +0.000 A 
ATOM      6  C   UNL     1      45.002   7.988  11.964  0.00  0.00    +0.000 A 
ENDROOT
BRANCH   1   7
ATOM      7  C   UNL     1      44.414   6.101  10.385  0.00  0.00    +0.000 C 
BRANCH   7   9
ATOM      8  C   UNL     1      42.722   5.000  11.927  0.00  0.00    +0.000 C 
ATOM      9  N   UNL     1      43.679   4.911  10.829  0.00  0.00    +0.000 N 
ATOM     10  C   UNL     1      43.933   3.607  10.361  0.00  0.00    +0.000 C 
ATOM     11  O   UNL     1      43.312   2.633  10.798  0.00  0.00    +0.000 OA
BRANCH  10  12
ATOM     12  C   UNL     1      44.915   3.324   9.283  0.00  0.00    +0.000 A 
ATOM     13  C   UNL     1      45.517   4.276   8.459  0.00  0.00    +0.000 A 
ATOM     14  C   UNL     1      46.396   3.876   7.452  0.00  0.00    +0.000 A 
ATOM     15  C   UNL     1      46.704   2.532   7.344  0.00  0.00    +0.000 A 
ATOM     16  N   UNL     1      46.205   1.586   8.166  0.00  0.00    +0.000 NA
ATOM     17  C   UNL     1      45.331   2.005   9.120  0.00  0.00    +0.000 A 
ENDBRANCH  10  12
ENDBRANCH   7   9
ENDBRANCH   1   7
BRANCH   4  18
ATOM     18  C   UNL     1      47.969   8.582  14.275  0.00  0.00    +0.000 C 
BRANCH  18  19
ATOM     19  N   UNL     1      48.169   7.697  15.390  0.00  0.00    +0.000 N 
ATOM     20  C   UNL     1      49.330   6.980  15.515  0.00  0.00    +0.000 C 
ATOM     21  O   UNL     1      50.260   7.105  14.722  0.00  0.00    +0.000 OA
ATOM     22  H   UNL     1      47.345   7.414  15.911  0.00  0.00    +0.000 HD
BRANCH  20  23
ATOM     23  C   UNL     1      49.433   6.099  16.682  0.00  0.00    +0.000 A 
ATOM     24  C   UNL     1      50.409   6.343  17.640  0.00  0.00    +0.000 A 
ATOM     25  S   UNL     1      50.359   5.261  18.955  0.00  0.00    +0.000 S 
ATOM     26  C   UNL     1      49.067   4.396  18.267  0.00  0.00    +0.000 A 
ATOM     27  N   UNL     1      48.546   3.306  18.892  0.00  0.00    +0.000 NA
ATOM     28  C   UNL     1      47.590   2.727  18.246  0.00  0.00    +0.000 A 
ATOM     29  N   UNL     1      47.102   3.143  17.033  0.00  0.00    +0.000 N 
ATOM     30  C   UNL     1      47.578   4.254  16.378  0.00  0.00    +0.000 A 
ATOM     31  O   UNL     1      47.093   4.620  15.313  0.00  0.00    +0.000 OA
ATOM     32  C   UNL     1      48.664   4.935  17.058  0.00  0.00    +0.000 A 
ATOM     33  H   UNL     1      46.345   2.650  16.585  0.00  0.00    +0.000 HD
ENDBRANCH  20  23
ENDBRANCH  18  19
ENDBRANCH   4  18
TORSDOF 6
ENDMDL
MODEL 3
REMARK VINA RESULT:    -7.539      1.783      3.021
REMARK INTER + INTRA:         -11.286
REMARK INTER:                 -10.163
REMARK INTRA:                  -1.123
REMARK UNBOUND:                -1.103
REMARK  Name = 
REMARK  7 active torsions:
REMARK  status: ('A' for Active; 'I' for Inactive)
REMARK    1  A    between atoms: C_1  and  N_2
REMARK    2  A    between atoms: N_2  and  C_3
REMARK    3  A    between atoms: C_3  and  C_4
REMARK    4  A    between atoms: C_7  and  C_8
REMARK    5  A    between atoms: C_8  and  N_9
REMARK    6  A    between atoms: C_10  and  C_12
REMARK    7  A    between atoms: C_24  and  C_26
REMARK                            x       y       z     vdW  Elec       q    Type
REMARK                         _______ _______ _______ _____ _____    ______ ____
ROOT
ATOM      1  C   UNL     1      47.210   5.654  13.423  0.00  0.00    +0.000 A 
ATOM      2  C   UNL     1      46.710   4.344  13.501  0.00  0.00    +0.000 A 
ATOM      3  C   UNL     1      46.853   3.599  14.671  0.00  0.00    +0.000 A 
ATOM      4  C   UNL     1      47.487   4.155  15.789  0.00  0.00    +0.000 A 
ATOM      5  C   UNL     1      48.031   5.442  15.692  0.00  0.00    +0.000 A 
ATOM      6  C   UNL     1      47.886   6.191  14.523  0.00  0.00    +0.000 A 
ENDROOT
BRANCH   1   7
ATOM      7  C   UNL     1      47.014   6.460  12.164  0.00  0.00    +0.000 C 
BRANCH   7   9
ATOM      8  C   UNL     1      45.588   8.505  12.651  0.00  0.00    +0.000 C 
ATOM      9  N   UNL     1      45.762   7.209  12.003  0.00  0.00    +0.000 N 
ATOM     10  C   UNL     1      44.614   6.699  11.365  0.00  0.00    +0.000 C 
ATOM     11  O   UNL     1      43.571   7.357  11.293  0.00  0.00    +0.000 OA
BRANCH  10  12
ATOM     12  C   UNL     1      44.596   5.372  10.699  0.00  0.00    +0.000 A 
ATOM     13  C   UNL     1      45.368   5.002   9.597  0.00  0.00    +0.000 A 
ATOM     14  C   UNL     1      45.227   3.733   9.036  0.00  0.00    +0.000 A 
ATOM     15  C   UNL     1      44.362   2.839   9.642  0.00  0.00    +0.000 A 
ATOM     16  N   UNL     1      43.652   3.127  10.752  0.00  0.00    +0.000 NA
ATOM     17  C   UNL     1      43.792   4.381  11.258  0.00  0.00    +0.000 A 
ENDBRANCH  10  12
ENDBRANCH   7   9
ENDBRANCH   1   7
BRANCH   4  18
ATOM     18  C   UNL     1      47.604   3.374  17.069  0.00  0.00    +0.000 C 
BRANCH  18  19
ATOM     19  N   UNL     1      48.975   3.251  17.481  0.00  0.00    +0.000 N 
ATOM     20  C   UNL     1      49.803   2.329  16.896  0.00  0.00    +0.000 C 
ATOM     21  O   UNL     1      49.429   1.616  15.968  0.00  0.00    +0.000 OA
ATOM     22  H   UNL     1      49.227   3.656  18.378  0.00  0.00    +0.000 HD
BRANCH  20  23
ATOM     23  C   UNL     1      51.181   2.277  17.395  0.00  0.00    +0.000 A 
ATOM     24  C   UNL     1      51.795   1.045  17.581  0.00  0.00    +0.000 A 
ATOM     25  S   UNL     1      53.409   1.161  18.113  0.00  0.00    +0.000 S 
ATOM     26  C   UNL     1      53.328   2.858  18.165  0.00  0.00    +0.000 A 
ATOM     27  N   UNL     1      54.398   3.595  18.570  0.00  0.00    +0.000 NA
ATOM     28  C   UNL     1      54.191   4.869  18.590  0.00  0.00    +0.000 A 
ATOM     29  N   UNL     1      53.013   5.475  18.234  0.00  0.00    +0.000 N 
ATOM     30  C   UNL     1      51.916   4.774  17.793  0.00  0.00    +0.000 A 
ATOM     31  O   UNL     1      50.890   5.350  17.445  0.00  0.00    +0.000 OA
ATOM     32  C   UNL     1      52.093   3.334  17.763  0.00  0.00    +0.000 A 
ATOM     33  H   UNL     1      52.920   6.479  18.263  0.00  0.00    +0.000 HD
ENDBRANCH  20  23
ENDBRANCH  18  19
ENDBRANCH   4  18
TORSDOF 6
ENDMDL
MODEL 4
REMARK VINA RESULT:    -7.485      3.614      8.861
REMARK INTER + INTRA:         -11.214
REMARK INTER:                  -9.627
REMARK INTRA:                  -1.587
REMARK UNBOUND:                -1.103
REMARK  Name = 
REMARK  7 active torsions:
REMARK  status: ('A' for Active; 'I' for Inactive)
REMARK    1  A    between atoms: C_1  and  N_2
REMARK    2  A    between atoms: N_2  and  C_3
REMARK    3  A    between atoms: C_3  and  C_4
REMARK    4  A    between atoms: C_7  and  C_8
REMARK    5  A    between atoms: C_8  and  N_9
REMARK    6  A    between atoms: C_10  and  C_12
REMARK    7  A    between atoms: C_24  and  C_26
REMARK                            x       y       z     vdW  Elec       q    Type
REMARK                         _______ _______ _______ _____ _____    ______ ____
ROOT
ATOM      1  C   UNL     1      49.067   7.713  16.200  0.00  0.00    +0.000 A 
ATOM      2  C   UNL     1      48.445   8.882  15.729  0.00  0.00    +0.000 A 
ATOM      3  C   UNL     1      47.924   8.937  14.437  0.00  0.00    +0.000 A 
ATOM      4  C   UNL     1      48.003   7.820  13.596  0.00  0.00    +0.000 A 
ATOM      5  C   UNL     1      48.670   6.674  14.048  0.00  0.00    +0.000 A 
ATOM      6  C   UNL     1      49.189   6.615  15.342  0.00  0.00    +0.000 A 
ENDROOT
BRANCH   1   7
ATOM      7  C   UNL     1      49.591   7.658  17.612  0.00  0.00    +0.000 C 
BRANCH   7   9
ATOM      8  C   UNL     1      48.403   8.767  19.564  0.00  0.00    +0.000 C 
ATOM      9  N   UNL     1      48.623   7.602  18.713  0.00  0.00    +0.000 N 
ATOM     10  C   UNL     1      47.963   6.427  19.125  0.00  0.00    +0.000 C 
ATOM     11  O   UNL     1      47.187   6.427  20.086  0.00  0.00    +0.000 OA
BRANCH  10  12
ATOM     12  C   UNL     1      48.114   5.136  18.408  0.00  0.00    +0.000 A 
ATOM     13  C   UNL     1      49.253   4.330  18.410  0.00  0.00    +0.000 A 
ATOM     14  C   UNL     1      49.282   3.155  17.658  0.00  0.00    +0.000 A 
ATOM     15  C   UNL     1      48.137   2.782  16.977  0.00  0.00    +0.000 A 
ATOM     16  N   UNL     1      46.990   3.491  17.006  0.00  0.00    +0.000 NA
ATOM     17  C   UNL     1      47.002   4.644  17.727  0.00  0.00    +0.000 A 
ENDBRANCH  10  12
ENDBRANCH   7   9
ENDBRANCH   1   7
BRANCH   4  18
ATOM     18  C   UNL     1      47.403   7.857  12.218  0.00  0.00    +0.000 C 
BRANCH  18  19
ATOM     19  N   UNL     1      46.761   6.612  11.896  0.00  0.00    +0.000 N 
ATOM     20  C   UNL     1      45.427   6.425  12.150  0.00  0.00    +0.000 C 
ATOM     21  O   UNL     1      44.720   7.322  12.605  0.00  0.00    +0.000 OA
ATOM     22  H   UNL     1      47.361   5.807  11.742  0.00  0.00    +0.000 HD
BRANCH  20  23
ATOM     23  C   UNL     1      44.869   5.117  11.793  0.00  0.00    +0.000 A 
ATOM     24  C   UNL     1      44.179   4.384  12.750  0.00  0.00    +0.000 A 
ATOM     25  S   UNL     1      43.550   2.914  12.161  0.00  0.00    +0.000 S 
ATOM     26  C   UNL     1      44.224   3.179  10.622  0.00  0.00    +0.000 A 
ATOM     27  N   UNL     1      44.072   2.263   9.628  0.00  0.00    +0.000 NA
ATOM     28  C   UNL     1      44.659   2.576   8.521  0.00  0.00    +0.000 A 
ATOM     29  N   UNL     1      45.377   3.726   8.315  0.00  0.00    +0.000 N 
ATOM     30  C   UNL     1      45.535   4.692   9.281  0.00  0.00    +0.000 A 
ATOM     31  O   UNL     1      46.151   5.727   9.051  0.00  0.00    +0.000 OA
ATOM     32  C   UNL     1      44.904   4.382  10.551  0.00  0.00    +0.000 A 
ATOM     33  H   UNL     1      45.804   3.915   7.421  0.00  0.00    +0.000 HD
ENDBRANCH  20  23
ENDBRANCH  18  19
ENDBRANCH   4  18
TORSDOF 6
ENDMDL
MODEL 5
REMARK VINA RESULT:    -7.291      3.867      8.773
REMARK INTER + INTRA:         -10.952
REMARK INTER:                  -9.456
REMARK INTRA:                  -1.496
REMARK UNBOUND:                -1.103
REMARK  Name = 
REMARK  7 active torsions:
REMARK  status: ('A' for Active; 'I' for Inactive)
REMARK    1  A    between atoms: C_1  and  N_2
REMARK    2  A    between atoms: N_2  and  C_3
REMARK    3  A    between atoms: C_3  and  C_4
REMARK    4  A    between atoms: C_7  and  C_8
REMARK    5  A    between atoms: C_8  and  N_9
REMARK    6  A    between atoms: C_10  and  C_12
REMARK    7  A    between atoms: C_24  and  C_26
REMARK                            x       y       z     vdW  Elec       q    Type
REMARK                         _______ _______ _______ _____ _____    ______ ____
ROOT
ATOM      1  C   UNL     1      49.097   7.715  16.464  0.00  0.00    +0.000 A 
ATOM      2  C   UNL     1      49.179   6.687  15.510  0.00  0.00    +0.000 A 
ATOM      3  C   UNL     1      48.740   6.895  14.203  0.00  0.00    +0.000 A 
ATOM      4  C   UNL     1      48.225   8.140  13.822  0.00  0.00    +0.000 A 
ATOM      5  C   UNL     1      48.095   9.147  14.787  0.00  0.00    +0.000 A 
ATOM      6  C   UNL     1      48.536   8.942  16.095  0.00  0.00    +0.000 A 
ENDROOT
BRANCH   1   7
ATOM      7  C   UNL     1      49.609   7.485  17.863  0.00  0.00    +0.000 C 
BRANCH   7   9
ATOM      8  C   UNL     1      48.429   8.494  19.873  0.00  0.00    +0.000 C 
ATOM      9  N   UNL     1      48.634   7.379  18.954  0.00  0.00    +0.000 N 
ATOM     10  C   UNL     1      47.951   6.193  19.290  0.00  0.00    +0.000 C 
ATOM     11  O   UNL     1      47.169   6.148  20.245  0.00  0.00    +0.000 OA
BRANCH  10  12
ATOM     12  C   UNL     1      48.083   4.946  18.495  0.00  0.00    +0.000 A 
ATOM     13  C   UNL     1      49.173   4.074  18.521  0.00  0.00    +0.000 A 
ATOM     14  C   UNL     1      49.193   2.953  17.691  0.00  0.00    +0.000 A 
ATOM     15  C   UNL     1      48.083   2.695  16.906  0.00  0.00    +0.000 A 
ATOM     16  N   UNL     1      46.978   3.468  16.905  0.00  0.00    +0.000 NA
ATOM     17  C   UNL     1      47.000   4.568  17.704  0.00  0.00    +0.000 A 
ENDBRANCH  10  12
ENDBRANCH   7   9
ENDBRANCH   1   7
BRANCH   4  18
ATOM     18  C   UNL     1      47.793   8.386  12.402  0.00  0.00    +0.000 C 
BRANCH  18  19
ATOM     19  N   UNL     1      47.246   7.197  11.809  0.00  0.00    +0.000 N 
ATOM     20  C   UNL     1      45.928   7.143  11.436  0.00  0.00    +0.000 C 
ATOM     21  O   UNL     1      45.184   8.115  11.537  0.00  0.00    +0.000 OA
ATOM     22  H   UNL     1      47.770   6.336  11.930  0.00  0.00    +0.000 HD
BRANCH  20  23
ATOM     23  C   UNL     1      45.466   5.882  10.849  0.00  0.00    +0.000 A 
ATOM     24  C   UNL     1      45.747   5.603   9.518  0.00  0.00    +0.000 A 
ATOM     25  S   UNL     1      45.186   4.077   9.007  0.00  0.00    +0.000 S 
ATOM     26  C   UNL     1      44.501   3.758  10.530  0.00  0.00    +0.000 A 
ATOM     27  N   UNL     1      43.832   2.596  10.764  0.00  0.00    +0.000 NA
ATOM     28  C   UNL     1      43.337   2.496  11.952  0.00  0.00    +0.000 A 
ATOM     29  N   UNL     1      43.457   3.449  12.932  0.00  0.00    +0.000 N 
ATOM     30  C   UNL     1      44.146   4.625  12.750  0.00  0.00    +0.000 A 
ATOM     31  O   UNL     1      44.267   5.438  13.660  0.00  0.00    +0.000 OA
ATOM     32  C   UNL     1      44.713   4.792  11.425  0.00  0.00    +0.000 A 
ATOM     33  H   UNL     1      43.054   3.304  13.845  0.00  0.00    +0.000 HD
ENDBRANCH  20  23
ENDBRANCH  18  19
ENDBRANCH   4  18
TORSDOF 6
ENDMDL
MODEL 6
REMARK VINA RESULT:    -7.257      3.441     10.358
REMARK INTER + INTRA:         -10.906
REMARK INTER:                  -9.621
REMARK INTRA:                  -1.286
REMARK UNBOUND:                -1.103
REMARK  Name = 
REMARK  7 active torsions:
REMARK  status: ('A' for Active; 'I' for Inactive)
REMARK    1  A    between atoms: C_1  and  N_2
REMARK    2  A    between atoms: N_2  and  C_3
REMARK    3  A    between atoms: C_3  and  C_4
REMARK    4  A    between atoms: C_7  and  C_8
REMARK    5  A    between atoms: C_8  and  N_9
REMARK    6  A    between atoms: C_10  and  C_12
REMARK    7  A    between atoms: C_24  and  C_26
REMARK                            x       y       z     vdW  Elec       q    Type
REMARK                         _______ _______ _______ _____ _____    ______ ____
ROOT
ATOM      1  C   UNL     1      51.565   3.651  17.727  0.00  0.00    +0.000 A 
ATOM      2  C   UNL     1      50.999   2.436  17.307  0.00  0.00    +0.000 A 
ATOM      3  C   UNL     1      49.628   2.334  17.076  0.00  0.00    +0.000 A 
ATOM      4  C   UNL     1      48.799   3.449  17.248  0.00  0.00    +0.000 A 
ATOM      5  C   UNL     1      49.356   4.646  17.717  0.00  0.00    +0.000 A 
ATOM      6  C   UNL     1      50.729   4.751  17.946  0.00  0.00    +0.000 A 
ENDROOT
BRANCH   1   7
ATOM      7  C   UNL     1      53.054   3.754  17.936  0.00  0.00    +0.000 C 
BRANCH   7   9
ATOM      8  C   UNL     1      54.199   1.630  18.729  0.00  0.00    +0.000 C 
ATOM      9  N   UNL     1      53.664   2.959  19.007  0.00  0.00    +0.000 N 
ATOM     10  C   UNL     1      53.653   3.326  20.368  0.00  0.00    +0.000 C 
ATOM     11  O   UNL     1      54.146   2.599  21.235  0.00  0.00    +0.000 OA
BRANCH  10  12
ATOM     12  C   UNL     1      53.099   4.621  20.839  0.00  0.00    +0.000 A 
ATOM     13  C   UNL     1      51.838   4.811  21.405  0.00  0.00    +0.000 A 
ATOM     14  C   UNL     1      51.419   6.090  21.769  0.00  0.00    +0.000 A 
ATOM     15  C   UNL     1      52.307   7.140  21.621  0.00  0.00    +0.000 A 
ATOM     16  N   UNL     1      53.562   6.992  21.149  0.00  0.00    +0.000 NA
ATOM     17  C   UNL     1      53.931   5.737  20.777  0.00  0.00    +0.000 A 
ENDBRANCH  10  12
ENDBRANCH   7   9
ENDBRANCH   1   7
BRANCH   4  18
ATOM     18  C   UNL     1      47.326   3.359  16.956  0.00  0.00    +0.000 C 
BRANCH  18  19
ATOM     19  N   UNL     1      46.920   4.362  16.010  0.00  0.00    +0.000 N 
ATOM     20  C   UNL     1      46.982   4.120  14.662  0.00  0.00    +0.000 C 
ATOM     21  O   UNL     1      47.328   3.030  14.213  0.00  0.00    +0.000 OA
ATOM     22  H   UNL     1      46.856   5.318  16.346  0.00  0.00    +0.000 HD
BRANCH  20  23
ATOM     23  C   UNL     1      46.554   5.210  13.781  0.00  0.00    +0.000 A 
ATOM     24  C   UNL     1      47.384   6.309  13.599  0.00  0.00    +0.000 A 
ATOM     25  S   UNL     1      46.764   7.459  12.506  0.00  0.00    +0.000 S 
ATOM     26  C   UNL     1      45.341   6.556  12.277  0.00  0.00    +0.000 A 
ATOM     27  N   UNL     1      44.356   7.005  11.453  0.00  0.00    +0.000 NA
ATOM     28  C   UNL     1      43.320   6.237  11.394  0.00  0.00    +0.000 A 
ATOM     29  N   UNL     1      43.183   5.055  12.077  0.00  0.00    +0.000 N 
ATOM     30  C   UNL     1      44.162   4.549  12.898  0.00  0.00    +0.000 A 
ATOM     31  O   UNL     1      44.023   3.470  13.464  0.00  0.00    +0.000 OA
ATOM     32  C   UNL     1      45.345   5.382  13.009  0.00  0.00    +0.000 A 
ATOM     33  H   UNL     1      42.349   4.496  11.979  0.00  0.00    +0.000 HD
ENDBRANCH  20  23
ENDBRANCH  18  19
ENDBRANCH   4  18
TORSDOF 6
ENDMDL
MODEL 7
REMARK VINA RESULT:    -7.207      2.827      3.611
REMARK INTER + INTRA:         -10.838
REMARK INTER:                 -10.507
REMARK INTRA:                  -0.332
REMARK UNBOUND:                -1.103
REMARK  Name = 
REMARK  7 active torsions:
REMARK  status: ('A' for Active; 'I' for Inactive)
REMARK    1  A    between atoms: C_1  and  N_2
REMARK    2  A    between atoms: N_2  and  C_3
REMARK    3  A    between atoms: C_3  and  C_4
REMARK    4  A    between atoms: C_7  and  C_8
REMARK    5  A    between atoms: C_8  and  N_9
REMARK    6  A    between atoms: C_10  and  C_12
REMARK    7  A    between atoms: C_24  and  C_26
REMARK                            x       y       z     vdW  Elec       q    Type
REMARK                         _______ _______ _______ _____ _____    ______ ____
ROOT
ATOM      1  C   UNL     1      45.572   6.568  11.950  0.00  0.00    +0.000 A 
ATOM      2  C   UNL     1      46.508   5.641  12.436  0.00  0.00    +0.000 A 
ATOM      3  C   UNL     1      47.540   6.050  13.280  0.00  0.00    +0.000 A 
ATOM      4  C   UNL     1      47.646   7.392  13.665  0.00  0.00    +0.000 A 
ATOM      5  C   UNL     1      46.742   8.325  13.138  0.00  0.00    +0.000 A 
ATOM      6  C   UNL     1      45.707   7.917  12.295  0.00  0.00    +0.000 A 
ENDROOT
BRANCH   1   7
ATOM      7  C   UNL     1      44.441   6.103  11.068  0.00  0.00    +0.000 C 
BRANCH   7   9
ATOM      8  C   UNL     1      42.812   5.003  12.677  0.00  0.00    +0.000 C 
ATOM      9  N   UNL     1      43.661   4.934  11.493  0.00  0.00    +0.000 N 
ATOM     10  C   UNL     1      43.775   3.656  10.911  0.00  0.00    +0.000 C 
ATOM     11  O   UNL     1      43.124   2.696  11.334  0.00  0.00    +0.000 OA
BRANCH  10  12
ATOM     12  C   UNL     1      44.636   3.392   9.730  0.00  0.00    +0.000 A 
ATOM     13  C   UNL     1      45.126   2.144   9.341  0.00  0.00    +0.000 A 
ATOM     14  C   UNL     1      45.963   2.036   8.231  0.00  0.00    +0.000 A 
ATOM     15  C   UNL     1      46.232   3.176   7.495  0.00  0.00    +0.000 A 
ATOM     16  N   UNL     1      45.721   4.388   7.791  0.00  0.00    +0.000 NA
ATOM     17  C   UNL     1      44.930   4.467   8.894  0.00  0.00    +0.000 A 
ENDBRANCH  10  12
ENDBRANCH   7   9
ENDBRANCH   1   7
BRANCH   4  18
ATOM     18  C   UNL     1      48.728   7.832  14.613  0.00  0.00    +0.000 C 
BRANCH  18  19
ATOM     19  N   UNL     1      48.412   7.472  15.968  0.00  0.00    +0.000 N 
ATOM     20  C   UNL     1      48.945   8.171  17.020  0.00  0.00    +0.000 C 
ATOM     21  O   UNL     1      49.658   9.156  16.851  0.00  0.00    +0.000 OA
ATOM     22  H   UNL     1      48.025   6.546  16.123  0.00  0.00    +0.000 HD
BRANCH  20  23
ATOM     23  C   UNL     1      48.569   7.719  18.363  0.00  0.00    +0.000 A 
ATOM     24  C   UNL     1      47.965   8.611  19.241  0.00  0.00    +0.000 A 
ATOM     25  S   UNL     1      47.544   7.914  20.738  0.00  0.00    +0.000 S 
ATOM     26  C   UNL     1      48.201   6.412  20.287  0.00  0.00    +0.000 A 
ATOM     27  N   UNL     1      48.185   5.358  21.147  0.00  0.00    +0.000 NA
ATOM     28  C   UNL     1      48.742   4.287  20.688  0.00  0.00    +0.000 A 
ATOM     29  N   UNL     1      49.307   4.172  19.443  0.00  0.00    +0.000 N 
ATOM     30  C   UNL     1      49.322   5.201  18.531  0.00  0.00    +0.000 A 
ATOM     31  O   UNL     1      49.801   5.052  17.412  0.00  0.00    +0.000 OA
ATOM     32  C   UNL     1      48.718   6.433  19.003  0.00  0.00    +0.000 A 
ATOM     33  H   UNL     1      49.719   3.302  19.142  0.00  0.00    +0.000 HD
ENDBRANCH  20  23
ENDBRANCH  18  19
ENDBRANCH   4  18
TORSDOF 6
ENDMDL
MODEL 8
REMARK VINA RESULT:    -7.081      3.778      8.573
REMARK INTER + INTRA:         -10.667
REMARK INTER:                  -8.739
REMARK INTRA:                  -1.928
REMARK UNBOUND:                -1.103
REMARK  Name = 
REMARK  7 active torsions:
REMARK  status: ('A' for Active; 'I' for Inactive)
REMARK    1  A    between atoms: C_1  and  N_2
REMARK    2  A    between atoms: N_2  and  C_3
REMARK    3  A    between atoms: C_3  and  C_4
REMARK    4  A    between atoms: C_7  and  C_8
REMARK    5  A    between atoms: C_8  and  N_9
REMARK    6  A    between atoms: C_10  and  C_12
REMARK    7  A    between atoms: C_24  and  C_26
REMARK                            x       y       z     vdW  Elec       q    Type
REMARK                         _______ _______ _______ _____ _____    ______ ____
ROOT
ATOM      1  C   UNL     1      50.302   6.937  17.631  0.00  0.00    +0.000 A 
ATOM      2  C   UNL     1      49.514   8.051  17.961  0.00  0.00    +0.000 A 
ATOM      3  C   UNL     1      48.794   8.729  16.977  0.00  0.00    +0.000 A 
ATOM      4  C   UNL     1      48.839   8.295  15.647  0.00  0.00    +0.000 A 
ATOM      5  C   UNL     1      49.667   7.216  15.310  0.00  0.00    +0.000 A 
ATOM      6  C   UNL     1      50.385   6.535  16.294  0.00  0.00    +0.000 A 
ENDROOT
BRANCH   1   7
ATOM      7  C   UNL     1      51.044   6.194  18.712  0.00  0.00    +0.000 C 
BRANCH   7   9
ATOM      8  C   UNL     1      50.710   6.229  21.230  0.00  0.00    +0.000 C 
ATOM      9  N   UNL     1      50.300   5.774  19.906  0.00  0.00    +0.000 N 
ATOM     10  C   UNL     1      49.266   4.817  19.895  0.00  0.00    +0.000 C 
ATOM     11  O   UNL     1      48.700   4.469  20.936  0.00  0.00    +0.000 OA
BRANCH  10  12
ATOM     12  C   UNL     1      48.757   4.208  18.640  0.00  0.00    +0.000 A 
ATOM     13  C   UNL     1      47.571   4.551  17.989  0.00  0.00    +0.000 A 
ATOM     14  C   UNL     1      47.184   3.871  16.834  0.00  0.00    +0.000 A 
ATOM     15  C   UNL     1      48.035   2.910  16.320  0.00  0.00    +0.000 A 
ATOM     16  N   UNL     1      49.225   2.599  16.873  0.00  0.00    +0.000 NA
ATOM     17  C   UNL     1      49.562   3.260  18.012  0.00  0.00    +0.000 A 
ENDBRANCH  10  12
ENDBRANCH   7   9
ENDBRANCH   1   7
BRANCH   4  18
ATOM     18  C   UNL     1      48.029   8.991  14.588  0.00  0.00    +0.000 C 
BRANCH  18  19
ATOM     19  N   UNL     1      46.996   8.134  14.074  0.00  0.00    +0.000 N 
ATOM     20  C   UNL     1      46.782   8.027  12.724  0.00  0.00    +0.000 C 
ATOM     21  O   UNL     1      47.491   8.607  11.905  0.00  0.00    +0.000 OA
ATOM     22  H   UNL     1      46.273   7.840  14.723  0.00  0.00    +0.000 HD
BRANCH  20  23
ATOM     23  C   UNL     1      45.698   7.134  12.302  0.00  0.00    +0.000 A 
ATOM     24  C   UNL     1      44.584   7.665  11.665  0.00  0.00    +0.000 A 
ATOM     25  S   UNL     1      43.443   6.490  11.194  0.00  0.00    +0.000 S 
ATOM     26  C   UNL     1      44.373   5.237  11.871  0.00  0.00    +0.000 A 
ATOM     27  N   UNL     1      43.940   3.947  11.829  0.00  0.00    +0.000 NA
ATOM     28  C   UNL     1      44.728   3.102  12.405  0.00  0.00    +0.000 A 
ATOM     29  N   UNL     1      45.913   3.428  13.015  0.00  0.00    +0.000 N 
ATOM     30  C   UNL     1      46.403   4.712  13.058  0.00  0.00    +0.000 A 
ATOM     31  O   UNL     1      47.485   4.963  13.577  0.00  0.00    +0.000 OA
ATOM     32  C   UNL     1      45.548   5.704  12.433  0.00  0.00    +0.000 A 
ATOM     33  H   UNL     1      46.487   2.716  13.440  0.00  0.00    +0.000 HD
ENDBRANCH  20  23
ENDBRANCH  18  19
ENDBRANCH   4  18
TORSDOF 6
ENDMDL
MODEL 9
REMARK VINA RESULT:    -6.973      3.801      4.968
REMARK INTER + INTRA:         -10.522
REMARK INTER:                  -9.483
REMARK INTRA:                  -1.039
REMARK UNBOUND:                -1.103
REMARK  Name = 
REMARK  7 active torsions:
REMARK  status: ('A' for Active; 'I' for Inactive)
REMARK    1  A    between atoms: C_1  and  N_2
REMARK    2  A    between atoms: N_2  and  C_3
REMARK    3  A    between atoms: C_3  and  C_4
REMARK    4  A    between atoms: C_7  and  C_8
REMARK    5  A    between atoms: C_8  and  N_9
REMARK    6  A    between atoms: C_10  and  C_12
REMARK    7  A    between atoms: C_24  and  C_26
REMARK                            x       y       z     vdW  Elec       q    Type
REMARK                         _______ _______ _______ _____ _____    ______ ____
ROOT
ATOM      1  C   UNL     1      46.411   4.587  13.416  0.00  0.00    +0.000 A 
ATOM      2  C   UNL     1      46.951   5.778  12.902  0.00  0.00    +0.000 A 
ATOM      3  C   UNL     1      47.828   6.548  13.665  0.00  0.00    +0.000 A 
ATOM      4  C   UNL     1      48.192   6.134  14.952  0.00  0.00    +0.000 A 
ATOM      5  C   UNL     1      47.613   4.974  15.484  0.00  0.00    +0.000 A 
ATOM      6  C   UNL     1      46.738   4.200  14.721  0.00  0.00    +0.000 A 
ENDROOT
BRANCH   1   7
ATOM      7  C   UNL     1      45.494   3.748  12.564  0.00  0.00    +0.000 C 
BRANCH   7   9
ATOM      8  C   UNL     1      43.271   4.919  12.935  0.00  0.00    +0.000 C 
ATOM      9  N   UNL     1      44.276   4.368  12.031  0.00  0.00    +0.000 N 
ATOM     10  C   UNL     1      43.912   4.351  10.670  0.00  0.00    +0.000 C 
ATOM     11  O   UNL     1      42.854   4.853  10.280  0.00  0.00    +0.000 OA
BRANCH  10  12
ATOM     12  C   UNL     1      44.792   3.781   9.618  0.00  0.00    +0.000 A 
ATOM     13  C   UNL     1      44.972   2.422   9.354  0.00  0.00    +0.000 A 
ATOM     14  C   UNL     1      45.862   2.013   8.361  0.00  0.00    +0.000 A 
ATOM     15  C   UNL     1      46.497   2.983   7.607  0.00  0.00    +0.000 A 
ATOM     16  N   UNL     1      46.297   4.306   7.777  0.00  0.00    +0.000 NA
ATOM     17  C   UNL     1      45.444   4.673   8.770  0.00  0.00    +0.000 A 
ENDBRANCH  10  12
ENDBRANCH   7   9
ENDBRANCH   1   7
BRANCH   4  18
ATOM     18  C   UNL     1      49.174   6.935  15.763  0.00  0.00    +0.000 C 
BRANCH  18  19
ATOM     19  N   UNL     1      48.521   7.615  16.848  0.00  0.00    +0.000 N 
ATOM     20  C   UNL     1      48.861   8.902  17.173  0.00  0.00    +0.000 C 
ATOM     21  O   UNL     1      49.686   9.540  16.524  0.00  0.00    +0.000 OA
ATOM     22  H   UNL     1      48.020   7.042  17.521  0.00  0.00    +0.000 HD
BRANCH  20  23
ATOM     23  C   UNL     1      48.143   9.504  18.301  0.00  0.00    +0.000 A 
ATOM     24  C   UNL     1      47.650  10.797  18.186  0.00  0.00    +0.000 A 
ATOM     25  S   UNL     1      46.797  11.327  19.563  0.00  0.00    +0.000 S 
ATOM     26  C   UNL     1      47.103   9.868  20.382  0.00  0.00    +0.000 A 
ATOM     27  N   UNL     1      46.655   9.674  21.652  0.00  0.00    +0.000 NA
ATOM     28  C   UNL     1      46.982   8.535  22.164  0.00  0.00    +0.000 A 
ATOM     29  N   UNL     1      47.711   7.569  21.519  0.00  0.00    +0.000 N 
ATOM     30  C   UNL     1      48.161   7.709  20.228  0.00  0.00    +0.000 A 
ATOM     31  O   UNL     1      48.778   6.809  19.668  0.00  0.00    +0.000 OA
ATOM     32  C   UNL     1      47.829   8.979  19.610  0.00  0.00    +0.000 A 
ATOM     33  H   UNL     1      47.925   6.695  21.975  0.00  0.00    +0.000 HD
ENDBRANCH  20  23
ENDBRANCH  18  19
ENDBRANCH   4  18
TORSDOF 6
ENDMDL
