MODEL 1
REMARK VINA RESULT:    -8.023      0.000      0.000
REMARK INTER + INTRA:         -11.564
REMARK INTER:                 -10.838
REMARK INTRA:                  -0.726
REMARK UNBOUND:                -0.726
REMARK  Name = 
REMARK  6 active torsions:
REMARK  status: ('A' for Active; 'I' for Inactive)
REMARK    1  A    between atoms: C_2  and  C_4
REMARK    2  A    between atoms: N_8  and  C_9
REMARK    3  A    between atoms: C_9  and  C_10
REMARK    4  A    between atoms: C_10  and  C_11
REMARK    5  A    between atoms: C_15  and  S_16
REMARK    6  A    between atoms: S_16  and  C_17
REMARK                            x       y       z     vdW  Elec       q    Type
REMARK                         _______ _______ _______ _____ _____    ______ ____
ROOT
ATOM      1  C   UNL     1      46.591   2.491   7.478  0.00  0.00    +0.000 A 
ATOM      2  C   UNL     1      45.808   1.809   8.402  0.00  0.00    +0.000 A 
ATOM      3  C   UNL     1      44.854   2.516   9.135  0.00  0.00    +0.000 A 
ATOM      4  C   UNL     1      44.716   3.889   8.947  0.00  0.00    +0.000 A 
ATOM      5  N   UNL     1      43.727   4.640   9.570  0.00  0.00    +0.000 N 
ATOM      6  N   UNL     1      45.498   4.566   8.088  0.00  0.00    +0.000 NA
ATOM      7  C   UNL     1      46.421   3.862   7.377  0.00  0.00    +0.000 A 
ATOM      8  H   UNL     1      43.943   5.617   9.383  0.00  0.00    +0.000 HD
ENDROOT
BRANCH   1  10
ATOM      9  N   UNL     1      48.747   2.477   6.369  0.00  0.00    +0.000 N 
ATOM     10  C   UNL     1      47.571   1.814   6.606  0.00  0.00    +0.000 C 
ATOM     11  O   UNL     1      47.367   0.700   6.150  0.00  0.00    +0.000 OA
ATOM     12  H   UNL     1      49.464   1.957   5.876  0.00  0.00    +0.000 HD
ATOM     13  H   UNL     1      49.050   3.261   6.930  0.00  0.00    +0.000 HD
ENDBRANCH   1  10
BRANCH   5  14
ATOM     14  C   UNL     1      43.379   4.313  10.943  0.00  0.00    +0.000 C 
BRANCH  14  15
ATOM     15  C   UNL     1      43.413   5.560  11.833  0.00  0.00    +0.000 C 
BRANCH  15  16
ATOM     16  C   UNL     1      44.802   5.746  12.396  0.00  0.00    +0.000 A 
ATOM     17  C   UNL     1      45.484   6.956  12.214  0.00  0.00    +0.000 A 
ATOM     18  C   UNL     1      46.732   7.155  12.804  0.00  0.00    +0.000 A 
ATOM     19  C   UNL     1      47.306   6.148  13.585  0.00  0.00    +0.000 A 
ATOM     20  C   UNL     1      46.641   4.935  13.776  0.00  0.00    +0.000 A 
ATOM     21  C   UNL     1      45.394   4.737  13.173  0.00  0.00    +0.000 A 
BRANCH  20  22
ATOM     22  S   UNL     1      47.423   3.607  14.667  0.00  0.00    +0.000 S 
BRANCH  22  23
ATOM     23  C   UNL     1      47.163   4.182  16.383  0.00  0.00    +0.000 C 
ATOM     24  C   UNL     1      48.443   4.877  16.922  0.00  0.00    +0.000 C 
ATOM     25  C   UNL     1      48.239   4.112  18.241  0.00  0.00    +0.000 C 
ATOM     26  C   UNL     1      47.394   3.090  17.453  0.00  0.00    +0.000 C 
ENDBRANCH  22  23
ENDBRANCH  20  22
ENDBRANCH  15  16
ENDBRANCH  14  15
ENDBRANCH   5  14
TORSDOF 6
ENDMDL
MODEL 2
REMARK VINA RESULT:    -7.945      1.953      3.499
REMARK INTER + INTRA:         -11.457
REMARK INTER:                 -10.602
REMARK INTRA:                  -0.855
REMARK UNBOUND:                -0.726
REMARK  Name = 
REMARK  6 active torsions:
REMARK  status: ('A' for Active; 'I' for Inactive)
REMARK    1  A    between atoms: C_2  and  C_4
REMARK    2  A    between atoms: N_8  and  C_9
REMARK    3  A    between atoms: C_9  and  C_10
REMARK    4  A    between atoms: C_10  and  C_11
REMARK    5  A    between atoms: C_15  and  S_16
REMARK    6  A    between atoms: S_16  and  C_17
REMARK                            x       y       z     vdW  Elec       q    Type
REMARK                         _______ _______ _______ _____ _____    ______ ____
ROOT
ATOM      1  C   UNL     1      46.566   2.531   7.618  0.00  0.00    +0.000 A 
ATOM      2  C   UNL     1      45.695   1.825   8.439  0.00  0.00    +0.000 A 
ATOM      3  C   UNL     1      44.750   2.527   9.187  0.00  0.00    +0.000 A 
ATOM      4  C   UNL     1      44.706   3.917   9.118  0.00  0.00    +0.000 A 
ATOM      5  N   UNL     1      43.734   4.674   9.760  0.00  0.00    +0.000 N 
ATOM      6  N   UNL     1      45.572   4.614   8.360  0.00  0.00    +0.000 NA
ATOM      7  C   UNL     1      46.486   3.914   7.632  0.00  0.00    +0.000 A 
ATOM      8  H   UNL     1      44.020   5.648   9.671  0.00  0.00    +0.000 HD
ENDROOT
BRANCH   1  10
ATOM      9  N   UNL     1      48.697   2.562   6.462  0.00  0.00    +0.000 N 
ATOM     10  C   UNL     1      47.547   1.870   6.735  0.00  0.00    +0.000 C 
ATOM     11  O   UNL     1      47.365   0.743   6.300  0.00  0.00    +0.000 OA
ATOM     12  H   UNL     1      49.418   2.056   5.961  0.00  0.00    +0.000 HD
ATOM     13  H   UNL     1      48.988   3.363   7.004  0.00  0.00    +0.000 HD
ENDBRANCH   1  10
BRANCH   5  14
ATOM     14  C   UNL     1      43.296   4.254  11.080  0.00  0.00    +0.000 C 
BRANCH  14  15
ATOM     15  C   UNL     1      43.358   5.414  12.078  0.00  0.00    +0.000 C 
BRANCH  15  16
ATOM     16  C   UNL     1      44.741   5.495  12.681  0.00  0.00    +0.000 A 
ATOM     17  C   UNL     1      45.386   4.335  13.130  0.00  0.00    +0.000 A 
ATOM     18  C   UNL     1      46.694   4.401  13.610  0.00  0.00    +0.000 A 
ATOM     19  C   UNL     1      47.369   5.624  13.642  0.00  0.00    +0.000 A 
ATOM     20  C   UNL     1      46.740   6.790  13.199  0.00  0.00    +0.000 A 
ATOM     21  C   UNL     1      45.424   6.721  12.728  0.00  0.00    +0.000 A 
BRANCH  20  22
ATOM     22  S   UNL     1      47.552   8.367  13.352  0.00  0.00    +0.000 S 
BRANCH  22  23
ATOM     23  C   UNL     1      48.575   8.343  11.837  0.00  0.00    +0.000 C 
ATOM     24  C   UNL     1      49.983   7.765  12.142  0.00  0.00    +0.000 C 
ATOM     25  C   UNL     1      50.576   8.897  11.286  0.00  0.00    +0.000 C 
ATOM     26  C   UNL     1      49.275   9.688  11.530  0.00  0.00    +0.000 C 
ENDBRANCH  22  23
ENDBRANCH  20  22
ENDBRANCH  15  16
ENDBRANCH  14  15
ENDBRANCH   5  14
TORSDOF 6
ENDMDL
MODEL 3
REMARK VINA RESULT:    -7.023      2.772      4.960
REMARK INTER + INTRA:         -10.213
REMARK INTER:                  -9.440
REMARK INTRA:                  -0.773
REMARK UNBOUND:                -0.726
REMARK  Name = 
REMARK  6 active torsions:
REMARK  status: ('A' for Active; 'I' for Inactive)
REMARK    1  A    between atoms: C_2  and  C_4
REMARK    2  A    between atoms: N_8  and  C_9
REMARK    3  A    between atoms: C_9  and  C_10
REMARK    4  A    between atoms: C_10  and  C_11
REMARK    5  A    between atoms: C_15  and  S_16
REMARK    6  A    between atoms: S_16  and  C_17
REMARK                            x       y       z     vdW  Elec       q    Type
REMARK                         _______ _______ _______ _____ _____    ______ ____
ROOT
ATOM      1  C   UNL     1      46.561   2.535   7.308  0.00  0.00    +0.000 A 
ATOM      2  C   UNL     1      46.231   3.826   7.706  0.00  0.00    +0.000 A 
ATOM      3  C   UNL     1      45.461   4.004   8.855  0.00  0.00    +0.000 A 
ATOM      4  C   UNL     1      45.017   2.894   9.570  0.00  0.00    +0.000 A 
ATOM      5  N   UNL     1      44.328   2.996  10.771  0.00  0.00    +0.000 N 
ATOM      6  N   UNL     1      45.293   1.640   9.169  0.00  0.00    +0.000 NA
ATOM      7  C   UNL     1      46.050   1.482   8.049  0.00  0.00    +0.000 A 
ATOM      8  H   UNL     1      43.996   2.060  10.997  0.00  0.00    +0.000 HD
ENDROOT
BRANCH   1  10
ATOM      9  N   UNL     1      48.738   2.660   6.247  0.00  0.00    +0.000 N 
ATOM     10  C   UNL     1      47.433   2.254   6.151  0.00  0.00    +0.000 C 
ATOM     11  O   UNL     1      47.026   1.651   5.169  0.00  0.00    +0.000 OA
ATOM     12  H   UNL     1      49.359   2.354   5.508  0.00  0.00    +0.000 HD
ATOM     13  H   UNL     1      49.161   2.917   7.128  0.00  0.00    +0.000 HD
ENDBRANCH   1  10
BRANCH   5  14
ATOM     14  C   UNL     1      43.359   4.070  10.919  0.00  0.00    +0.000 C 
BRANCH  14  15
ATOM     15  C   UNL     1      43.406   4.666  12.330  0.00  0.00    +0.000 C 
BRANCH  15  16
ATOM     16  C   UNL     1      44.539   5.661  12.425  0.00  0.00    +0.000 A 
ATOM     17  C   UNL     1      45.833   5.232  12.747  0.00  0.00    +0.000 A 
ATOM     18  C   UNL     1      46.892   6.140  12.754  0.00  0.00    +0.000 A 
ATOM     19  C   UNL     1      46.668   7.481  12.435  0.00  0.00    +0.000 A 
ATOM     20  C   UNL     1      45.383   7.926  12.113  0.00  0.00    +0.000 A 
ATOM     21  C   UNL     1      44.323   7.014  12.117  0.00  0.00    +0.000 A 
BRANCH  20  22
ATOM     22  S   UNL     1      45.073   9.656  11.826  0.00  0.00    +0.000 S 
BRANCH  22  23
ATOM     23  C   UNL     1      43.664   9.536  10.667  0.00  0.00    +0.000 C 
ATOM     24  C   UNL     1      43.822  10.563   9.513  0.00  0.00    +0.000 C 
ATOM     25  C   UNL     1      42.328  10.894   9.675  0.00  0.00    +0.000 C 
ATOM     26  C   UNL     1      42.417  10.335  11.110  0.00  0.00    +0.000 C 
ENDBRANCH  22  23
ENDBRANCH  20  22
ENDBRANCH  15  16
ENDBRANCH  14  15
ENDBRANCH   5  14
TORSDOF 6
ENDMDL
MODEL 4
REMARK VINA RESULT:    -6.787      4.298      8.010
REMARK INTER + INTRA:          -9.893
REMARK INTER:                  -9.040
REMARK INTRA:                  -0.853
REMARK UNBOUND:                -0.726
REMARK  Name = 
REMARK  6 active torsions:
REMARK  status: ('A' for Active; 'I' for Inactive)
REMARK    1  A    between atoms: C_2  and  C_4
REMARK    2  A    between atoms: N_8  and  C_9
REMARK    3  A    between atoms: C_9  and  C_10
REMARK    4  A    between atoms: C_10  and  C_11
REMARK    5  A    between atoms: C_15  and  S_16
REMARK    6  A    between atoms: S_16  and  C_17
REMARK                            x       y       z     vdW  Elec       q    Type
REMARK                         _______ _______ _______ _____ _____    ______ ____
ROOT
ATOM      1  C   UNL     1      48.305   4.410  16.786  0.00  0.00    +0.000 A 
ATOM      2  C   UNL     1      47.241   4.028  15.977  0.00  0.00    +0.000 A 
ATOM      3  C   UNL     1      46.962   4.770  14.829  0.00  0.00    +0.000 A 
ATOM      4  C   UNL     1      47.734   5.890  14.524  0.00  0.00    +0.000 A 
ATOM      5  N   UNL     1      47.574   6.619  13.353  0.00  0.00    +0.000 N 
ATOM      6  N   UNL     1      48.737   6.294  15.323  0.00  0.00    +0.000 NA
ATOM      7  C   UNL     1      49.000   5.556  16.437  0.00  0.00    +0.000 A 
ATOM      8  H   UNL     1      48.148   7.455  13.451  0.00  0.00    +0.000 HD
ENDROOT
BRANCH   1  10
ATOM      9  N   UNL     1      47.747   2.920  18.616  0.00  0.00    +0.000 N 
ATOM     10  C   UNL     1      48.720   3.643  17.977  0.00  0.00    +0.000 C 
ATOM     11  O   UNL     1      49.881   3.618  18.354  0.00  0.00    +0.000 OA
ATOM     12  H   UNL     1      48.060   2.299  19.352  0.00  0.00    +0.000 HD
ATOM     13  H   UNL     1      46.856   2.714  18.186  0.00  0.00    +0.000 HD
ENDBRANCH   1  10
BRANCH   5  14
ATOM     14  C   UNL     1      46.227   6.823  12.847  0.00  0.00    +0.000 C 
BRANCH  14  15
ATOM     15  C   UNL     1      46.093   6.313  11.409  0.00  0.00    +0.000 C 
BRANCH  15  16
ATOM     16  C   UNL     1      45.260   5.052  11.391  0.00  0.00    +0.000 A 
ATOM     17  C   UNL     1      44.404   4.753  12.459  0.00  0.00    +0.000 A 
ATOM     18  C   UNL     1      43.577   3.632  12.404  0.00  0.00    +0.000 A 
ATOM     19  C   UNL     1      43.595   2.803  11.279  0.00  0.00    +0.000 A 
ATOM     20  C   UNL     1      44.443   3.085  10.206  0.00  0.00    +0.000 A 
ATOM     21  C   UNL     1      45.279   4.206  10.271  0.00  0.00    +0.000 A 
BRANCH  20  22
ATOM     22  S   UNL     1      44.557   1.965   8.827  0.00  0.00    +0.000 S 
BRANCH  22  23
ATOM     23  C   UNL     1      46.217   2.405   8.199  0.00  0.00    +0.000 C 
ATOM     24  C   UNL     1      46.104   3.132   6.831  0.00  0.00    +0.000 C 
ATOM     25  C   UNL     1      47.276   2.268   6.335  0.00  0.00    +0.000 C 
ATOM     26  C   UNL     1      46.928   1.257   7.446  0.00  0.00    +0.000 C 
ENDBRANCH  22  23
ENDBRANCH  20  22
ENDBRANCH  15  16
ENDBRANCH  14  15
ENDBRANCH   5  14
TORSDOF 6
ENDMDL
MODEL 5
REMARK VINA RESULT:    -6.584      1.865      2.120
REMARK INTER + INTRA:          -9.619
REMARK INTER:                  -9.265
REMARK INTRA:                  -0.354
REMARK UNBOUND:                -0.726
REMARK  Name = 
REMARK  6 active torsions:
REMARK  status: ('A' for Active; 'I' for Inactive)
REMARK    1  A    between atoms: C_2  and  C_4
REMARK    2  A    between atoms: N_8  and  C_9
REMARK    3  A    between atoms: C_9  and  C_10
REMARK    4  A    between atoms: C_10  and  C_11
REMARK    5  A    between atoms: C_15  and  S_16
REMARK    6  A    between atoms: S_16  and  C_17
REMARK                            x       y       z     vdW  Elec       q    Type
REMARK                         _______ _______ _______ _____ _____    ______ ____
ROOT
ATOM      1  C   UNL     1      46.306   2.353   7.810  0.00  0.00    +0.000 A 
ATOM      2  C   UNL     1      45.473   1.927   8.837  0.00  0.00    +0.000 A 
ATOM      3  C   UNL     1      44.750   2.876   9.561  0.00  0.00    +0.000 A 
ATOM      4  C   UNL     1      44.889   4.229   9.260  0.00  0.00    +0.000 A 
ATOM      5  N   UNL     1      44.132   5.219   9.872  0.00  0.00    +0.000 N 
ATOM      6  N   UNL     1      45.725   4.655   8.296  0.00  0.00    +0.000 NA
ATOM      7  C   UNL     1      46.420   3.717   7.596  0.00  0.00    +0.000 A 
ATOM      8  H   UNL     1      44.533   6.111   9.585  0.00  0.00    +0.000 HD
ENDROOT
BRANCH   1  10
ATOM      9  N   UNL     1      47.040   0.097   7.309  0.00  0.00    +0.000 N 
ATOM     10  C   UNL     1      47.051   1.418   6.944  0.00  0.00    +0.000 C 
ATOM     11  O   UNL     1      47.616   1.791   5.927  0.00  0.00    +0.000 OA
ATOM     12  H   UNL     1      47.444  -0.555   6.647  0.00  0.00    +0.000 HD
ATOM     13  H   UNL     1      46.381  -0.274   7.978  0.00  0.00    +0.000 HD
ENDBRANCH   1  10
BRANCH   5  14
ATOM     14  C   UNL     1      43.832   5.079  11.287  0.00  0.00    +0.000 C 
BRANCH  14  15
ATOM     15  C   UNL     1      45.104   4.808  12.097  0.00  0.00    +0.000 C 
BRANCH  15  16
ATOM     16  C   UNL     1      45.733   6.118  12.512  0.00  0.00    +0.000 A 
ATOM     17  C   UNL     1      45.021   7.318  12.382  0.00  0.00    +0.000 A 
ATOM     18  C   UNL     1      45.572   8.514  12.841  0.00  0.00    +0.000 A 
ATOM     19  C   UNL     1      46.834   8.521  13.438  0.00  0.00    +0.000 A 
ATOM     20  C   UNL     1      47.558   7.334  13.576  0.00  0.00    +0.000 A 
ATOM     21  C   UNL     1      47.006   6.138  13.104  0.00  0.00    +0.000 A 
BRANCH  20  22
ATOM     22  S   UNL     1      49.216   7.357  14.225  0.00  0.00    +0.000 S 
BRANCH  22  23
ATOM     23  C   UNL     1      48.915   6.650  15.884  0.00  0.00    +0.000 C 
ATOM     24  C   UNL     1      48.747   7.782  16.934  0.00  0.00    +0.000 C 
ATOM     25  C   UNL     1      49.644   6.966  17.880  0.00  0.00    +0.000 C 
ATOM     26  C   UNL     1      50.204   6.245  16.637  0.00  0.00    +0.000 C 
ENDBRANCH  22  23
ENDBRANCH  20  22
ENDBRANCH  15  16
ENDBRANCH  14  15
ENDBRANCH   5  14
TORSDOF 6
ENDMDL
MODEL 6
REMARK VINA RESULT:    -6.410      4.843      8.681
REMARK INTER + INTRA:          -9.384
REMARK INTER:                  -8.743
REMARK INTRA:                  -0.642
REMARK UNBOUND:                -0.726
REMARK  Name = 
REMARK  6 active torsions:
REMARK  status: ('A' for Active; 'I' for Inactive)
REMARK    1  A    between atoms: C_2  and  C_4
REMARK    2  A    between atoms: N_8  and  C_9
REMARK    3  A    between atoms: C_9  and  C_10
REMARK    4  A    between atoms: C_10  and  C_11
REMARK    5  A    between atoms: C_15  and  S_16
REMARK    6  A    between atoms: S_16  and  C_17
REMARK                            x       y       z     vdW  Elec       q    Type
REMARK                         _______ _______ _______ _____ _____    ______ ____
ROOT
ATOM      1  C   UNL     1      48.571   4.435  18.534  0.00  0.00    +0.000 A 
ATOM      2  C   UNL     1      48.920   5.414  17.610  0.00  0.00    +0.000 A 
ATOM      3  C   UNL     1      48.275   5.439  16.373  0.00  0.00    +0.000 A 
ATOM      4  C   UNL     1      47.313   4.476  16.074  0.00  0.00    +0.000 A 
ATOM      5  N   UNL     1      46.565   4.495  14.904  0.00  0.00    +0.000 N 
ATOM      6  N   UNL     1      47.000   3.499  16.944  0.00  0.00    +0.000 NA
ATOM      7  C   UNL     1      47.634   3.491  18.148  0.00  0.00    +0.000 A 
ATOM      8  H   UNL     1      46.057   3.613  14.870  0.00  0.00    +0.000 HD
ENDROOT
BRANCH   1  10
ATOM      9  N   UNL     1      50.504   4.521  19.996  0.00  0.00    +0.000 N 
ATOM     10  C   UNL     1      49.145   4.377  19.892  0.00  0.00    +0.000 C 
ATOM     11  O   UNL     1      48.443   4.248  20.883  0.00  0.00    +0.000 OA
ATOM     12  H   UNL     1      50.876   4.606  20.934  0.00  0.00    +0.000 HD
ATOM     13  H   UNL     1      51.068   4.884  19.240  0.00  0.00    +0.000 HD
ENDBRANCH   1  10
BRANCH   5  14
ATOM     14  C   UNL     1      47.224   4.901  13.674  0.00  0.00    +0.000 C 
BRANCH  14  15
ATOM     15  C   UNL     1      46.523   6.110  13.046  0.00  0.00    +0.000 C 
BRANCH  15  16
ATOM     16  C   UNL     1      45.331   5.646  12.241  0.00  0.00    +0.000 A 
ATOM     17  C   UNL     1      44.157   6.409  12.210  0.00  0.00    +0.000 A 
ATOM     18  C   UNL     1      43.088   6.022  11.403  0.00  0.00    +0.000 A 
ATOM     19  C   UNL     1      43.186   4.871  10.616  0.00  0.00    +0.000 A 
ATOM     20  C   UNL     1      44.349   4.098  10.635  0.00  0.00    +0.000 A 
ATOM     21  C   UNL     1      45.414   4.486  11.455  0.00  0.00    +0.000 A 
BRANCH  20  22
ATOM     22  S   UNL     1      44.430   2.567   9.729  0.00  0.00    +0.000 S 
BRANCH  22  23
ATOM     23  C   UNL     1      46.004   2.815   8.832  0.00  0.00    +0.000 C 
ATOM     24  C   UNL     1      45.771   3.657   7.549  0.00  0.00    +0.000 C 
ATOM     25  C   UNL     1      46.692   2.677   6.802  0.00  0.00    +0.000 C 
ATOM     26  C   UNL     1      46.389   1.640   7.903  0.00  0.00    +0.000 C 
ENDBRANCH  22  23
ENDBRANCH  20  22
ENDBRANCH  15  16
ENDBRANCH  14  15
ENDBRANCH   5  14
TORSDOF 6
ENDMDL
MODEL 7
REMARK VINA RESULT:    -6.249      4.889      8.342
REMARK INTER + INTRA:          -9.167
REMARK INTER:                  -8.502
REMARK INTRA:                  -0.665
REMARK UNBOUND:                -0.726
REMARK  Name = 
REMARK  6 active torsions:
REMARK  status: ('A' for Active; 'I' for Inactive)
REMARK    1  A    between atoms: C_2  and  C_4
REMARK    2  A    between atoms: N_8  and  C_9
REMARK    3  A    between atoms: C_9  and  C_10
REMARK    4  A    between atoms: C_10  and  C_11
REMARK    5  A    between atoms: C_15  and  S_16
REMARK    6  A    between atoms: S_16  and  C_17
REMARK                            x       y       z     vdW  Elec       q    Type
REMARK                         _______ _______ _______ _____ _____    ______ ____
ROOT
ATOM      1  C   UNL     1      51.004   3.090  17.505  0.00  0.00    +0.000 A 
ATOM      2  C   UNL     1      51.406   4.421  17.484  0.00  0.00    +0.000 A 
ATOM      3  C   UNL     1      50.492   5.399  17.091  0.00  0.00    +0.000 A 
ATOM      4  C   UNL     1      49.205   5.029  16.707  0.00  0.00    +0.000 A 
ATOM      5  N   UNL     1      48.216   5.953  16.396  0.00  0.00    +0.000 N 
ATOM      6  N   UNL     1      48.819   3.741  16.682  0.00  0.00    +0.000 NA
ATOM      7  C   UNL     1      49.721   2.799  17.072  0.00  0.00    +0.000 A 
ATOM      8  H   UNL     1      47.436   5.425  16.010  0.00  0.00    +0.000 HD
ENDROOT
BRANCH   1  10
ATOM      9  N   UNL     1      51.420   0.719  17.794  0.00  0.00    +0.000 N 
ATOM     10  C   UNL     1      51.877   1.998  17.976  0.00  0.00    +0.000 C 
ATOM     11  O   UNL     1      52.974   2.216  18.468  0.00  0.00    +0.000 OA
ATOM     12  H   UNL     1      52.074  -0.026  18.003  0.00  0.00    +0.000 HD
ATOM     13  H   UNL     1      50.658   0.501  17.168  0.00  0.00    +0.000 HD
ENDBRANCH   1  10
BRANCH   5  14
ATOM     14  C   UNL     1      48.600   7.152  15.669  0.00  0.00    +0.000 C 
BRANCH  14  15
ATOM     15  C   UNL     1      48.769   6.860  14.174  0.00  0.00    +0.000 C 
BRANCH  15  16
ATOM     16  C   UNL     1      47.412   6.758  13.518  0.00  0.00    +0.000 A 
ATOM     17  C   UNL     1      46.657   7.912  13.269  0.00  0.00    +0.000 A 
ATOM     18  C   UNL     1      45.442   7.823  12.590  0.00  0.00    +0.000 A 
ATOM     19  C   UNL     1      44.974   6.583  12.151  0.00  0.00    +0.000 A 
ATOM     20  C   UNL     1      45.712   5.422  12.392  0.00  0.00    +0.000 A 
ATOM     21  C   UNL     1      46.926   5.515  13.083  0.00  0.00    +0.000 A 
BRANCH  20  22
ATOM     22  S   UNL     1      45.061   3.827  11.942  0.00  0.00    +0.000 S 
BRANCH  22  23
ATOM     23  C   UNL     1      44.421   4.207  10.272  0.00  0.00    +0.000 C 
ATOM     24  C   UNL     1      44.369   2.919   9.406  0.00  0.00    +0.000 C 
ATOM     25  C   UNL     1      44.954   3.740   8.244  0.00  0.00    +0.000 C 
ATOM     26  C   UNL     1      45.496   4.733   9.293  0.00  0.00    +0.000 C 
ENDBRANCH  22  23
ENDBRANCH  20  22
ENDBRANCH  15  16
ENDBRANCH  14  15
ENDBRANCH   5  14
TORSDOF 6
ENDMDL
MODEL 8
REMARK VINA RESULT:    -6.137      3.213      6.130
REMARK INTER + INTRA:          -9.015
REMARK INTER:                  -7.716
REMARK INTRA:                  -1.299
REMARK UNBOUND:                -0.726
REMARK  Name = 
REMARK  6 active torsions:
REMARK  status: ('A' for Active; 'I' for Inactive)
REMARK    1  A    between atoms: C_2  and  C_4
REMARK    2  A    between atoms: N_8  and  C_9
REMARK    3  A    between atoms: C_9  and  C_10
REMARK    4  A    between atoms: C_10  and  C_11
REMARK    5  A    between atoms: C_15  and  S_16
REMARK    6  A    between atoms: S_16  and  C_17
REMARK                            x       y       z     vdW  Elec       q    Type
REMARK                         _______ _______ _______ _____ _____    ______ ____
ROOT
ATOM      1  C   UNL     1      45.510   4.822  11.690  0.00  0.00    +0.000 A 
ATOM      2  C   UNL     1      46.043   5.803  12.519  0.00  0.00    +0.000 A 
ATOM      3  C   UNL     1      46.619   5.426  13.732  0.00  0.00    +0.000 A 
ATOM      4  C   UNL     1      46.633   4.083  14.104  0.00  0.00    +0.000 A 
ATOM      5  N   UNL     1      47.271   3.624  15.248  0.00  0.00    +0.000 N 
ATOM      6  N   UNL     1      46.082   3.131  13.330  0.00  0.00    +0.000 NA
ATOM      7  C   UNL     1      45.527   3.514  12.147  0.00  0.00    +0.000 A 
ATOM      8  H   UNL     1      47.002   2.648  15.359  0.00  0.00    +0.000 HD
ENDROOT
BRANCH   1  10
ATOM      9  N   UNL     1      43.595   5.312  10.287  0.00  0.00    +0.000 N 
ATOM     10  C   UNL     1      44.949   5.119  10.358  0.00  0.00    +0.000 C 
ATOM     11  O   UNL     1      45.659   5.229   9.370  0.00  0.00    +0.000 OA
ATOM     12  H   UNL     1      43.233   5.638   9.398  0.00  0.00    +0.000 HD
ATOM     13  H   UNL     1      43.029   5.486  11.106  0.00  0.00    +0.000 HD
ENDBRANCH   1  10
BRANCH   5  14
ATOM     14  C   UNL     1      47.208   4.445  16.447  0.00  0.00    +0.000 C 
BRANCH  14  15
ATOM     15  C   UNL     1      48.453   4.247  17.318  0.00  0.00    +0.000 C 
BRANCH  15  16
ATOM     16  C   UNL     1      49.498   5.275  16.952  0.00  0.00    +0.000 A 
ATOM     17  C   UNL     1      50.851   5.039  17.231  0.00  0.00    +0.000 A 
ATOM     18  C   UNL     1      51.822   5.952  16.820  0.00  0.00    +0.000 A 
ATOM     19  C   UNL     1      51.450   7.105  16.123  0.00  0.00    +0.000 A 
ATOM     20  C   UNL     1      50.106   7.356  15.838  0.00  0.00    +0.000 A 
ATOM     21  C   UNL     1      49.135   6.442  16.262  0.00  0.00    +0.000 A 
BRANCH  20  22
ATOM     22  S   UNL     1      49.618   8.881  15.059  0.00  0.00    +0.000 S 
BRANCH  22  23
ATOM     23  C   UNL     1      48.716   8.222  13.612  0.00  0.00    +0.000 C 
ATOM     24  C   UNL     1      49.649   7.327  12.752  0.00  0.00    +0.000 C 
ATOM     25  C   UNL     1      49.070   8.014  11.503  0.00  0.00    +0.000 C 
ATOM     26  C   UNL     1      48.662   9.193  12.410  0.00  0.00    +0.000 C 
ENDBRANCH  22  23
ENDBRANCH  20  22
ENDBRANCH  15  16
ENDBRANCH  14  15
ENDBRANCH   5  14
TORSDOF 6
ENDMDL
MODEL 9
REMARK VINA RESULT:    -6.131      5.377      8.502
REMARK INTER + INTRA:          -9.008
REMARK INTER:                  -8.473
REMARK INTRA:                  -0.535
REMARK UNBOUND:                -0.726
REMARK  Name = 
REMARK  6 active torsions:
REMARK  status: ('A' for Active; 'I' for Inactive)
REMARK    1  A    between atoms: C_2  and  C_4
REMARK    2  A    between atoms: N_8  and  C_9
REMARK    3  A    between atoms: C_9  and  C_10
REMARK    4  A    between atoms: C_10  and  C_11
REMARK    5  A    between atoms: C_15  and  S_16
REMARK    6  A    between atoms: S_16  and  C_17
REMARK                            x       y       z     vdW  Elec       q    Type
REMARK                         _______ _______ _______ _____ _____    ______ ____
ROOT
ATOM      1  C   UNL     1      51.946   2.707  17.799  0.00  0.00    +0.000 A 
ATOM      2  C   UNL     1      51.275   3.923  17.862  0.00  0.00    +0.000 A 
ATOM      3  C   UNL     1      49.927   3.973  17.507  0.00  0.00    +0.000 A 
ATOM      4  C   UNL     1      49.282   2.816  17.075  0.00  0.00    +0.000 A 
ATOM      5  N   UNL     1      47.922   2.770  16.797  0.00  0.00    +0.000 N 
ATOM      6  N   UNL     1      49.932   1.643  16.969  0.00  0.00    +0.000 NA
ATOM      7  C   UNL     1      51.246   1.609  17.324  0.00  0.00    +0.000 A 
ATOM      8  H   UNL     1      47.744   1.865  16.365  0.00  0.00    +0.000 HD
ENDROOT
BRANCH   1  10
ATOM      9  N   UNL     1      53.674   1.363  18.841  0.00  0.00    +0.000 N 
ATOM     10  C   UNL     1      53.349   2.544  18.226  0.00  0.00    +0.000 C 
ATOM     11  O   UNL     1      54.192   3.399  18.007  0.00  0.00    +0.000 OA
ATOM     12  H   UNL     1      54.659   1.205  19.017  0.00  0.00    +0.000 HD
ATOM     13  H   UNL     1      53.077   0.549  18.800  0.00  0.00    +0.000 HD
ENDBRANCH   1  10
BRANCH   5  14
ATOM     14  C   UNL     1      47.314   3.920  16.146  0.00  0.00    +0.000 C 
BRANCH  14  15
ATOM     15  C   UNL     1      47.598   3.916  14.641  0.00  0.00    +0.000 C 
BRANCH  15  16
ATOM     16  C   UNL     1      46.756   4.971  13.962  0.00  0.00    +0.000 A 
ATOM     17  C   UNL     1      47.325   6.193  13.579  0.00  0.00    +0.000 A 
ATOM     18  C   UNL     1      46.567   7.132  12.880  0.00  0.00    +0.000 A 
ATOM     19  C   UNL     1      45.237   6.856  12.553  0.00  0.00    +0.000 A 
ATOM     20  C   UNL     1      44.653   5.644  12.928  0.00  0.00    +0.000 A 
ATOM     21  C   UNL     1      45.415   4.709  13.639  0.00  0.00    +0.000 A 
BRANCH  20  22
ATOM     22  S   UNL     1      42.926   5.340  12.621  0.00  0.00    +0.000 S 
BRANCH  22  23
ATOM     23  C   UNL     1      43.049   4.311  11.115  0.00  0.00    +0.000 C 
ATOM     24  C   UNL     1      43.473   2.863  11.480  0.00  0.00    +0.000 C 
ATOM     25  C   UNL     1      44.443   2.902  10.286  0.00  0.00    +0.000 C 
ATOM     26  C   UNL     1      44.401   4.441  10.374  0.00  0.00    +0.000 C 
ENDBRANCH  22  23
ENDBRANCH  20  22
ENDBRANCH  15  16
ENDBRANCH  14  15
ENDBRANCH   5  14
TORSDOF 6
ENDMDL
