MODEL 1
REMARK VINA RESULT:    -8.174      0.000      0.000
REMARK INTER + INTRA:         -12.573
REMARK INTER:                 -12.236
REMARK INTRA:                  -0.337
REMARK UNBOUND:                -0.337
REMARK  Name = 
REMARK  9 active torsions:
REMARK  status: ('A' for Active; 'I' for Inactive)
REMARK    1  A    between atoms: C_2  and  CA_14
REMARK    2  A    between atoms: N_3  and  CA_4
REMARK    3  A    between atoms: CA_4  and  C_5
REMARK    4  A    between atoms: CA_4  and  C_7
REMARK    5  A    between atoms: C_5  and  O_6
REMARK    6  A    between atoms: C_17  and  C_18
REMARK    7  A    between atoms: C_18  and  N_19
REMARK    8  A    between atoms: N_19  and  C_20
REMARK    9  A    between atoms: C_20  and  C_21
REMARK                            x       y       z     vdW  Elec       q    Type
REMARK                         _______ _______ _______ _____ _____    ______ ____
ROOT
ATOM      1  CA  UNL     1      46.823   4.416  13.887  0.00  0.00    +0.000 A 
ATOM      2  C   UNL     1      47.098   5.695  13.418  0.00  0.00    +0.000 A 
ATOM      3  C   UNL     1      46.455   6.130  12.265  0.00  0.00    +0.000 A 
ATOM      4  C   UNL     1      45.557   5.285  11.608  0.00  0.00    +0.000 A 
ATOM      5  C   UNL     1      45.342   4.023  12.165  0.00  0.00    +0.000 A 
ATOM      6  N   UNL     1      45.950   3.561  13.288  0.00  0.00    +0.000 NA
ENDROOT
BRANCH   1   8
ATOM      7  O   UNL     1      48.085   2.844  15.134  0.00  0.00    +0.000 OA
ATOM      8  C   UNL     1      47.530   3.939  15.111  0.00  0.00    +0.000 C 
ATOM      9  N   UNL     1      47.526   4.795  16.191  0.00  0.00    +0.000 N 
ATOM     10  H   UNL     1      47.116   5.713  16.051  0.00  0.00    +0.000 HD
BRANCH   9  11
ATOM     11  CA  UNL     1      48.162   4.454  17.456  0.00  0.00    +0.000 C 
BRANCH  11  12
ATOM     12  C   UNL     1      49.676   4.632  17.414  0.00  0.00    +0.000 A 
ATOM     13  C   UNL     1      50.208   5.879  17.034  0.00  0.00    +0.000 A 
ATOM     14  C   UNL     1      51.588   6.094  17.000  0.00  0.00    +0.000 A 
ATOM     15  C   UNL     1      52.461   5.067  17.350  0.00  0.00    +0.000 A 
ATOM     16  C   UNL     1      51.949   3.829  17.729  0.00  0.00    +0.000 A 
ATOM     17 CL   UNL     1      53.026   2.561  18.168  0.00  0.00    +0.000 Cl
ATOM     18  C   UNL     1      50.570   3.606  17.762  0.00  0.00    +0.000 A 
ENDBRANCH  11  12
BRANCH  11  19
ATOM     19  C   UNL     1      47.759   3.034  17.917  0.00  0.00    +0.000 C 
BRANCH  19  20
ATOM     20  O   UNL     1      46.372   2.762  17.709  0.00  0.00    +0.000 OA
ATOM     21  H   UNL     1      46.045   3.398  17.050  0.00  0.00    +0.000 HD
ENDBRANCH  19  20
ENDBRANCH  11  19
ENDBRANCH   9  11
ENDBRANCH   1   8
BRANCH   4  22
ATOM     22  C   UNL     1      44.832   5.743  10.367  0.00  0.00    +0.000 C 
BRANCH  22  23
ATOM     23  N   UNL     1      45.574   5.398   9.155  0.00  0.00    +0.000 NA
ATOM     24  H   UNL     1      46.504   5.060   9.411  0.00  0.00    +0.000 HD
BRANCH  23  25
ATOM     25  C   UNL     1      44.900   4.326   8.410  0.00  0.00    +0.000 C 
BRANCH  25  26
ATOM     26  C   UNL     1      45.870   3.256   7.948  0.00  0.00    +0.000 A 
ATOM     27  N   UNL     1      46.914   3.699   7.185  0.00  0.00    +0.000 NA
ATOM     28  C   UNL     1      47.801   2.782   6.741  0.00  0.00    +0.000 A 
ATOM     29  C   UNL     1      47.707   1.428   7.011  0.00  0.00    +0.000 A 
ATOM     30  C   UNL     1      46.634   0.985   7.778  0.00  0.00    +0.000 A 
ATOM     31  C   UNL     1      45.697   1.903   8.252  0.00  0.00    +0.000 A 
ATOM     32 CL   UNL     1      44.381   1.307   9.195  0.00  0.00    +0.000 Cl
ENDBRANCH  25  26
ENDBRANCH  23  25
ENDBRANCH  22  23
ENDBRANCH   4  22
TORSDOF 9
ENDMDL
MODEL 2
REMARK VINA RESULT:    -8.035      1.366      1.864
REMARK INTER + INTRA:         -12.365
REMARK INTER:                 -11.443
REMARK INTRA:                  -0.922
REMARK UNBOUND:                -0.337
REMARK  Name = 
REMARK  9 active torsions:
REMARK  status: ('A' for Active; 'I' for Inactive)
REMARK    1  A    between atoms: C_2  and  CA_14
REMARK    2  A    between atoms: N_3  and  CA_4
REMARK    3  A    between atoms: CA_4  and  C_5
REMARK    4  A    between atoms: CA_4  and  C_7
REMARK    5  A    between atoms: C_5  and  O_6
REMARK    6  A    between atoms: C_17  and  C_18
REMARK    7  A    between atoms: C_18  and  N_19
REMARK    8  A    between atoms: N_19  and  C_20
REMARK    9  A    between atoms: C_20  and  C_21
REMARK                            x       y       z     vdW  Elec       q    Type
REMARK                         _______ _______ _______ _____ _____    ______ ____
ROOT
ATOM      1  CA  UNL     1      47.220   5.668  13.806  0.00  0.00    +0.000 A 
ATOM      2  C   UNL     1      46.551   4.452  13.730  0.00  0.00    +0.000 A 
ATOM      3  C   UNL     1      45.655   4.254  12.684  0.00  0.00    +0.000 A 
ATOM      4  C   UNL     1      45.448   5.267  11.744  0.00  0.00    +0.000 A 
ATOM      5  C   UNL     1      46.178   6.447  11.904  0.00  0.00    +0.000 A 
ATOM      6  N   UNL     1      47.060   6.679  12.910  0.00  0.00    +0.000 NA
ENDROOT
BRANCH   1   8
ATOM      7  O   UNL     1      49.206   6.519  14.781  0.00  0.00    +0.000 OA
ATOM      8  C   UNL     1      48.164   5.890  14.941  0.00  0.00    +0.000 C 
ATOM      9  N   UNL     1      47.792   5.361  16.157  0.00  0.00    +0.000 N 
ATOM     10  H   UNL     1      46.874   4.930  16.212  0.00  0.00    +0.000 HD
BRANCH   9  11
ATOM     11  CA  UNL     1      48.623   5.486  17.346  0.00  0.00    +0.000 C 
BRANCH  11  12
ATOM     12  C   UNL     1      49.636   4.352  17.470  0.00  0.00    +0.000 A 
ATOM     13  C   UNL     1      49.263   3.055  17.071  0.00  0.00    +0.000 A 
ATOM     14  C   UNL     1      50.164   1.990  17.148  0.00  0.00    +0.000 A 
ATOM     15  C   UNL     1      51.456   2.204  17.622  0.00  0.00    +0.000 A 
ATOM     16  C   UNL     1      51.839   3.482  18.019  0.00  0.00    +0.000 A 
ATOM     17 CL   UNL     1      53.437   3.750  18.598  0.00  0.00    +0.000 Cl
ATOM     18  C   UNL     1      50.942   4.551  17.947  0.00  0.00    +0.000 A 
ENDBRANCH  11  12
BRANCH  11  19
ATOM     19  C   UNL     1      47.757   5.629  18.619  0.00  0.00    +0.000 C 
BRANCH  19  20
ATOM     20  O   UNL     1      46.470   5.024  18.479  0.00  0.00    +0.000 OA
ATOM     21  H   UNL     1      46.540   4.111  18.807  0.00  0.00    +0.000 HD
ENDBRANCH  19  20
ENDBRANCH  11  19
ENDBRANCH   9  11
ENDBRANCH   1   8
BRANCH   4  22
ATOM     22  C   UNL     1      44.498   5.068  10.590  0.00  0.00    +0.000 C 
BRANCH  22  23
ATOM     23  N   UNL     1      45.172   5.244   9.304  0.00  0.00    +0.000 NA
ATOM     24  H   UNL     1      46.173   5.074   9.420  0.00  0.00    +0.000 HD
BRANCH  23  25
ATOM     25  C   UNL     1      44.670   4.286   8.309  0.00  0.00    +0.000 C 
BRANCH  25  26
ATOM     26  C   UNL     1      45.735   3.293   7.886  0.00  0.00    +0.000 A 
ATOM     27  N   UNL     1      46.731   3.800   7.099  0.00  0.00    +0.000 NA
ATOM     28  C   UNL     1      47.699   2.952   6.687  0.00  0.00    +0.000 A 
ATOM     29  C   UNL     1      47.733   1.608   7.014  0.00  0.00    +0.000 A 
ATOM     30  C   UNL     1      46.708   1.099   7.805  0.00  0.00    +0.000 A 
ATOM     31  C   UNL     1      45.690   1.944   8.247  0.00  0.00    +0.000 A 
ATOM     32 CL   UNL     1      44.438   1.268   9.221  0.00  0.00    +0.000 Cl
ENDBRANCH  25  26
ENDBRANCH  23  25
ENDBRANCH  22  23
ENDBRANCH   4  22
TORSDOF 9
ENDMDL
MODEL 3
REMARK VINA RESULT:    -8.025      2.465      3.069
REMARK INTER + INTRA:         -12.349
REMARK INTER:                 -11.357
REMARK INTRA:                  -0.992
REMARK UNBOUND:                -0.337
REMARK  Name = 
REMARK  9 active torsions:
REMARK  status: ('A' for Active; 'I' for Inactive)
REMARK    1  A    between atoms: C_2  and  CA_14
REMARK    2  A    between atoms: N_3  and  CA_4
REMARK    3  A    between atoms: CA_4  and  C_5
REMARK    4  A    between atoms: CA_4  and  C_7
REMARK    5  A    between atoms: C_5  and  O_6
REMARK    6  A    between atoms: C_17  and  C_18
REMARK    7  A    between atoms: C_18  and  N_19
REMARK    8  A    between atoms: N_19  and  C_20
REMARK    9  A    between atoms: C_20  and  C_21
REMARK                            x       y       z     vdW  Elec       q    Type
REMARK                         _______ _______ _______ _____ _____    ______ ____
ROOT
ATOM      1  CA  UNL     1      46.776   4.576  14.143  0.00  0.00    +0.000 A 
ATOM      2  C   UNL     1      47.095   5.798  13.563  0.00  0.00    +0.000 A 
ATOM      3  C   UNL     1      46.486   6.137  12.359  0.00  0.00    +0.000 A 
ATOM      4  C   UNL     1      45.580   5.255  11.764  0.00  0.00    +0.000 A 
ATOM      5  C   UNL     1      45.321   4.057  12.433  0.00  0.00    +0.000 A 
ATOM      6  N   UNL     1      45.894   3.689  13.608  0.00  0.00    +0.000 NA
ENDROOT
BRANCH   1   8
ATOM      7  O   UNL     1      47.698   3.027  15.683  0.00  0.00    +0.000 OA
ATOM      8  C   UNL     1      47.446   4.200  15.423  0.00  0.00    +0.000 C 
ATOM      9  N   UNL     1      47.763   5.237  16.274  0.00  0.00    +0.000 N 
ATOM     10  H   UNL     1      47.593   6.179  15.936  0.00  0.00    +0.000 HD
BRANCH   9  11
ATOM     11  CA  UNL     1      48.402   5.017  17.563  0.00  0.00    +0.000 C 
BRANCH  11  12
ATOM     12  C   UNL     1      48.049   6.098  18.580  0.00  0.00    +0.000 A 
ATOM     13  C   UNL     1      47.814   5.729  19.917  0.00  0.00    +0.000 A 
ATOM     14  C   UNL     1      47.507   6.687  20.887  0.00  0.00    +0.000 A 
ATOM     15  C   UNL     1      47.434   8.032  20.536  0.00  0.00    +0.000 A 
ATOM     16  C   UNL     1      47.666   8.412  19.217  0.00  0.00    +0.000 A 
ATOM     17 CL   UNL     1      47.583  10.076  18.783  0.00  0.00    +0.000 Cl
ATOM     18  C   UNL     1      47.970   7.459  18.242  0.00  0.00    +0.000 A 
ENDBRANCH  11  12
BRANCH  11  19
ATOM     19  C   UNL     1      49.931   4.848  17.406  0.00  0.00    +0.000 C 
BRANCH  19  20
ATOM     20  O   UNL     1      50.305   3.506  17.083  0.00  0.00    +0.000 OA
ATOM     21  H   UNL     1      50.857   3.542  16.284  0.00  0.00    +0.000 HD
ENDBRANCH  19  20
ENDBRANCH  11  19
ENDBRANCH   9  11
ENDBRANCH   1   8
BRANCH   4  22
ATOM     22  C   UNL     1      44.892   5.611  10.469  0.00  0.00    +0.000 C 
BRANCH  22  23
ATOM     23  N   UNL     1      45.752   5.344   9.316  0.00  0.00    +0.000 NA
ATOM     24  H   UNL     1      46.596   4.859   9.627  0.00  0.00    +0.000 HD
BRANCH  23  25
ATOM     25  C   UNL     1      45.073   4.478   8.342  0.00  0.00    +0.000 C 
BRANCH  25  26
ATOM     26  C   UNL     1      45.934   3.299   7.932  0.00  0.00    +0.000 A 
ATOM     27  N   UNL     1      46.974   3.593   7.096  0.00  0.00    +0.000 NA
ATOM     28  C   UNL     1      47.766   2.574   6.694  0.00  0.00    +0.000 A 
ATOM     29  C   UNL     1      47.578   1.258   7.077  0.00  0.00    +0.000 A 
ATOM     30  C   UNL     1      46.509   0.967   7.919  0.00  0.00    +0.000 A 
ATOM     31  C   UNL     1      45.669   1.992   8.352  0.00  0.00    +0.000 A 
ATOM     32 CL   UNL     1      44.354   1.583   9.390  0.00  0.00    +0.000 Cl
ENDBRANCH  25  26
ENDBRANCH  23  25
ENDBRANCH  22  23
ENDBRANCH   4  22
TORSDOF 9
ENDMDL
MODEL 4
REMARK VINA RESULT:    -7.981      2.243      9.081
REMARK INTER + INTRA:         -12.284
REMARK INTER:                 -11.400
REMARK INTRA:                  -0.883
REMARK UNBOUND:                -0.337
REMARK  Name = 
REMARK  9 active torsions:
REMARK  status: ('A' for Active; 'I' for Inactive)
REMARK    1  A    between atoms: C_2  and  CA_14
REMARK    2  A    between atoms: N_3  and  CA_4
REMARK    3  A    between atoms: CA_4  and  C_5
REMARK    4  A    between atoms: CA_4  and  C_7
REMARK    5  A    between atoms: C_5  and  O_6
REMARK    6  A    between atoms: C_17  and  C_18
REMARK    7  A    between atoms: C_18  and  N_19
REMARK    8  A    between atoms: N_19  and  C_20
REMARK    9  A    between atoms: C_20  and  C_21
REMARK                            x       y       z     vdW  Elec       q    Type
REMARK                         _______ _______ _______ _____ _____    ______ ____
ROOT
ATOM      1  CA  UNL     1      46.402   4.778  13.743  0.00  0.00    +0.000 A 
ATOM      2  C   UNL     1      47.064   5.922  13.314  0.00  0.00    +0.000 A 
ATOM      3  C   UNL     1      48.001   6.501  14.162  0.00  0.00    +0.000 A 
ATOM      4  C   UNL     1      48.257   5.930  15.412  0.00  0.00    +0.000 A 
ATOM      5  C   UNL     1      47.546   4.774  15.744  0.00  0.00    +0.000 A 
ATOM      6  N   UNL     1      46.623   4.179  14.945  0.00  0.00    +0.000 NA
ENDROOT
BRANCH   1   8
ATOM      7  O   UNL     1      44.459   3.493  13.299  0.00  0.00    +0.000 OA
ATOM      8  C   UNL     1      45.378   4.169  12.844  0.00  0.00    +0.000 C 
ATOM      9  N   UNL     1      45.525   4.416  11.496  0.00  0.00    +0.000 N 
ATOM     10  H   UNL     1      46.265   5.054  11.222  0.00  0.00    +0.000 HD
BRANCH   9  11
ATOM     11  CA  UNL     1      44.611   3.871  10.502  0.00  0.00    +0.000 C 
BRANCH  11  12
ATOM     12  C   UNL     1      45.336   3.371   9.257  0.00  0.00    +0.000 A 
ATOM     13  C   UNL     1      45.752   4.302   8.287  0.00  0.00    +0.000 A 
ATOM     14  C   UNL     1      46.437   3.892   7.140  0.00  0.00    +0.000 A 
ATOM     15  C   UNL     1      46.723   2.543   6.946  0.00  0.00    +0.000 A 
ATOM     16  C   UNL     1      46.319   1.611   7.898  0.00  0.00    +0.000 A 
ATOM     17 CL   UNL     1      46.678  -0.056   7.662  0.00  0.00    +0.000 Cl
ATOM     18  C   UNL     1      45.631   2.014   9.045  0.00  0.00    +0.000 A 
ENDBRANCH  11  12
BRANCH  11  19
ATOM     19  C   UNL     1      43.497   4.885  10.154  0.00  0.00    +0.000 C 
BRANCH  19  20
ATOM     20  O   UNL     1      43.712   6.165  10.753  0.00  0.00    +0.000 OA
ATOM     21  H   UNL     1      44.529   6.531  10.373  0.00  0.00    +0.000 HD
ENDBRANCH  19  20
ENDBRANCH  11  19
ENDBRANCH   9  11
ENDBRANCH   1   8
BRANCH   4  22
ATOM     22  C   UNL     1      49.284   6.528  16.340  0.00  0.00    +0.000 C 
BRANCH  22  23
ATOM     23  N   UNL     1      49.633   5.605  17.419  0.00  0.00    +0.000 NA
ATOM     24  H   UNL     1      49.175   4.705  17.258  0.00  0.00    +0.000 HD
BRANCH  23  25
ATOM     25  C   UNL     1      51.082   5.367  17.462  0.00  0.00    +0.000 C 
BRANCH  25  26
ATOM     26  C   UNL     1      51.415   3.888  17.523  0.00  0.00    +0.000 A 
ATOM     27  N   UNL     1      50.441   3.048  17.061  0.00  0.00    +0.000 NA
ATOM     28  C   UNL     1      50.686   1.719  17.103  0.00  0.00    +0.000 A 
ATOM     29  C   UNL     1      51.858   1.169  17.591  0.00  0.00    +0.000 A 
ATOM     30  C   UNL     1      52.837   2.032  18.071  0.00  0.00    +0.000 A 
ATOM     31  C   UNL     1      52.620   3.410  18.046  0.00  0.00    +0.000 A 
ATOM     32 CL   UNL     1      53.860   4.441  18.657  0.00  0.00    +0.000 Cl
ENDBRANCH  25  26
ENDBRANCH  23  25
ENDBRANCH  22  23
ENDBRANCH   4  22
TORSDOF 9
ENDMDL
MODEL 5
REMARK VINA RESULT:    -7.251      2.990      9.746
REMARK INTER + INTRA:         -11.191
REMARK INTER:                 -10.252
REMARK INTRA:                  -0.939
REMARK UNBOUND:                -0.337
REMARK  Name = 
REMARK  9 active torsions:
REMARK  status: ('A' for Active; 'I' for Inactive)
REMARK    1  A    between atoms: C_2  and  CA_14
REMARK    2  A    between atoms: N_3  and  CA_4
REMARK    3  A    between atoms: CA_4  and  C_5
REMARK    4  A    between atoms: CA_4  and  C_7
REMARK    5  A    between atoms: C_5  and  O_6
REMARK    6  A    between atoms: C_17  and  C_18
REMARK    7  A    between atoms: C_18  and  N_19
REMARK    8  A    between atoms: N_19  and  C_20
REMARK    9  A    between atoms: C_20  and  C_21
REMARK                            x       y       z     vdW  Elec       q    Type
REMARK                         _______ _______ _______ _____ _____    ______ ____
ROOT
ATOM      1  CA  UNL     1      46.777   4.669  13.854  0.00  0.00    +0.000 A 
ATOM      2  C   UNL     1      47.367   5.854  13.433  0.00  0.00    +0.000 A 
ATOM      3  C   UNL     1      48.177   6.544  14.328  0.00  0.00    +0.000 A 
ATOM      4  C   UNL     1      48.379   6.041  15.616  0.00  0.00    +0.000 A 
ATOM      5  C   UNL     1      47.749   4.837  15.937  0.00  0.00    +0.000 A 
ATOM      6  N   UNL     1      46.951   4.134  15.093  0.00  0.00    +0.000 NA
ENDROOT
BRANCH   1   8
ATOM      7  O   UNL     1      45.763   2.719  12.965  0.00  0.00    +0.000 OA
ATOM      8  C   UNL     1      45.888   3.939  12.903  0.00  0.00    +0.000 C 
ATOM      9  N   UNL     1      45.224   4.710  11.974  0.00  0.00    +0.000 N 
ATOM     10  H   UNL     1      45.323   5.717  12.054  0.00  0.00    +0.000 HD
BRANCH   9  11
ATOM     11  CA  UNL     1      44.338   4.131  10.973  0.00  0.00    +0.000 C 
BRANCH  11  12
ATOM     12  C   UNL     1      45.085   3.699   9.715  0.00  0.00    +0.000 A 
ATOM     13  C   UNL     1      45.573   4.685   8.837  0.00  0.00    +0.000 A 
ATOM     14  C   UNL     1      46.279   4.338   7.683  0.00  0.00    +0.000 A 
ATOM     15  C   UNL     1      46.515   2.997   7.389  0.00  0.00    +0.000 A 
ATOM     16  C   UNL     1      46.039   2.011   8.249  0.00  0.00    +0.000 A 
ATOM     17 CL   UNL     1      46.336   0.354   7.891  0.00  0.00    +0.000 Cl
ATOM     18  C   UNL     1      45.330   2.352   9.403  0.00  0.00    +0.000 A 
ENDBRANCH  11  12
BRANCH  11  19
ATOM     19  C   UNL     1      43.163   5.082  10.651  0.00  0.00    +0.000 C 
BRANCH  19  20
ATOM     20  O   UNL     1      43.433   6.435  11.025  0.00  0.00    +0.000 OA
ATOM     21  H   UNL     1      42.910   6.627  11.823  0.00  0.00    +0.000 HD
ENDBRANCH  19  20
ENDBRANCH  11  19
ENDBRANCH   9  11
ENDBRANCH   1   8
BRANCH   4  22
ATOM     22  C   UNL     1      49.270   6.762  16.596  0.00  0.00    +0.000 C 
BRANCH  22  23
ATOM     23  N   UNL     1      50.206   5.843  17.245  0.00  0.00    +0.000 NA
ATOM     24  H   UNL     1      51.026   5.717  16.648  0.00  0.00    +0.000 HD
BRANCH  23  25
ATOM     25  C   UNL     1      50.668   6.382  18.531  0.00  0.00    +0.000 C 
BRANCH  25  26
ATOM     26  C   UNL     1      49.664   6.141  19.642  0.00  0.00    +0.000 A 
ATOM     27  N   UNL     1      49.537   4.842  20.048  0.00  0.00    +0.000 NA
ATOM     28  C   UNL     1      48.648   4.575  21.030  0.00  0.00    +0.000 A 
ATOM     29  C   UNL     1      47.862   5.537  21.638  0.00  0.00    +0.000 A 
ATOM     30  C   UNL     1      47.989   6.855  21.209  0.00  0.00    +0.000 A 
ATOM     31  C   UNL     1      48.895   7.169  20.196  0.00  0.00    +0.000 A 
ATOM     32 CL   UNL     1      49.015   8.814  19.693  0.00  0.00    +0.000 Cl
ENDBRANCH  25  26
ENDBRANCH  23  25
ENDBRANCH  22  23
ENDBRANCH   4  22
TORSDOF 9
ENDMDL
MODEL 6
REMARK VINA RESULT:    -7.163      2.802      9.606
REMARK INTER + INTRA:         -11.060
REMARK INTER:                  -9.959
REMARK INTRA:                  -1.101
REMARK UNBOUND:                -0.337
REMARK  Name = 
REMARK  9 active torsions:
REMARK  status: ('A' for Active; 'I' for Inactive)
REMARK    1  A    between atoms: C_2  and  CA_14
REMARK    2  A    between atoms: N_3  and  CA_4
REMARK    3  A    between atoms: CA_4  and  C_5
REMARK    4  A    between atoms: CA_4  and  C_7
REMARK    5  A    between atoms: C_5  and  O_6
REMARK    6  A    between atoms: C_17  and  C_18
REMARK    7  A    between atoms: C_18  and  N_19
REMARK    8  A    between atoms: N_19  and  C_20
REMARK    9  A    between atoms: C_20  and  C_21
REMARK                            x       y       z     vdW  Elec       q    Type
REMARK                         _______ _______ _______ _____ _____    ______ ____
ROOT
ATOM      1  CA  UNL     1      47.327   5.086  14.425  0.00  0.00    +0.000 A 
ATOM      2  C   UNL     1      47.563   4.748  15.752  0.00  0.00    +0.000 A 
ATOM      3  C   UNL     1      48.458   5.523  16.482  0.00  0.00    +0.000 A 
ATOM      4  C   UNL     1      49.094   6.610  15.876  0.00  0.00    +0.000 A 
ATOM      5  C   UNL     1      48.780   6.871  14.541  0.00  0.00    +0.000 A 
ATOM      6  N   UNL     1      47.913   6.139  13.794  0.00  0.00    +0.000 NA
ENDROOT
BRANCH   1   8
ATOM      7  O   UNL     1      46.545   3.027  13.546  0.00  0.00    +0.000 OA
ATOM      8  C   UNL     1      46.384   4.241  13.633  0.00  0.00    +0.000 C 
ATOM      9  N   UNL     1      45.338   4.901  13.024  0.00  0.00    +0.000 N 
ATOM     10  H   UNL     1      45.239   5.891  13.223  0.00  0.00    +0.000 HD
BRANCH   9  11
ATOM     11  CA  UNL     1      44.353   4.207  12.207  0.00  0.00    +0.000 C 
BRANCH  11  12
ATOM     12  C   UNL     1      44.847   3.959  10.785  0.00  0.00    +0.000 A 
ATOM     13  C   UNL     1      45.186   5.060   9.977  0.00  0.00    +0.000 A 
ATOM     14  C   UNL     1      45.661   4.879   8.675  0.00  0.00    +0.000 A 
ATOM     15  C   UNL     1      45.811   3.594   8.162  0.00  0.00    +0.000 A 
ATOM     16  C   UNL     1      45.482   2.495   8.951  0.00  0.00    +0.000 A 
ATOM     17 CL   UNL     1      45.673   0.906   8.320  0.00  0.00    +0.000 Cl
ATOM     18  C   UNL     1      45.003   2.669  10.252  0.00  0.00    +0.000 A 
ENDBRANCH  11  12
BRANCH  11  19
ATOM     19  C   UNL     1      42.994   4.944  12.226  0.00  0.00    +0.000 C 
BRANCH  19  20
ATOM     20  O   UNL     1      42.769   5.649  13.449  0.00  0.00    +0.000 OA
ATOM     21  H   UNL     1      43.633   5.774  13.877  0.00  0.00    +0.000 HD
ENDBRANCH  19  20
ENDBRANCH  11  19
ENDBRANCH   9  11
ENDBRANCH   1   8
BRANCH   4  22
ATOM     22  C   UNL     1      50.052   7.477  16.654  0.00  0.00    +0.000 C 
BRANCH  22  23
ATOM     23  N   UNL     1      49.407   8.073  17.823  0.00  0.00    +0.000 NA
ATOM     24  H   UNL     1      48.450   7.723  17.898  0.00  0.00    +0.000 HD
BRANCH  23  25
ATOM     25  C   UNL     1      50.113   7.707  19.059  0.00  0.00    +0.000 C 
BRANCH  25  26
ATOM     26  C   UNL     1      49.248   6.873  19.983  0.00  0.00    +0.000 A 
ATOM     27  N   UNL     1      48.275   7.559  20.655  0.00  0.00    +0.000 NA
ATOM     28  C   UNL     1      47.483   6.861  21.499  0.00  0.00    +0.000 A 
ATOM     29  C   UNL     1      47.607   5.501  21.721  0.00  0.00    +0.000 A 
ATOM     30  C   UNL     1      48.608   4.814  21.042  0.00  0.00    +0.000 A 
ATOM     31  C   UNL     1      49.447   5.501  20.165  0.00  0.00    +0.000 A 
ATOM     32 CL   UNL     1      50.677   4.610  19.349  0.00  0.00    +0.000 Cl
ENDBRANCH  25  26
ENDBRANCH  23  25
ENDBRANCH  22  23
ENDBRANCH   4  22
TORSDOF 9
ENDMDL
MODEL 7
REMARK VINA RESULT:    -6.797      2.562      3.220
REMARK INTER + INTRA:         -10.511
REMARK INTER:                 -10.343
REMARK INTRA:                  -0.168
REMARK UNBOUND:                -0.337
REMARK  Name = 
REMARK  9 active torsions:
REMARK  status: ('A' for Active; 'I' for Inactive)
REMARK    1  A    between atoms: C_2  and  CA_14
REMARK    2  A    between atoms: N_3  and  CA_4
REMARK    3  A    between atoms: CA_4  and  C_5
REMARK    4  A    between atoms: CA_4  and  C_7
REMARK    5  A    between atoms: C_5  and  O_6
REMARK    6  A    between atoms: C_17  and  C_18
REMARK    7  A    between atoms: C_18  and  N_19
REMARK    8  A    between atoms: N_19  and  C_20
REMARK    9  A    between atoms: C_20  and  C_21
REMARK                            x       y       z     vdW  Elec       q    Type
REMARK                         _______ _______ _______ _____ _____    ______ ____
ROOT
ATOM      1  CA  UNL     1      46.848   6.292  12.739  0.00  0.00    +0.000 A 
ATOM      2  C   UNL     1      46.525   4.958  12.955  0.00  0.00    +0.000 A 
ATOM      3  C   UNL     1      45.453   4.415  12.254  0.00  0.00    +0.000 A 
ATOM      4  C   UNL     1      44.732   5.210  11.360  0.00  0.00    +0.000 A 
ATOM      5  C   UNL     1      45.143   6.536  11.207  0.00  0.00    +0.000 A 
ATOM      6  N   UNL     1      46.182   7.103  11.873  0.00  0.00    +0.000 NA
ENDROOT
BRANCH   1   8
ATOM      7  O   UNL     1      49.066   7.096  12.970  0.00  0.00    +0.000 OA
ATOM      8  C   UNL     1      47.983   6.882  13.508  0.00  0.00    +0.000 C 
ATOM      9  N   UNL     1      47.738   7.174  14.832  0.00  0.00    +0.000 N 
ATOM     10  H   UNL     1      46.788   7.041  15.166  0.00  0.00    +0.000 HD
BRANCH   9  11
ATOM     11  CA  UNL     1      48.757   7.736  15.706  0.00  0.00    +0.000 C 
BRANCH  11  12
ATOM     12  C   UNL     1      49.130   6.795  16.848  0.00  0.00    +0.000 A 
ATOM     13  C   UNL     1      49.311   7.324  18.139  0.00  0.00    +0.000 A 
ATOM     14  C   UNL     1      49.633   6.497  19.218  0.00  0.00    +0.000 A 
ATOM     15  C   UNL     1      49.775   5.125  19.026  0.00  0.00    +0.000 A 
ATOM     16  C   UNL     1      49.597   4.588  17.754  0.00  0.00    +0.000 A 
ATOM     17 CL   UNL     1      49.764   2.892  17.515  0.00  0.00    +0.000 Cl
ATOM     18  C   UNL     1      49.277   5.410  16.669  0.00  0.00    +0.000 A 
ENDBRANCH  11  12
BRANCH  11  19
ATOM     19  C   UNL     1      48.341   9.133  16.221  0.00  0.00    +0.000 C 
BRANCH  19  20
ATOM     20  O   UNL     1      48.361  10.126  15.193  0.00  0.00    +0.000 OA
ATOM     21  H   UNL     1      47.472  10.517  15.147  0.00  0.00    +0.000 HD
ENDBRANCH  19  20
ENDBRANCH  11  19
ENDBRANCH   9  11
ENDBRANCH   1   8
BRANCH   4  22
ATOM     22  C   UNL     1      43.579   4.638  10.573  0.00  0.00    +0.000 C 
BRANCH  22  23
ATOM     23  N   UNL     1      44.038   3.990   9.345  0.00  0.00    +0.000 NA
ATOM     24  H   UNL     1      44.779   4.551   8.922  0.00  0.00    +0.000 HD
BRANCH  23  25
ATOM     25  C   UNL     1      44.592   2.658   9.627  0.00  0.00    +0.000 C 
BRANCH  25  26
ATOM     26  C   UNL     1      45.640   2.251   8.610  0.00  0.00    +0.000 A 
ATOM     27  N   UNL     1      45.806   0.905   8.442  0.00  0.00    +0.000 NA
ATOM     28  C   UNL     1      46.736   0.492   7.553  0.00  0.00    +0.000 A 
ATOM     29  C   UNL     1      47.527   1.352   6.813  0.00  0.00    +0.000 A 
ATOM     30  C   UNL     1      47.360   2.721   7.000  0.00  0.00    +0.000 A 
ATOM     31  C   UNL     1      46.411   3.185   7.911  0.00  0.00    +0.000 A 
ATOM     32 CL   UNL     1      46.244   4.889   8.114  0.00  0.00    +0.000 Cl
ENDBRANCH  25  26
ENDBRANCH  23  25
ENDBRANCH  22  23
ENDBRANCH   4  22
TORSDOF 9
ENDMDL
MODEL 8
REMARK VINA RESULT:    -6.735      2.544      3.194
REMARK INTER + INTRA:         -10.419
REMARK INTER:                  -9.582
REMARK INTRA:                  -0.837
REMARK UNBOUND:                -0.337
REMARK  Name = 
REMARK  9 active torsions:
REMARK  status: ('A' for Active; 'I' for Inactive)
REMARK    1  A    between atoms: C_2  and  CA_14
REMARK    2  A    between atoms: N_3  and  CA_4
REMARK    3  A    between atoms: CA_4  and  C_5
REMARK    4  A    between atoms: CA_4  and  C_7
REMARK    5  A    between atoms: C_5  and  O_6
REMARK    6  A    between atoms: C_17  and  C_18
REMARK    7  A    between atoms: C_18  and  N_19
REMARK    8  A    between atoms: N_19  and  C_20
REMARK    9  A    between atoms: C_20  and  C_21
REMARK                            x       y       z     vdW  Elec       q    Type
REMARK                         _______ _______ _______ _____ _____    ______ ____
ROOT
ATOM      1  CA  UNL     1      47.716   6.498  13.870  0.00  0.00    +0.000 A 
ATOM      2  C   UNL     1      47.491   7.337  12.785  0.00  0.00    +0.000 A 
ATOM      3  C   UNL     1      46.534   6.963  11.848  0.00  0.00    +0.000 A 
ATOM      4  C   UNL     1      45.827   5.769  12.011  0.00  0.00    +0.000 A 
ATOM      5  C   UNL     1      46.121   5.003  13.141  0.00  0.00    +0.000 A 
ATOM      6  N   UNL     1      47.047   5.332  14.078  0.00  0.00    +0.000 NA
ENDROOT
BRANCH   1   8
ATOM      7  O   UNL     1      49.934   7.010  14.532  0.00  0.00    +0.000 OA
ATOM      8  C   UNL     1      48.759   6.885  14.865  0.00  0.00    +0.000 C 
ATOM      9  N   UNL     1      48.323   7.098  16.155  0.00  0.00    +0.000 N 
ATOM     10  H   UNL     1      47.321   7.054  16.317  0.00  0.00    +0.000 HD
BRANCH   9  11
ATOM     11  CA  UNL     1      49.231   7.464  17.233  0.00  0.00    +0.000 C 
BRANCH  11  12
ATOM     12  C   UNL     1      48.885   6.770  18.547  0.00  0.00    +0.000 A 
ATOM     13  C   UNL     1      47.536   6.683  18.939  0.00  0.00    +0.000 A 
ATOM     14  C   UNL     1      47.170   6.040  20.124  0.00  0.00    +0.000 A 
ATOM     15  C   UNL     1      48.147   5.469  20.936  0.00  0.00    +0.000 A 
ATOM     16  C   UNL     1      49.485   5.546  20.559  0.00  0.00    +0.000 A 
ATOM     17 CL   UNL     1      50.693   4.835  21.558  0.00  0.00    +0.000 Cl
ATOM     18  C   UNL     1      49.858   6.190  19.377  0.00  0.00    +0.000 A 
ENDBRANCH  11  12
BRANCH  11  19
ATOM     19  C   UNL     1      49.316   8.999  17.393  0.00  0.00    +0.000 C 
BRANCH  19  20
ATOM     20  O   UNL     1      49.948   9.634  16.279  0.00  0.00    +0.000 OA
ATOM     21  H   UNL     1      49.279  10.187  15.841  0.00  0.00    +0.000 HD
ENDBRANCH  19  20
ENDBRANCH  11  19
ENDBRANCH   9  11
ENDBRANCH   1   8
BRANCH   4  22
ATOM     22  C   UNL     1      44.771   5.354  11.018  0.00  0.00    +0.000 C 
BRANCH  22  23
ATOM     23  N   UNL     1      45.248   5.486   9.642  0.00  0.00    +0.000 NA
ATOM     24  H   UNL     1      46.260   5.348   9.620  0.00  0.00    +0.000 HD
BRANCH  23  25
ATOM     25  C   UNL     1      44.639   4.469   8.773  0.00  0.00    +0.000 C 
BRANCH  25  26
ATOM     26  C   UNL     1      45.680   3.567   8.138  0.00  0.00    +0.000 A 
ATOM     27  N   UNL     1      46.619   4.201   7.374  0.00  0.00    +0.000 NA
ATOM     28  C   UNL     1      47.563   3.439   6.778  0.00  0.00    +0.000 A 
ATOM     29  C   UNL     1      47.625   2.062   6.895  0.00  0.00    +0.000 A 
ATOM     30  C   UNL     1      46.657   1.425   7.664  0.00  0.00    +0.000 A 
ATOM     31  C   UNL     1      45.666   2.178   8.293  0.00  0.00    +0.000 A 
ATOM     32 CL   UNL     1      44.483   1.345   9.231  0.00  0.00    +0.000 Cl
ENDBRANCH  25  26
ENDBRANCH  23  25
ENDBRANCH  22  23
ENDBRANCH   4  22
TORSDOF 9
ENDMDL
MODEL 9
REMARK VINA RESULT:    -6.573      4.797      7.002
REMARK INTER + INTRA:         -10.177
REMARK INTER:                  -9.406
REMARK INTRA:                  -0.771
REMARK UNBOUND:                -0.337
REMARK  Name = 
REMARK  9 active torsions:
REMARK  status: ('A' for Active; 'I' for Inactive)
REMARK    1  A    between atoms: C_2  and  CA_14
REMARK    2  A    between atoms: N_3  and  CA_4
REMARK    3  A    between atoms: CA_4  and  C_5
REMARK    4  A    between atoms: CA_4  and  C_7
REMARK    5  A    between atoms: C_5  and  O_6
REMARK    6  A    between atoms: C_17  and  C_18
REMARK    7  A    between atoms: C_18  and  N_19
REMARK    8  A    between atoms: N_19  and  C_20
REMARK    9  A    between atoms: C_20  and  C_21
REMARK                            x       y       z     vdW  Elec       q    Type
REMARK                         _______ _______ _______ _____ _____    ______ ____
ROOT
ATOM      1  CA  UNL     1      45.456   3.666   8.992  0.00  0.00    +0.000 A 
ATOM      2  C   UNL     1      45.518   2.278   8.997  0.00  0.00    +0.000 A 
ATOM      3  C   UNL     1      46.174   1.642   7.949  0.00  0.00    +0.000 A 
ATOM      4  C   UNL     1      46.750   2.399   6.925  0.00  0.00    +0.000 A 
ATOM      5  C   UNL     1      46.642   3.788   7.019  0.00  0.00    +0.000 A 
ATOM      6  N   UNL     1      46.010   4.447   8.025  0.00  0.00    +0.000 NA
ENDROOT
BRANCH   1   8
ATOM      7  O   UNL     1      43.510   4.467  10.084  0.00  0.00    +0.000 OA
ATOM      8  C   UNL     1      44.732   4.351  10.104  0.00  0.00    +0.000 C 
ATOM      9  N   UNL     1      45.510   4.827  11.137  0.00  0.00    +0.000 N 
ATOM     10  H   UNL     1      46.501   4.610  11.106  0.00  0.00    +0.000 HD
BRANCH   9  11
ATOM     11  CA  UNL     1      44.941   5.530  12.278  0.00  0.00    +0.000 C 
BRANCH  11  12
ATOM     12  C   UNL     1      45.402   6.983  12.355  0.00  0.00    +0.000 A 
ATOM     13  C   UNL     1      46.621   7.281  12.991  0.00  0.00    +0.000 A 
ATOM     14  C   UNL     1      47.091   8.594  13.068  0.00  0.00    +0.000 A 
ATOM     15  C   UNL     1      46.353   9.632  12.505  0.00  0.00    +0.000 A 
ATOM     16  C   UNL     1      45.146   9.351  11.872  0.00  0.00    +0.000 A 
ATOM     17 CL   UNL     1      44.235  10.632  11.170  0.00  0.00    +0.000 Cl
ATOM     18  C   UNL     1      44.668   8.041  11.794  0.00  0.00    +0.000 A 
ENDBRANCH  11  12
BRANCH  11  19
ATOM     19  C   UNL     1      45.212   4.767  13.594  0.00  0.00    +0.000 C 
BRANCH  19  20
ATOM     20  O   UNL     1      45.875   3.519  13.380  0.00  0.00    +0.000 OA
ATOM     21  H   UNL     1      46.685   3.523  13.917  0.00  0.00    +0.000 HD
ENDBRANCH  19  20
ENDBRANCH  11  19
ENDBRANCH   9  11
ENDBRANCH   1   8
BRANCH   4  22
ATOM     22  C   UNL     1      47.485   1.731   5.790  0.00  0.00    +0.000 C 
BRANCH  22  23
ATOM     23  N   UNL     1      46.564   1.031   4.895  0.00  0.00    +0.000 NA
ATOM     24  H   UNL     1      45.786   1.649   4.656  0.00  0.00    +0.000 HD
BRANCH  23  25
ATOM     25  C   UNL     1      47.232   0.649   3.643  0.00  0.00    +0.000 C 
BRANCH  25  26
ATOM     26  C   UNL     1      46.800  -0.722   3.163  0.00  0.00    +0.000 A 
ATOM     27  N   UNL     1      47.661  -1.744   3.450  0.00  0.00    +0.000 NA
ATOM     28  C   UNL     1      47.325  -2.985   3.035  0.00  0.00    +0.000 A 
ATOM     29  C   UNL     1      46.167  -3.274   2.334  0.00  0.00    +0.000 A 
ATOM     30  C   UNL     1      45.303  -2.225   2.035  0.00  0.00    +0.000 A 
ATOM     31  C   UNL     1      45.618  -0.930   2.446  0.00  0.00    +0.000 A 
ATOM     32 CL   UNL     1      44.520   0.339   2.048  0.00  0.00    +0.000 Cl
ENDBRANCH  25  26
ENDBRANCH  23  25
ENDBRANCH  22  23
ENDBRANCH   4  22
TORSDOF 9
ENDMDL
