MODEL 1
REMARK VINA RESULT:    -8.012      0.000      0.000
REMARK INTER + INTRA:         -11.555
REMARK INTER:                 -10.822
REMARK INTRA:                  -0.733
REMARK UNBOUND:                -0.733
REMARK  Name = 
REMARK  6 active torsions:
REMARK  status: ('A' for Active; 'I' for Inactive)
REMARK    1  A    between atoms: C_2  and  C_4
REMARK    2  A    between atoms: C_7  and  O_8
REMARK    3  A    between atoms: O_8  and  C_9
REMARK    4  A    between atoms: C_9  and  C_10
REMARK    5  A    between atoms: C_10  and  C_11
REMARK    6  A    between atoms: C_15  and  N_16
REMARK                            x       y       z     vdW  Elec       q    Type
REMARK                         _______ _______ _______ _____ _____    ______ ____
ROOT
ATOM      1  C   UNL     1      43.694   3.775  11.040  0.00  0.00    +0.000 C 
ENDROOT
BRANCH   1   2
ATOM      2  O   UNL     1      43.762   4.331   9.717  0.00  0.00    +0.000 OA
BRANCH   2   6
ATOM      3  C   UNL     1      46.603   2.421   7.413  0.00  0.00    +0.000 A 
ATOM      4  C   UNL     1      45.915   1.707   8.398  0.00  0.00    +0.000 A 
ATOM      5  C   UNL     1      44.961   2.362   9.179  0.00  0.00    +0.000 A 
ATOM      6  C   UNL     1      44.726   3.711   8.944  0.00  0.00    +0.000 A 
ATOM      7  N   UNL     1      45.386   4.424   8.006  0.00  0.00    +0.000 NA
ATOM      8  C   UNL     1      46.315   3.770   7.272  0.00  0.00    +0.000 A 
BRANCH   3  10
ATOM      9  N   UNL     1      48.770   2.540   6.323  0.00  0.00    +0.000 N 
ATOM     10  C   UNL     1      47.621   1.828   6.524  0.00  0.00    +0.000 C 
ATOM     11  O   UNL     1      47.468   0.721   6.022  0.00  0.00    +0.000 OA
ATOM     12  H   UNL     1      49.507   2.058   5.819  0.00  0.00    +0.000 HD
ATOM     13  H   UNL     1      49.043   3.309   6.919  0.00  0.00    +0.000 HD
ENDBRANCH   3  10
ENDBRANCH   2   6
ENDBRANCH   1   2
BRANCH   1  14
ATOM     14  C   UNL     1      43.712   4.901  12.075  0.00  0.00    +0.000 C 
BRANCH  14  15
ATOM     15  C   UNL     1      45.124   5.263  12.472  0.00  0.00    +0.000 A 
ATOM     16  C   UNL     1      45.882   6.140  11.692  0.00  0.00    +0.000 A 
ATOM     17  C   UNL     1      47.166   6.501  12.096  0.00  0.00    +0.000 A 
ATOM     18  C   UNL     1      47.689   6.008  13.293  0.00  0.00    +0.000 A 
ATOM     19  C   UNL     1      46.942   5.161  14.124  0.00  0.00    +0.000 A 
ATOM     20  C   UNL     1      45.665   4.783  13.679  0.00  0.00    +0.000 A 
BRANCH  19  21
ATOM     21  N   UNL     1      47.437   4.825  15.378  0.00  0.00    +0.000 N 
ATOM     22  C   UNL     1      47.611   3.408  15.733  0.00  0.00    +0.000 C 
ATOM     23  C   UNL     1      47.614   3.289  17.265  0.00  0.00    +0.000 C 
ATOM     24  O   UNL     1      48.656   4.091  17.850  0.00  0.00    +0.000 OA
ATOM     25  C   UNL     1      48.476   5.477  17.500  0.00  0.00    +0.000 C 
ATOM     26  C   UNL     1      48.473   5.690  15.973  0.00  0.00    +0.000 C 
ENDBRANCH  19  21
ENDBRANCH  14  15
ENDBRANCH   1  14
TORSDOF 6
ENDMDL
MODEL 2
REMARK VINA RESULT:    -7.886      2.672      3.883
REMARK INTER + INTRA:         -11.385
REMARK INTER:                 -10.516
REMARK INTRA:                  -0.869
REMARK UNBOUND:                -0.733
REMARK  Name = 
REMARK  6 active torsions:
REMARK  status: ('A' for Active; 'I' for Inactive)
REMARK    1  A    between atoms: C_2  and  C_4
REMARK    2  A    between atoms: C_7  and  O_8
REMARK    3  A    between atoms: O_8  and  C_9
REMARK    4  A    between atoms: C_9  and  C_10
REMARK    5  A    between atoms: C_10  and  C_11
REMARK    6  A    between atoms: C_15  and  N_16
REMARK                            x       y       z     vdW  Elec       q    Type
REMARK                         _______ _______ _______ _____ _____    ______ ____
ROOT
ATOM      1  C   UNL     1      43.333   3.702  11.215  0.00  0.00    +0.000 C 
ENDROOT
BRANCH   1   2
ATOM      2  O   UNL     1      43.697   4.478  10.062  0.00  0.00    +0.000 OA
BRANCH   2   6
ATOM      3  C   UNL     1      46.432   2.477   7.707  0.00  0.00    +0.000 A 
ATOM      4  C   UNL     1      45.663   1.766   8.632  0.00  0.00    +0.000 A 
ATOM      5  C   UNL     1      44.746   2.451   9.431  0.00  0.00    +0.000 A 
ATOM      6  C   UNL     1      44.627   3.826   9.273  0.00  0.00    +0.000 A 
ATOM      7  N   UNL     1      45.367   4.536   8.394  0.00  0.00    +0.000 NA
ATOM      8  C   UNL     1      46.259   3.852   7.641  0.00  0.00    +0.000 A 
BRANCH   3  10
ATOM      9  N   UNL     1      48.494   2.614   6.431  0.00  0.00    +0.000 N 
ATOM     10  C   UNL     1      47.422   1.854   6.805  0.00  0.00    +0.000 C 
ATOM     11  O   UNL     1      47.314   0.690   6.442  0.00  0.00    +0.000 OA
ATOM     12  H   UNL     1      49.225   2.127   5.922  0.00  0.00    +0.000 HD
ATOM     13  H   UNL     1      48.753   3.463   6.914  0.00  0.00    +0.000 HD
ENDBRANCH   3  10
ENDBRANCH   2   6
ENDBRANCH   1   2
BRANCH   1  14
ATOM     14  C   UNL     1      43.244   4.611  12.441  0.00  0.00    +0.000 C 
BRANCH  14  15
ATOM     15  C   UNL     1      44.582   5.236  12.762  0.00  0.00    +0.000 A 
ATOM     16  C   UNL     1      45.650   4.448  13.199  0.00  0.00    +0.000 A 
ATOM     17  C   UNL     1      46.892   5.031  13.446  0.00  0.00    +0.000 A 
ATOM     18  C   UNL     1      47.078   6.399  13.234  0.00  0.00    +0.000 A 
ATOM     19  C   UNL     1      46.043   7.213  12.754  0.00  0.00    +0.000 A 
ATOM     20  C   UNL     1      44.792   6.610  12.547  0.00  0.00    +0.000 A 
BRANCH  19  21
ATOM     21  N   UNL     1      46.316   8.530  12.406  0.00  0.00    +0.000 N 
ATOM     22  C   UNL     1      45.238   9.530  12.446  0.00  0.00    +0.000 C 
ATOM     23  C   UNL     1      45.623  10.695  11.522  0.00  0.00    +0.000 C 
ATOM     24  O   UNL     1      46.876  11.283  11.914  0.00  0.00    +0.000 OA
ATOM     25  C   UNL     1      47.927  10.298  11.868  0.00  0.00    +0.000 C 
ATOM     26  C   UNL     1      47.626   9.093  12.782  0.00  0.00    +0.000 C 
ENDBRANCH  19  21
ENDBRANCH  14  15
ENDBRANCH   1  14
TORSDOF 6
ENDMDL
MODEL 3
REMARK VINA RESULT:    -7.128      2.421      3.436
REMARK INTER + INTRA:         -10.361
REMARK INTER:                  -9.771
REMARK INTRA:                  -0.590
REMARK UNBOUND:                -0.733
REMARK  Name = 
REMARK  6 active torsions:
REMARK  status: ('A' for Active; 'I' for Inactive)
REMARK    1  A    between atoms: C_2  and  C_4
REMARK    2  A    between atoms: C_7  and  O_8
REMARK    3  A    between atoms: O_8  and  C_9
REMARK    4  A    between atoms: C_9  and  C_10
REMARK    5  A    between atoms: C_10  and  C_11
REMARK    6  A    between atoms: C_15  and  N_16
REMARK                            x       y       z     vdW  Elec       q    Type
REMARK                         _______ _______ _______ _____ _____    ______ ____
ROOT
ATOM      1  C   UNL     1      44.177   3.794  11.409  0.00  0.00    +0.000 C 
ENDROOT
BRANCH   1   2
ATOM      2  O   UNL     1      43.657   3.535  10.095  0.00  0.00    +0.000 OA
BRANCH   2   6
ATOM      3  C   UNL     1      46.649   2.442   7.471  0.00  0.00    +0.000 A 
ATOM      4  C   UNL     1      46.240   3.777   7.539  0.00  0.00    +0.000 A 
ATOM      5  C   UNL     1      45.222   4.137   8.423  0.00  0.00    +0.000 A 
ATOM      6  C   UNL     1      44.650   3.148   9.213  0.00  0.00    +0.000 A 
ATOM      7  N   UNL     1      45.020   1.851   9.158  0.00  0.00    +0.000 NA
ATOM      8  C   UNL     1      45.999   1.524   8.283  0.00  0.00    +0.000 A 
BRANCH   3  10
ATOM      9  N   UNL     1      48.761   2.801   6.328  0.00  0.00    +0.000 N 
ATOM     10  C   UNL     1      47.722   1.952   6.583  0.00  0.00    +0.000 C 
ATOM     11  O   UNL     1      47.708   0.815   6.128  0.00  0.00    +0.000 OA
ATOM     12  H   UNL     1      49.547   2.400   5.827  0.00  0.00    +0.000 HD
ATOM     13  H   UNL     1      48.940   3.624   6.887  0.00  0.00    +0.000 HD
ENDBRANCH   3  10
ENDBRANCH   2   6
ENDBRANCH   1   2
BRANCH   1  14
ATOM     14  C   UNL     1      44.577   5.265  11.526  0.00  0.00    +0.000 C 
BRANCH  14  15
ATOM     15  C   UNL     1      45.700   5.454  12.519  0.00  0.00    +0.000 A 
ATOM     16  C   UNL     1      45.809   4.625  13.638  0.00  0.00    +0.000 A 
ATOM     17  C   UNL     1      46.876   4.781  14.520  0.00  0.00    +0.000 A 
ATOM     18  C   UNL     1      47.853   5.749  14.275  0.00  0.00    +0.000 A 
ATOM     19  C   UNL     1      47.801   6.569  13.139  0.00  0.00    +0.000 A 
ATOM     20  C   UNL     1      46.698   6.418  12.285  0.00  0.00    +0.000 A 
BRANCH  19  21
ATOM     21  N   UNL     1      48.874   7.403  12.852  0.00  0.00    +0.000 N 
ATOM     22  C   UNL     1      49.195   7.716  11.451  0.00  0.00    +0.000 C 
ATOM     23  C   UNL     1      50.667   8.148  11.376  0.00  0.00    +0.000 C 
ATOM     24  O   UNL     1      50.924   9.284  12.220  0.00  0.00    +0.000 OA
ATOM     25  C   UNL     1      50.610   8.968  13.591  0.00  0.00    +0.000 C 
ATOM     26  C   UNL     1      49.141   8.534  13.760  0.00  0.00    +0.000 C 
ENDBRANCH  19  21
ENDBRANCH  14  15
ENDBRANCH   1  14
TORSDOF 6
ENDMDL
MODEL 4
REMARK VINA RESULT:    -6.711      1.842      2.332
REMARK INTER + INTRA:          -9.797
REMARK INTER:                  -9.821
REMARK INTRA:                   0.024
REMARK UNBOUND:                -0.733
REMARK  Name = 
REMARK  6 active torsions:
REMARK  status: ('A' for Active; 'I' for Inactive)
REMARK    1  A    between atoms: C_2  and  C_4
REMARK    2  A    between atoms: C_7  and  O_8
REMARK    3  A    between atoms: O_8  and  C_9
REMARK    4  A    between atoms: C_9  and  C_10
REMARK    5  A    between atoms: C_10  and  C_11
REMARK    6  A    between atoms: C_15  and  N_16
REMARK                            x       y       z     vdW  Elec       q    Type
REMARK                         _______ _______ _______ _____ _____    ______ ____
ROOT
ATOM      1  C   UNL     1      43.619   3.836  11.204  0.00  0.00    +0.000 C 
ENDROOT
BRANCH   1   2
ATOM      2  O   UNL     1      43.676   4.411   9.889  0.00  0.00    +0.000 OA
BRANCH   2   6
ATOM      3  C   UNL     1      46.572   2.616   7.561  0.00  0.00    +0.000 A 
ATOM      4  C   UNL     1      45.746   1.830   8.369  0.00  0.00    +0.000 A 
ATOM      5  C   UNL     1      44.774   2.445   9.159  0.00  0.00    +0.000 A 
ATOM      6  C   UNL     1      44.659   3.828   9.112  0.00  0.00    +0.000 A 
ATOM      7  N   UNL     1      45.453   4.610   8.348  0.00  0.00    +0.000 NA
ATOM      8  C   UNL     1      46.397   3.991   7.601  0.00  0.00    +0.000 A 
BRANCH   3  10
ATOM      9  N   UNL     1      48.102   2.891   5.695  0.00  0.00    +0.000 N 
ATOM     10  C   UNL     1      47.623   2.072   6.678  0.00  0.00    +0.000 C 
ATOM     11  O   UNL     1      48.083   0.949   6.845  0.00  0.00    +0.000 OA
ATOM     12  H   UNL     1      48.910   2.547   5.188  0.00  0.00    +0.000 HD
ATOM     13  H   UNL     1      47.946   3.889   5.697  0.00  0.00    +0.000 HD
ENDBRANCH   3  10
ENDBRANCH   2   6
ENDBRANCH   1   2
BRANCH   1  14
ATOM     14  C   UNL     1      45.004   3.888  11.851  0.00  0.00    +0.000 C 
BRANCH  14  15
ATOM     15  C   UNL     1      45.426   5.311  12.134  0.00  0.00    +0.000 A 
ATOM     16  C   UNL     1      44.540   6.372  11.927  0.00  0.00    +0.000 A 
ATOM     17  C   UNL     1      44.927   7.675  12.238  0.00  0.00    +0.000 A 
ATOM     18  C   UNL     1      46.190   7.920  12.780  0.00  0.00    +0.000 A 
ATOM     19  C   UNL     1      47.089   6.877  13.043  0.00  0.00    +0.000 A 
ATOM     20  C   UNL     1      46.691   5.578  12.689  0.00  0.00    +0.000 A 
BRANCH  19  21
ATOM     21  N   UNL     1      48.266   7.148  13.729  0.00  0.00    +0.000 N 
ATOM     22  C   UNL     1      48.530   6.477  15.012  0.00  0.00    +0.000 C 
ATOM     23  C   UNL     1      49.541   7.322  15.801  0.00  0.00    +0.000 C 
ATOM     24  O   UNL     1      50.763   7.503  15.063  0.00  0.00    +0.000 OA
ATOM     25  C   UNL     1      50.496   8.163  13.810  0.00  0.00    +0.000 C 
ATOM     26  C   UNL     1      49.494   7.373  12.944  0.00  0.00    +0.000 C 
ENDBRANCH  19  21
ENDBRANCH  14  15
ENDBRANCH   1  14
TORSDOF 6
ENDMDL
MODEL 5
REMARK VINA RESULT:    -6.695      1.816      7.665
REMARK INTER + INTRA:          -9.776
REMARK INTER:                  -8.811
REMARK INTRA:                  -0.965
REMARK UNBOUND:                -0.733
REMARK  Name = 
REMARK  6 active torsions:
REMARK  status: ('A' for Active; 'I' for Inactive)
REMARK    1  A    between atoms: C_2  and  C_4
REMARK    2  A    between atoms: C_7  and  O_8
REMARK    3  A    between atoms: O_8  and  C_9
REMARK    4  A    between atoms: C_9  and  C_10
REMARK    5  A    between atoms: C_10  and  C_11
REMARK    6  A    between atoms: C_15  and  N_16
REMARK                            x       y       z     vdW  Elec       q    Type
REMARK                         _______ _______ _______ _____ _____    ______ ____
ROOT
ATOM      1  C   UNL     1      46.777   7.887  13.076  0.00  0.00    +0.000 C 
ENDROOT
BRANCH   1   2
ATOM      2  O   UNL     1      47.791   6.871  13.011  0.00  0.00    +0.000 OA
BRANCH   2   6
ATOM      3  C   UNL     1      47.601   4.251  16.192  0.00  0.00    +0.000 A 
ATOM      4  C   UNL     1      46.846   4.002  15.043  0.00  0.00    +0.000 A 
ATOM      5  C   UNL     1      46.909   4.897  13.975  0.00  0.00    +0.000 A 
ATOM      6  C   UNL     1      47.731   6.011  14.091  0.00  0.00    +0.000 A 
ATOM      7  N   UNL     1      48.461   6.279  15.195  0.00  0.00    +0.000 NA
ATOM      8  C   UNL     1      48.372   5.403  16.223  0.00  0.00    +0.000 A 
BRANCH   3  10
ATOM      9  N   UNL     1      48.693   3.466  18.215  0.00  0.00    +0.000 N 
ATOM     10  C   UNL     1      47.620   3.367  17.376  0.00  0.00    +0.000 C 
ATOM     11  O   UNL     1      46.692   2.608  17.623  0.00  0.00    +0.000 OA
ATOM     12  H   UNL     1      48.624   2.949  19.085  0.00  0.00    +0.000 HD
ATOM     13  H   UNL     1      49.330   4.251  18.192  0.00  0.00    +0.000 HD
ENDBRANCH   3  10
ENDBRANCH   2   6
ENDBRANCH   1   2
BRANCH   1  14
ATOM     14  C   UNL     1      46.083   8.013  11.719  0.00  0.00    +0.000 C 
BRANCH  14  15
ATOM     15  C   UNL     1      45.297   6.767  11.385  0.00  0.00    +0.000 A 
ATOM     16  C   UNL     1      43.989   6.603  11.851  0.00  0.00    +0.000 A 
ATOM     17  C   UNL     1      43.259   5.471  11.496  0.00  0.00    +0.000 A 
ATOM     18  C   UNL     1      43.822   4.509  10.654  0.00  0.00    +0.000 A 
ATOM     19  C   UNL     1      45.114   4.660  10.132  0.00  0.00    +0.000 A 
ATOM     20  C   UNL     1      45.843   5.791  10.532  0.00  0.00    +0.000 A 
BRANCH  19  21
ATOM     21  N   UNL     1      45.572   3.763   9.175  0.00  0.00    +0.000 N 
ATOM     22  C   UNL     1      44.943   2.437   9.064  0.00  0.00    +0.000 C 
ATOM     23  C   UNL     1      45.938   1.485   8.382  0.00  0.00    +0.000 C 
ATOM     24  O   UNL     1      46.326   1.973   7.086  0.00  0.00    +0.000 OA
ATOM     25  C   UNL     1      46.943   3.270   7.204  0.00  0.00    +0.000 C 
ATOM     26  C   UNL     1      46.005   4.296   7.870  0.00  0.00    +0.000 C 
ENDBRANCH  19  21
ENDBRANCH  14  15
ENDBRANCH   1  14
TORSDOF 6
ENDMDL
MODEL 6
REMARK VINA RESULT:    -6.694      2.536      7.839
REMARK INTER + INTRA:          -9.775
REMARK INTER:                  -8.942
REMARK INTRA:                  -0.833
REMARK UNBOUND:                -0.733
REMARK  Name = 
REMARK  6 active torsions:
REMARK  status: ('A' for Active; 'I' for Inactive)
REMARK    1  A    between atoms: C_2  and  C_4
REMARK    2  A    between atoms: C_7  and  O_8
REMARK    3  A    between atoms: O_8  and  C_9
REMARK    4  A    between atoms: C_9  and  C_10
REMARK    5  A    between atoms: C_10  and  C_11
REMARK    6  A    between atoms: C_15  and  N_16
REMARK                            x       y       z     vdW  Elec       q    Type
REMARK                         _______ _______ _______ _____ _____    ______ ____
ROOT
ATOM      1  C   UNL     1      49.560   7.291  13.265  0.00  0.00    +0.000 C 
ENDROOT
BRANCH   1   2
ATOM      2  O   UNL     1      49.174   7.715  14.582  0.00  0.00    +0.000 OA
BRANCH   2   6
ATOM      3  C   UNL     1      48.039   4.578  17.009  0.00  0.00    +0.000 A 
ATOM      4  C   UNL     1      48.868   5.581  17.517  0.00  0.00    +0.000 A 
ATOM      5  C   UNL     1      49.255   6.635  16.687  0.00  0.00    +0.000 A 
ATOM      6  C   UNL     1      48.794   6.650  15.377  0.00  0.00    +0.000 A 
ATOM      7  N   UNL     1      48.001   5.686  14.861  0.00  0.00    +0.000 NA
ATOM      8  C   UNL     1      47.652   4.668  15.680  0.00  0.00    +0.000 A 
BRANCH   3  10
ATOM      9  N   UNL     1      48.267   3.097  18.921  0.00  0.00    +0.000 N 
ATOM     10  C   UNL     1      47.560   3.425  17.799  0.00  0.00    +0.000 C 
ATOM     11  O   UNL     1      46.545   2.814  17.490  0.00  0.00    +0.000 OA
ATOM     12  H   UNL     1      47.848   2.391  19.517  0.00  0.00    +0.000 HD
ATOM     13  H   UNL     1      48.933   3.726  19.347  0.00  0.00    +0.000 HD
ENDBRANCH   3  10
ENDBRANCH   2   6
ENDBRANCH   1   2
BRANCH   1  14
ATOM     14  C   UNL     1      48.954   8.232  12.222  0.00  0.00    +0.000 C 
BRANCH  14  15
ATOM     15  C   UNL     1      47.471   7.992  12.059  0.00  0.00    +0.000 A 
ATOM     16  C   UNL     1      46.557   9.034  12.234  0.00  0.00    +0.000 A 
ATOM     17  C   UNL     1      45.196   8.809  12.035  0.00  0.00    +0.000 A 
ATOM     18  C   UNL     1      44.745   7.549  11.635  0.00  0.00    +0.000 A 
ATOM     19  C   UNL     1      45.636   6.491  11.406  0.00  0.00    +0.000 A 
ATOM     20  C   UNL     1      46.998   6.732  11.648  0.00  0.00    +0.000 A 
BRANCH  19  21
ATOM     21  N   UNL     1      45.162   5.307  10.857  0.00  0.00    +0.000 N 
ATOM     22  C   UNL     1      45.533   4.946   9.480  0.00  0.00    +0.000 C 
ATOM     23  C   UNL     1      44.486   3.960   8.938  0.00  0.00    +0.000 C 
ATOM     24  O   UNL     1      44.396   2.785   9.764  0.00  0.00    +0.000 OA
ATOM     25  C   UNL     1      44.030   3.148  11.110  0.00  0.00    +0.000 C 
ATOM     26  C   UNL     1      45.038   4.130  11.737  0.00  0.00    +0.000 C 
ENDBRANCH  19  21
ENDBRANCH  14  15
ENDBRANCH   1  14
TORSDOF 6
ENDMDL
MODEL 7
REMARK VINA RESULT:    -6.524      3.089      8.315
REMARK INTER + INTRA:          -9.546
REMARK INTER:                  -8.919
REMARK INTRA:                  -0.627
REMARK UNBOUND:                -0.733
REMARK  Name = 
REMARK  6 active torsions:
REMARK  status: ('A' for Active; 'I' for Inactive)
REMARK    1  A    between atoms: C_2  and  C_4
REMARK    2  A    between atoms: C_7  and  O_8
REMARK    3  A    between atoms: O_8  and  C_9
REMARK    4  A    between atoms: C_9  and  C_10
REMARK    5  A    between atoms: C_10  and  C_11
REMARK    6  A    between atoms: C_15  and  N_16
REMARK                            x       y       z     vdW  Elec       q    Type
REMARK                         _______ _______ _______ _____ _____    ______ ____
ROOT
ATOM      1  C   UNL     1      47.980   4.841  16.127  0.00  0.00    +0.000 C 
ENDROOT
BRANCH   1   2
ATOM      2  O   UNL     1      48.494   4.686  17.460  0.00  0.00    +0.000 OA
BRANCH   2   6
ATOM      3  C   UNL     1      51.756   2.165  17.636  0.00  0.00    +0.000 A 
ATOM      4  C   UNL     1      51.848   3.456  18.164  0.00  0.00    +0.000 A 
ATOM      5  C   UNL     1      50.743   4.306  18.093  0.00  0.00    +0.000 A 
ATOM      6  C   UNL     1      49.580   3.832  17.499  0.00  0.00    +0.000 A 
ATOM      7  N   UNL     1      49.471   2.593  16.972  0.00  0.00    +0.000 NA
ATOM      8  C   UNL     1      50.560   1.794  17.040  0.00  0.00    +0.000 A 
BRANCH   3  10
ATOM      9  N   UNL     1      52.570  -0.064  18.152  0.00  0.00    +0.000 N 
ATOM     10  C   UNL     1      52.856   1.181  17.667  0.00  0.00    +0.000 C 
ATOM     11  O   UNL     1      53.969   1.450  17.233  0.00  0.00    +0.000 OA
ATOM     12  H   UNL     1      53.300  -0.760  18.041  0.00  0.00    +0.000 HD
ATOM     13  H   UNL     1      51.623  -0.399  18.262  0.00  0.00    +0.000 HD
ENDBRANCH   3  10
ENDBRANCH   2   6
ENDBRANCH   1   2
BRANCH   1  14
ATOM     14  C   UNL     1      48.474   6.162  15.535  0.00  0.00    +0.000 C 
BRANCH  14  15
ATOM     15  C   UNL     1      47.934   6.376  14.139  0.00  0.00    +0.000 A 
ATOM     16  C   UNL     1      48.557   7.270  13.264  0.00  0.00    +0.000 A 
ATOM     17  C   UNL     1      48.076   7.422  11.964  0.00  0.00    +0.000 A 
ATOM     18  C   UNL     1      46.988   6.664  11.526  0.00  0.00    +0.000 A 
ATOM     19  C   UNL     1      46.366   5.725  12.361  0.00  0.00    +0.000 A 
ATOM     20  C   UNL     1      46.845   5.616  13.676  0.00  0.00    +0.000 A 
BRANCH  19  21
ATOM     21  N   UNL     1      45.396   4.882  11.835  0.00  0.00    +0.000 N 
ATOM     22  C   UNL     1      45.144   4.880  10.386  0.00  0.00    +0.000 C 
ATOM     23  C   UNL     1      43.728   4.338  10.140  0.00  0.00    +0.000 C 
ATOM     24  O   UNL     1      43.572   3.015  10.684  0.00  0.00    +0.000 OA
ATOM     25  C   UNL     1      43.817   3.027  12.104  0.00  0.00    +0.000 C 
ATOM     26  C   UNL     1      45.228   3.548  12.441  0.00  0.00    +0.000 C 
ENDBRANCH  19  21
ENDBRANCH  14  15
ENDBRANCH   1  14
TORSDOF 6
ENDMDL
MODEL 8
REMARK VINA RESULT:    -6.368      4.050      8.301
REMARK INTER + INTRA:          -9.335
REMARK INTER:                  -8.714
REMARK INTRA:                  -0.621
REMARK UNBOUND:                -0.733
REMARK  Name = 
REMARK  6 active torsions:
REMARK  status: ('A' for Active; 'I' for Inactive)
REMARK    1  A    between atoms: C_2  and  C_4
REMARK    2  A    between atoms: C_7  and  O_8
REMARK    3  A    between atoms: O_8  and  C_9
REMARK    4  A    between atoms: C_9  and  C_10
REMARK    5  A    between atoms: C_10  and  C_11
REMARK    6  A    between atoms: C_15  and  N_16
REMARK                            x       y       z     vdW  Elec       q    Type
REMARK                         _______ _______ _______ _____ _____    ______ ____
ROOT
ATOM      1  C   UNL     1      46.824   3.970  13.650  0.00  0.00    +0.000 C 
ENDROOT
BRANCH   1   2
ATOM      2  O   UNL     1      47.427   2.916  14.418  0.00  0.00    +0.000 OA
BRANCH   2   6
ATOM      3  C   UNL     1      48.458   4.210  18.198  0.00  0.00    +0.000 A 
ATOM      4  C   UNL     1      47.517   4.926  17.453  0.00  0.00    +0.000 A 
ATOM      5  C   UNL     1      47.180   4.487  16.172  0.00  0.00    +0.000 A 
ATOM      6  C   UNL     1      47.793   3.341  15.681  0.00  0.00    +0.000 A 
ATOM      7  N   UNL     1      48.714   2.639  16.378  0.00  0.00    +0.000 NA
ATOM      8  C   UNL     1      49.034   3.093  17.611  0.00  0.00    +0.000 A 
BRANCH   3  10
ATOM      9  N   UNL     1      48.491   3.754  20.583  0.00  0.00    +0.000 N 
ATOM     10  C   UNL     1      48.881   4.577  19.565  0.00  0.00    +0.000 C 
ATOM     11  O   UNL     1      49.591   5.552  19.776  0.00  0.00    +0.000 OA
ATOM     12  H   UNL     1      48.900   3.949  21.491  0.00  0.00    +0.000 HD
ATOM     13  H   UNL     1      48.145   2.818  20.423  0.00  0.00    +0.000 HD
ENDBRANCH   3  10
ENDBRANCH   2   6
ENDBRANCH   1   2
BRANCH   1  14
ATOM     14  C   UNL     1      45.832   3.377  12.649  0.00  0.00    +0.000 C 
BRANCH  14  15
ATOM     15  C   UNL     1      44.854   4.419  12.159  0.00  0.00    +0.000 A 
ATOM     16  C   UNL     1      43.510   4.095  11.955  0.00  0.00    +0.000 A 
ATOM     17  C   UNL     1      42.610   5.078  11.548  0.00  0.00    +0.000 A 
ATOM     18  C   UNL     1      43.042   6.394  11.368  0.00  0.00    +0.000 A 
ATOM     19  C   UNL     1      44.372   6.766  11.606  0.00  0.00    +0.000 A 
ATOM     20  C   UNL     1      45.268   5.752  11.980  0.00  0.00    +0.000 A 
BRANCH  19  21
ATOM     21  N   UNL     1      44.721   8.110  11.570  0.00  0.00    +0.000 N 
ATOM     22  C   UNL     1      43.754   9.098  11.066  0.00  0.00    +0.000 C 
ATOM     23  C   UNL     1      44.527  10.343  10.609  0.00  0.00    +0.000 C 
ATOM     24  O   UNL     1      45.308  10.899  11.682  0.00  0.00    +0.000 OA
ATOM     25  C   UNL     1      46.254   9.927  12.167  0.00  0.00    +0.000 C 
ATOM     26  C   UNL     1      45.559   8.642  12.660  0.00  0.00    +0.000 C 
ENDBRANCH  19  21
ENDBRANCH  14  15
ENDBRANCH   1  14
TORSDOF 6
ENDMDL
MODEL 9
REMARK VINA RESULT:    -6.198      3.550      6.318
REMARK INTER + INTRA:          -9.105
REMARK INTER:                  -8.584
REMARK INTRA:                  -0.522
REMARK UNBOUND:                -0.733
REMARK  Name = 
REMARK  6 active torsions:
REMARK  status: ('A' for Active; 'I' for Inactive)
REMARK    1  A    between atoms: C_2  and  C_4
REMARK    2  A    between atoms: C_7  and  O_8
REMARK    3  A    between atoms: O_8  and  C_9
REMARK    4  A    between atoms: C_9  and  C_10
REMARK    5  A    between atoms: C_10  and  C_11
REMARK    6  A    between atoms: C_15  and  N_16
REMARK                            x       y       z     vdW  Elec       q    Type
REMARK                         _______ _______ _______ _____ _____    ______ ____
ROOT
ATOM      1  C   UNL     1      47.439   3.730  15.829  0.00  0.00    +0.000 C 
ENDROOT
BRANCH   1   2
ATOM      2  O   UNL     1      47.554   3.267  14.473  0.00  0.00    +0.000 OA
BRANCH   2   6
ATOM      3  C   UNL     1      44.745   5.015  12.007  0.00  0.00    +0.000 A 
ATOM      4  C   UNL     1      45.576   5.820  12.792  0.00  0.00    +0.000 A 
ATOM      5  C   UNL     1      46.518   5.221  13.630  0.00  0.00    +0.000 A 
ATOM      6  C   UNL     1      46.599   3.835  13.650  0.00  0.00    +0.000 A 
ATOM      7  N   UNL     1      45.800   3.036  12.910  0.00  0.00    +0.000 NA
ATOM      8  C   UNL     1      44.886   3.640  12.117  0.00  0.00    +0.000 A 
BRANCH   3  10
ATOM      9  N   UNL     1      43.269   6.810  11.301  0.00  0.00    +0.000 N 
ATOM     10  C   UNL     1      43.724   5.541  11.079  0.00  0.00    +0.000 C 
ATOM     11  O   UNL     1      43.333   4.887  10.120  0.00  0.00    +0.000 OA
ATOM     12  H   UNL     1      42.670   7.197  10.579  0.00  0.00    +0.000 HD
ATOM     13  H   UNL     1      43.752   7.463  11.901  0.00  0.00    +0.000 HD
ENDBRANCH   3  10
ENDBRANCH   2   6
ENDBRANCH   1   2
BRANCH   1  14
ATOM     14  C   UNL     1      48.111   2.733  16.773  0.00  0.00    +0.000 C 
BRANCH  14  15
ATOM     15  C   UNL     1      49.111   3.418  17.676  0.00  0.00    +0.000 A 
ATOM     16  C   UNL     1      50.484   3.241  17.483  0.00  0.00    +0.000 A 
ATOM     17  C   UNL     1      51.395   3.916  18.293  0.00  0.00    +0.000 A 
ATOM     18  C   UNL     1      50.940   4.789  19.284  0.00  0.00    +0.000 A 
ATOM     19  C   UNL     1      49.571   5.026  19.478  0.00  0.00    +0.000 A 
ATOM     20  C   UNL     1      48.672   4.307  18.674  0.00  0.00    +0.000 A 
BRANCH  19  21
ATOM     21  N   UNL     1      49.170   6.019  20.362  0.00  0.00    +0.000 N 
ATOM     22  C   UNL     1      49.897   7.298  20.396  0.00  0.00    +0.000 C 
ATOM     23  C   UNL     1      49.653   7.958  21.761  0.00  0.00    +0.000 C 
ATOM     24  O   UNL     1      48.249   8.166  22.000  0.00  0.00    +0.000 OA
ATOM     25  C   UNL     1      47.546   6.908  21.968  0.00  0.00    +0.000 C 
ATOM     26  C   UNL     1      47.727   6.180  20.621  0.00  0.00    +0.000 C 
ENDBRANCH  19  21
ENDBRANCH  14  15
ENDBRANCH   1  14
TORSDOF 6
ENDMDL
