MODEL 1
REMARK VINA RESULT:    -7.993      0.000      0.000
REMARK INTER + INTRA:         -13.895
REMARK INTER:                 -12.199
REMARK INTRA:                  -1.697
REMARK UNBOUND:                -1.697
REMARK  Name = 
REMARK  9 active torsions:
REMARK  status: ('A' for Active; 'I' for Inactive)
REMARK    1  A    between atoms: C_2  and  C_4
REMARK    2  A    between atoms: C_4  and  C_5
REMARK    3  A    between atoms: C_5  and  N_6
REMARK    4  A    between atoms: C_5  and  C_28
REMARK    5  A    between atoms: N_6  and  C_7
REMARK    6  A    between atoms: C_7  and  C_8
REMARK    7  A    between atoms: C_11  and  C_12
REMARK    8  A    between atoms: C_12  and  N_13
REMARK    9  A    between atoms: C_14  and  C_16
REMARK                            x       y       z     vdW  Elec       q    Type
REMARK                         _______ _______ _______ _____ _____    ______ ____
ROOT
ATOM      1  C   UNL     1      46.972   6.805  12.548  0.00  0.00    +0.000 A 
ATOM      2  C   UNL     1      47.229   8.149  12.834  0.00  0.00    +0.000 A 
ATOM      3  C   UNL     1      47.967   8.504  13.967  0.00  0.00    +0.000 A 
ATOM      4  C   UNL     1      48.457   7.521  14.836  0.00  0.00    +0.000 A 
ATOM      5  C   UNL     1      48.174   6.176  14.568  0.00  0.00    +0.000 A 
ATOM      6  C   UNL     1      47.445   5.823  13.432  0.00  0.00    +0.000 A 
ENDROOT
BRANCH   1   7
ATOM      7  C   UNL     1      46.100   6.394  11.384  0.00  0.00    +0.000 C 
BRANCH   7   8
ATOM      8  N   UNL     1      45.553   5.037  11.502  0.00  0.00    +0.000 NA
ATOM      9  H   UNL     1      46.312   4.363  11.461  0.00  0.00    +0.000 HD
BRANCH   8  10
ATOM     10  C   UNL     1      44.546   4.718  10.457  0.00  0.00    +0.000 C 
BRANCH  10  11
ATOM     11  C   UNL     1      45.150   3.851   9.358  0.00  0.00    +0.000 A 
ATOM     12  C   UNL     1      45.833   4.454   8.289  0.00  0.00    +0.000 A 
ATOM     13  C   UNL     1      46.472   3.677   7.321  0.00  0.00    +0.000 A 
ATOM     14  C   UNL     1      46.451   2.287   7.415  0.00  0.00    +0.000 A 
ATOM     15  C   UNL     1      45.777   1.675   8.466  0.00  0.00    +0.000 A 
ATOM     16  C   UNL     1      45.124   2.450   9.426  0.00  0.00    +0.000 A 
ENDBRANCH  10  11
BRANCH  10  17
ATOM     17  C   UNL     1      43.227   4.192  11.061  0.00  0.00    +0.000 C 
BRANCH  17  19
ATOM     18  N   UNL     1      42.755   5.415  13.122  0.00  0.00    +0.000 N 
ATOM     19  C   UNL     1      43.210   4.256  12.571  0.00  0.00    +0.000 C 
ATOM     20  O   UNL     1      43.608   3.339  13.282  0.00  0.00    +0.000 OA
ATOM     21  H   UNL     1      42.772   5.476  14.132  0.00  0.00    +0.000 HD
ATOM     22  H   UNL     1      42.602   6.260  12.592  0.00  0.00    +0.000 HD
ENDBRANCH  17  19
ENDBRANCH  10  17
ENDBRANCH   8  10
ENDBRANCH   7   8
ENDBRANCH   1   7
BRANCH   4  23
ATOM     23  C   UNL     1      49.227   7.898  16.071  0.00  0.00    +0.000 C 
BRANCH  23  24
ATOM     24  N   UNL     1      50.227   6.908  16.378  0.00  0.00    +0.000 N 
ATOM     25  C   UNL     1      50.239   6.274  17.592  0.00  0.00    +0.000 C 
ATOM     26  O   UNL     1      49.399   6.509  18.456  0.00  0.00    +0.000 OA
ATOM     27  H   UNL     1      51.048   6.874  15.781  0.00  0.00    +0.000 HD
BRANCH  25  28
ATOM     28  C   UNL     1      51.265   5.242  17.782  0.00  0.00    +0.000 A 
ATOM     29  C   UNL     1      52.533   5.610  18.213  0.00  0.00    +0.000 A 
ATOM     30  S   UNL     1      53.581   4.289  18.462  0.00  0.00    +0.000 S 
ATOM     31  C   UNL     1      52.395   3.182  17.949  0.00  0.00    +0.000 A 
ATOM     32  N   UNL     1      52.657   1.848  17.906  0.00  0.00    +0.000 NA
ATOM     33  C   UNL     1      51.681   1.127  17.463  0.00  0.00    +0.000 A 
ATOM     34  N   UNL     1      50.465   1.619  17.065  0.00  0.00    +0.000 N 
ATOM     35  C   UNL     1      50.145   2.955  17.119  0.00  0.00    +0.000 A 
ATOM     36  O   UNL     1      49.035   3.358  16.789  0.00  0.00    +0.000 OA
ATOM     37  C   UNL     1      51.212   3.811  17.603  0.00  0.00    +0.000 A 
ATOM     38  H   UNL     1      49.742   1.000  16.730  0.00  0.00    +0.000 HD
ENDBRANCH  25  28
ENDBRANCH  23  24
ENDBRANCH   4  23
TORSDOF 9
ENDMDL
MODEL 2
REMARK VINA RESULT:    -7.725      2.282      2.598
REMARK INTER + INTRA:         -13.486
REMARK INTER:                 -11.876
REMARK INTRA:                  -1.610
REMARK UNBOUND:                -1.697
REMARK  Name = 
REMARK  9 active torsions:
REMARK  status: ('A' for Active; 'I' for Inactive)
REMARK    1  A    between atoms: C_2  and  C_4
REMARK    2  A    between atoms: C_4  and  C_5
REMARK    3  A    between atoms: C_5  and  N_6
REMARK    4  A    between atoms: C_5  and  C_28
REMARK    5  A    between atoms: N_6  and  C_7
REMARK    6  A    between atoms: C_7  and  C_8
REMARK    7  A    between atoms: C_11  and  C_12
REMARK    8  A    between atoms: C_12  and  N_13
REMARK    9  A    between atoms: C_14  and  C_16
REMARK                            x       y       z     vdW  Elec       q    Type
REMARK                         _______ _______ _______ _____ _____    ______ ____
ROOT
ATOM      1  C   UNL     1      46.007   7.100  11.761  0.00  0.00    +0.000 A 
ATOM      2  C   UNL     1      47.293   6.551  11.755  0.00  0.00    +0.000 A 
ATOM      3  C   UNL     1      48.295   7.082  12.571  0.00  0.00    +0.000 A 
ATOM      4  C   UNL     1      48.029   8.174  13.407  0.00  0.00    +0.000 A 
ATOM      5  C   UNL     1      46.751   8.745  13.392  0.00  0.00    +0.000 A 
ATOM      6  C   UNL     1      45.749   8.208  12.582  0.00  0.00    +0.000 A 
ENDROOT
BRANCH   1   7
ATOM      7  C   UNL     1      44.929   6.608  10.822  0.00  0.00    +0.000 C 
BRANCH   7   8
ATOM      8  N   UNL     1      45.428   5.750   9.742  0.00  0.00    +0.000 NA
ATOM      9  H   UNL     1      45.243   6.194   8.847  0.00  0.00    +0.000 HD
BRANCH   8  10
ATOM     10  C   UNL     1      44.839   4.386   9.755  0.00  0.00    +0.000 C 
BRANCH  10  11
ATOM     11  C   UNL     1      45.526   3.481   8.738  0.00  0.00    +0.000 A 
ATOM     12  C   UNL     1      46.220   4.047   7.656  0.00  0.00    +0.000 A 
ATOM     13  C   UNL     1      46.933   3.242   6.766  0.00  0.00    +0.000 A 
ATOM     14  C   UNL     1      46.973   1.861   6.951  0.00  0.00    +0.000 A 
ATOM     15  C   UNL     1      46.288   1.285   8.016  0.00  0.00    +0.000 A 
ATOM     16  C   UNL     1      45.563   2.088   8.899  0.00  0.00    +0.000 A 
ENDBRANCH  10  11
BRANCH  10  17
ATOM     17  C   UNL     1      44.733   3.813  11.183  0.00  0.00    +0.000 C 
BRANCH  17  19
ATOM     18  N   UNL     1      42.472   4.430  11.870  0.00  0.00    +0.000 N 
ATOM     19  C   UNL     1      43.321   3.415  11.551  0.00  0.00    +0.000 C 
ATOM     20  O   UNL     1      42.948   2.248  11.595  0.00  0.00    +0.000 OA
ATOM     21  H   UNL     1      41.535   4.168  12.150  0.00  0.00    +0.000 HD
ATOM     22  H   UNL     1      42.776   5.378  12.037  0.00  0.00    +0.000 HD
ENDBRANCH  17  19
ENDBRANCH  10  17
ENDBRANCH   8  10
ENDBRANCH   7   8
ENDBRANCH   1   7
BRANCH   4  23
ATOM     23  C   UNL     1      49.110   8.768  14.267  0.00  0.00    +0.000 C 
BRANCH  23  24
ATOM     24  N   UNL     1      49.303   7.989  15.463  0.00  0.00    +0.000 N 
ATOM     25  C   UNL     1      48.669   8.324  16.630  0.00  0.00    +0.000 C 
ATOM     26  O   UNL     1      47.906   9.284  16.703  0.00  0.00    +0.000 OA
ATOM     27  H   UNL     1      50.094   7.352  15.481  0.00  0.00    +0.000 HD
BRANCH  25  28
ATOM     28  C   UNL     1      48.890   7.433  17.775  0.00  0.00    +0.000 A 
ATOM     29  C   UNL     1      49.278   7.972  18.994  0.00  0.00    +0.000 A 
ATOM     30  S   UNL     1      49.414   6.816  20.240  0.00  0.00    +0.000 S 
ATOM     31  C   UNL     1      49.012   5.548  19.180  0.00  0.00    +0.000 A 
ATOM     32  N   UNL     1      48.963   4.260  19.619  0.00  0.00    +0.000 NA
ATOM     33  C   UNL     1      48.681   3.396  18.702  0.00  0.00    +0.000 A 
ATOM     34  N   UNL     1      48.439   3.701  17.388  0.00  0.00    +0.000 N 
ATOM     35  C   UNL     1      48.448   4.989  16.906  0.00  0.00    +0.000 A 
ATOM     36  O   UNL     1      48.191   5.232  15.732  0.00  0.00    +0.000 OA
ATOM     37  C   UNL     1      48.767   6.001  17.896  0.00  0.00    +0.000 A 
ATOM     38  H   UNL     1      48.222   2.976  16.720  0.00  0.00    +0.000 HD
ENDBRANCH  25  28
ENDBRANCH  23  24
ENDBRANCH   4  23
TORSDOF 9
ENDMDL
MODEL 3
REMARK VINA RESULT:    -7.584      2.161      2.569
REMARK INTER + INTRA:         -13.271
REMARK INTER:                 -11.785
REMARK INTRA:                  -1.487
REMARK UNBOUND:                -1.697
REMARK  Name = 
REMARK  9 active torsions:
REMARK  status: ('A' for Active; 'I' for Inactive)
REMARK    1  A    between atoms: C_2  and  C_4
REMARK    2  A    between atoms: C_4  and  C_5
REMARK    3  A    between atoms: C_5  and  N_6
REMARK    4  A    between atoms: C_5  and  C_28
REMARK    5  A    between atoms: N_6  and  C_7
REMARK    6  A    between atoms: C_7  and  C_8
REMARK    7  A    between atoms: C_11  and  C_12
REMARK    8  A    between atoms: C_12  and  N_13
REMARK    9  A    between atoms: C_14  and  C_16
REMARK                            x       y       z     vdW  Elec       q    Type
REMARK                         _______ _______ _______ _____ _____    ______ ____
ROOT
ATOM      1  C   UNL     1      47.286   6.735  12.111  0.00  0.00    +0.000 A 
ATOM      2  C   UNL     1      48.290   7.598  11.662  0.00  0.00    +0.000 A 
ATOM      3  C   UNL     1      49.374   7.915  12.485  0.00  0.00    +0.000 A 
ATOM      4  C   UNL     1      49.471   7.376  13.775  0.00  0.00    +0.000 A 
ATOM      5  C   UNL     1      48.451   6.536  14.238  0.00  0.00    +0.000 A 
ATOM      6  C   UNL     1      47.374   6.215  13.411  0.00  0.00    +0.000 A 
ENDROOT
BRANCH   1   7
ATOM      7  C   UNL     1      46.056   6.448  11.280  0.00  0.00    +0.000 C 
BRANCH   7   8
ATOM      8  N   UNL     1      45.513   5.099  11.471  0.00  0.00    +0.000 NA
ATOM      9  H   UNL     1      46.273   4.426  11.470  0.00  0.00    +0.000 HD
BRANCH   8  10
ATOM     10  C   UNL     1      44.509   4.719  10.443  0.00  0.00    +0.000 C 
BRANCH  10  11
ATOM     11  C   UNL     1      45.133   3.843   9.363  0.00  0.00    +0.000 A 
ATOM     12  C   UNL     1      45.837   4.436   8.302  0.00  0.00    +0.000 A 
ATOM     13  C   UNL     1      46.494   3.650   7.354  0.00  0.00    +0.000 A 
ATOM     14  C   UNL     1      46.470   2.260   7.459  0.00  0.00    +0.000 A 
ATOM     15  C   UNL     1      45.774   1.658   8.503  0.00  0.00    +0.000 A 
ATOM     16  C   UNL     1      45.104   2.442   9.443  0.00  0.00    +0.000 A 
ENDBRANCH  10  11
BRANCH  10  17
ATOM     17  C   UNL     1      43.212   4.169  11.071  0.00  0.00    +0.000 C 
BRANCH  17  19
ATOM     18  N   UNL     1      42.775   5.473  13.090  0.00  0.00    +0.000 N 
ATOM     19  C   UNL     1      43.198   4.284  12.579  0.00  0.00    +0.000 C 
ATOM     20  O   UNL     1      43.571   3.381  13.320  0.00  0.00    +0.000 OA
ATOM     21  H   UNL     1      42.795   5.568  14.097  0.00  0.00    +0.000 HD
ATOM     22  H   UNL     1      42.645   6.304  12.531  0.00  0.00    +0.000 HD
ENDBRANCH  17  19
ENDBRANCH  10  17
ENDBRANCH   8  10
ENDBRANCH   7   8
ENDBRANCH   1   7
BRANCH   4  23
ATOM     23  C   UNL     1      50.620   7.734  14.676  0.00  0.00    +0.000 C 
BRANCH  23  24
ATOM     24  N   UNL     1      50.212   7.732  16.057  0.00  0.00    +0.000 N 
ATOM     25  C   UNL     1      50.715   6.810  16.937  0.00  0.00    +0.000 C 
ATOM     26  O   UNL     1      51.537   5.964  16.593  0.00  0.00    +0.000 OA
ATOM     27  H   UNL     1      49.378   8.258  16.298  0.00  0.00    +0.000 HD
BRANCH  25  28
ATOM     28  C   UNL     1      50.280   6.930  18.333  0.00  0.00    +0.000 A 
ATOM     29  C   UNL     1      50.460   8.134  19.003  0.00  0.00    +0.000 A 
ATOM     30  S   UNL     1      49.830   8.136  20.586  0.00  0.00    +0.000 S 
ATOM     31  C   UNL     1      49.343   6.511  20.452  0.00  0.00    +0.000 A 
ATOM     32  N   UNL     1      48.736   5.876  21.491  0.00  0.00    +0.000 NA
ATOM     33  C   UNL     1      48.453   4.636  21.266  0.00  0.00    +0.000 A 
ATOM     34  N   UNL     1      48.718   3.975  20.095  0.00  0.00    +0.000 N 
ATOM     35  C   UNL     1      49.303   4.583  19.009  0.00  0.00    +0.000 A 
ATOM     36  O   UNL     1      49.494   3.972  17.963  0.00  0.00    +0.000 OA
ATOM     37  C   UNL     1      49.648   5.978  19.213  0.00  0.00    +0.000 A 
ATOM     38  H   UNL     1      48.469   3.003  19.982  0.00  0.00    +0.000 HD
ENDBRANCH  25  28
ENDBRANCH  23  24
ENDBRANCH   4  23
TORSDOF 9
ENDMDL
MODEL 4
REMARK VINA RESULT:    -7.331      2.691      3.762
REMARK INTER + INTRA:         -12.885
REMARK INTER:                 -11.740
REMARK INTRA:                  -1.145
REMARK UNBOUND:                -1.697
REMARK  Name = 
REMARK  9 active torsions:
REMARK  status: ('A' for Active; 'I' for Inactive)
REMARK    1  A    between atoms: C_2  and  C_4
REMARK    2  A    between atoms: C_4  and  C_5
REMARK    3  A    between atoms: C_5  and  N_6
REMARK    4  A    between atoms: C_5  and  C_28
REMARK    5  A    between atoms: N_6  and  C_7
REMARK    6  A    between atoms: C_7  and  C_8
REMARK    7  A    between atoms: C_11  and  C_12
REMARK    8  A    between atoms: C_12  and  N_13
REMARK    9  A    between atoms: C_14  and  C_16
REMARK                            x       y       z     vdW  Elec       q    Type
REMARK                         _______ _______ _______ _____ _____    ______ ____
ROOT
ATOM      1  C   UNL     1      45.851   6.789  11.885  0.00  0.00    +0.000 A 
ATOM      2  C   UNL     1      46.863   5.935  12.336  0.00  0.00    +0.000 A 
ATOM      3  C   UNL     1      47.774   6.366  13.305  0.00  0.00    +0.000 A 
ATOM      4  C   UNL     1      47.691   7.659  13.837  0.00  0.00    +0.000 A 
ATOM      5  C   UNL     1      46.699   8.525  13.364  0.00  0.00    +0.000 A 
ATOM      6  C   UNL     1      45.785   8.092  12.403  0.00  0.00    +0.000 A 
ENDROOT
BRANCH   1   7
ATOM      7  C   UNL     1      44.910   6.386  10.773  0.00  0.00    +0.000 C 
BRANCH   7   8
ATOM      8  N   UNL     1      45.522   5.518   9.762  0.00  0.00    +0.000 NA
ATOM      9  H   UNL     1      45.454   5.961   8.850  0.00  0.00    +0.000 HD
BRANCH   8  10
ATOM     10  C   UNL     1      44.913   4.163   9.705  0.00  0.00    +0.000 C 
BRANCH  10  11
ATOM     11  C   UNL     1      45.604   3.294   8.660  0.00  0.00    +0.000 A 
ATOM     12  C   UNL     1      46.274   3.896   7.582  0.00  0.00    +0.000 A 
ATOM     13  C   UNL     1      46.990   3.124   6.666  0.00  0.00    +0.000 A 
ATOM     14  C   UNL     1      47.059   1.740   6.820  0.00  0.00    +0.000 A 
ATOM     15  C   UNL     1      46.398   1.129   7.880  0.00  0.00    +0.000 A 
ATOM     16  C   UNL     1      45.669   1.898   8.789  0.00  0.00    +0.000 A 
ENDBRANCH  10  11
BRANCH  10  17
ATOM     17  C   UNL     1      44.775   3.529  11.104  0.00  0.00    +0.000 C 
BRANCH  17  19
ATOM     18  N   UNL     1      42.558   4.273  11.811  0.00  0.00    +0.000 N 
ATOM     19  C   UNL     1      43.340   3.214  11.464  0.00  0.00    +0.000 C 
ATOM     20  O   UNL     1      42.892   2.073  11.480  0.00  0.00    +0.000 OA
ATOM     21  H   UNL     1      41.607   4.066  12.086  0.00  0.00    +0.000 HD
ATOM     22  H   UNL     1      42.924   5.195  12.001  0.00  0.00    +0.000 HD
ENDBRANCH  17  19
ENDBRANCH  10  17
ENDBRANCH   8  10
ENDBRANCH   7   8
ENDBRANCH   1   7
BRANCH   4  23
ATOM     23  C   UNL     1      48.685   8.137  14.858  0.00  0.00    +0.000 C 
BRANCH  23  24
ATOM     24  N   UNL     1      48.400   7.580  16.156  0.00  0.00    +0.000 N 
ATOM     25  C   UNL     1      49.361   6.898  16.854  0.00  0.00    +0.000 C 
ATOM     26  O   UNL     1      50.499   6.746  16.416  0.00  0.00    +0.000 OA
ATOM     27  H   UNL     1      47.424   7.493  16.421  0.00  0.00    +0.000 HD
BRANCH  25  28
ATOM     28  C   UNL     1      48.986   6.420  18.190  0.00  0.00    +0.000 A 
ATOM     29  C   UNL     1      49.223   5.096  18.533  0.00  0.00    +0.000 A 
ATOM     30  S   UNL     1      48.805   4.721  20.142  0.00  0.00    +0.000 S 
ATOM     31  C   UNL     1      48.242   6.301  20.421  0.00  0.00    +0.000 A 
ATOM     32  N   UNL     1      47.722   6.655  21.628  0.00  0.00    +0.000 NA
ATOM     33  C   UNL     1      47.299   7.874  21.689  0.00  0.00    +0.000 A 
ATOM     34  N   UNL     1      47.352   8.772  20.656  0.00  0.00    +0.000 N 
ATOM     35  C   UNL     1      47.895   8.469  19.429  0.00  0.00    +0.000 A 
ATOM     36  O   UNL     1      47.961   9.308  18.537  0.00  0.00    +0.000 OA
ATOM     37  C   UNL     1      48.379   7.107  19.304  0.00  0.00    +0.000 A 
ATOM     38  H   UNL     1      47.005   9.713  20.770  0.00  0.00    +0.000 HD
ENDBRANCH  25  28
ENDBRANCH  23  24
ENDBRANCH   4  23
TORSDOF 9
ENDMDL
MODEL 5
REMARK VINA RESULT:    -7.096      3.291      8.490
REMARK INTER + INTRA:         -12.526
REMARK INTER:                 -10.365
REMARK INTRA:                  -2.161
REMARK UNBOUND:                -1.697
REMARK  Name = 
REMARK  9 active torsions:
REMARK  status: ('A' for Active; 'I' for Inactive)
REMARK    1  A    between atoms: C_2  and  C_4
REMARK    2  A    between atoms: C_4  and  C_5
REMARK    3  A    between atoms: C_5  and  N_6
REMARK    4  A    between atoms: C_5  and  C_28
REMARK    5  A    between atoms: N_6  and  C_7
REMARK    6  A    between atoms: C_7  and  C_8
REMARK    7  A    between atoms: C_11  and  C_12
REMARK    8  A    between atoms: C_12  and  N_13
REMARK    9  A    between atoms: C_14  and  C_16
REMARK                            x       y       z     vdW  Elec       q    Type
REMARK                         _______ _______ _______ _____ _____    ______ ____
ROOT
ATOM      1  C   UNL     1      49.519   8.382  15.770  0.00  0.00    +0.000 A 
ATOM      2  C   UNL     1      49.877   7.312  14.943  0.00  0.00    +0.000 A 
ATOM      3  C   UNL     1      49.317   7.182  13.669  0.00  0.00    +0.000 A 
ATOM      4  C   UNL     1      48.388   8.119  13.200  0.00  0.00    +0.000 A 
ATOM      5  C   UNL     1      48.005   9.174  14.037  0.00  0.00    +0.000 A 
ATOM      6  C   UNL     1      48.570   9.306  15.306  0.00  0.00    +0.000 A 
ENDROOT
BRANCH   1   7
ATOM      7  C   UNL     1      50.034   8.498  17.186  0.00  0.00    +0.000 C 
BRANCH   7   8
ATOM      8  N   UNL     1      49.900   7.265  17.970  0.00  0.00    +0.000 NA
ATOM      9  H   UNL     1      50.599   6.594  17.665  0.00  0.00    +0.000 HD
BRANCH   8  10
ATOM     10  C   UNL     1      48.548   6.654  17.877  0.00  0.00    +0.000 C 
BRANCH  10  11
ATOM     11  C   UNL     1      48.639   5.159  17.594  0.00  0.00    +0.000 A 
ATOM     12  C   UNL     1      47.545   4.488  17.024  0.00  0.00    +0.000 A 
ATOM     13  C   UNL     1      47.638   3.140  16.672  0.00  0.00    +0.000 A 
ATOM     14  C   UNL     1      48.830   2.446  16.873  0.00  0.00    +0.000 A 
ATOM     15  C   UNL     1      49.922   3.096  17.439  0.00  0.00    +0.000 A 
ATOM     16  C   UNL     1      49.826   4.440  17.805  0.00  0.00    +0.000 A 
ENDBRANCH  10  11
BRANCH  10  17
ATOM     17  C   UNL     1      47.649   7.047  19.067  0.00  0.00    +0.000 C 
BRANCH  17  19
ATOM     18  N   UNL     1      47.233   5.505  20.915  0.00  0.00    +0.000 N 
ATOM     19  C   UNL     1      48.088   6.411  20.366  0.00  0.00    +0.000 C 
ATOM     20  O   UNL     1      49.138   6.701  20.930  0.00  0.00    +0.000 OA
ATOM     21  H   UNL     1      47.505   5.100  21.801  0.00  0.00    +0.000 HD
ATOM     22  H   UNL     1      46.282   5.376  20.599  0.00  0.00    +0.000 HD
ENDBRANCH  17  19
ENDBRANCH  10  17
ENDBRANCH   8  10
ENDBRANCH   7   8
ENDBRANCH   1   7
BRANCH   4  23
ATOM     23  C   UNL     1      47.762   7.971  11.841  0.00  0.00    +0.000 C 
BRANCH  23  24
ATOM     24  N   UNL     1      47.056   6.720  11.732  0.00  0.00    +0.000 N 
ATOM     25  C   UNL     1      45.702   6.658  11.925  0.00  0.00    +0.000 C 
ATOM     26  O   UNL     1      45.035   7.657  12.183  0.00  0.00    +0.000 OA
ATOM     27  H   UNL     1      47.610   5.869  11.753  0.00  0.00    +0.000 HD
BRANCH  25  28
ATOM     28  C   UNL     1      45.072   5.347  11.734  0.00  0.00    +0.000 A 
ATOM     29  C   UNL     1      44.424   4.739  12.802  0.00  0.00    +0.000 A 
ATOM     30  S   UNL     1      43.677   3.261  12.397  0.00  0.00    +0.000 S 
ATOM     31  C   UNL     1      44.240   3.354  10.794  0.00  0.00    +0.000 A 
ATOM     32  N   UNL     1      43.960   2.370   9.897  0.00  0.00    +0.000 NA
ATOM     33  C   UNL     1      44.479   2.550   8.729  0.00  0.00    +0.000 A 
ATOM     34  N   UNL     1      45.249   3.627   8.374  0.00  0.00    +0.000 N 
ATOM     35  C   UNL     1      45.533   4.659   9.237  0.00  0.00    +0.000 A 
ATOM     36  O   UNL     1      46.196   5.627   8.877  0.00  0.00    +0.000 OA
ATOM     37  C   UNL     1      44.979   4.502  10.568  0.00  0.00    +0.000 A 
ATOM     38  H   UNL     1      45.625   3.709   7.441  0.00  0.00    +0.000 HD
ENDBRANCH  25  28
ENDBRANCH  23  24
ENDBRANCH   4  23
TORSDOF 9
ENDMDL
MODEL 6
REMARK VINA RESULT:    -7.051      3.179      8.954
REMARK INTER + INTRA:         -12.458
REMARK INTER:                 -10.985
REMARK INTRA:                  -1.473
REMARK UNBOUND:                -1.697
REMARK  Name = 
REMARK  9 active torsions:
REMARK  status: ('A' for Active; 'I' for Inactive)
REMARK    1  A    between atoms: C_2  and  C_4
REMARK    2  A    between atoms: C_4  and  C_5
REMARK    3  A    between atoms: C_5  and  N_6
REMARK    4  A    between atoms: C_5  and  C_28
REMARK    5  A    between atoms: N_6  and  C_7
REMARK    6  A    between atoms: C_7  and  C_8
REMARK    7  A    between atoms: C_11  and  C_12
REMARK    8  A    between atoms: C_12  and  N_13
REMARK    9  A    between atoms: C_14  and  C_16
REMARK                            x       y       z     vdW  Elec       q    Type
REMARK                         _______ _______ _______ _____ _____    ______ ____
ROOT
ATOM      1  C   UNL     1      49.942   6.870  16.107  0.00  0.00    +0.000 A 
ATOM      2  C   UNL     1      50.640   7.781  15.308  0.00  0.00    +0.000 A 
ATOM      3  C   UNL     1      50.161   8.126  14.041  0.00  0.00    +0.000 A 
ATOM      4  C   UNL     1      48.977   7.563  13.549  0.00  0.00    +0.000 A 
ATOM      5  C   UNL     1      48.292   6.628  14.334  0.00  0.00    +0.000 A 
ATOM      6  C   UNL     1      48.768   6.291  15.602  0.00  0.00    +0.000 A 
ENDROOT
BRANCH   1   7
ATOM      7  C   UNL     1      50.482   6.407  17.440  0.00  0.00    +0.000 C 
BRANCH   7   8
ATOM      8  N   UNL     1      50.820   4.980  17.481  0.00  0.00    +0.000 NA
ATOM      9  H   UNL     1      50.761   4.593  16.543  0.00  0.00    +0.000 HD
BRANCH   8  10
ATOM     10  C   UNL     1      49.953   4.197  18.400  0.00  0.00    +0.000 C 
BRANCH  10  11
ATOM     11  C   UNL     1      49.213   5.113  19.369  0.00  0.00    +0.000 A 
ATOM     12  C   UNL     1      47.879   5.469  19.113  0.00  0.00    +0.000 A 
ATOM     13  C   UNL     1      47.154   6.229  20.033  0.00  0.00    +0.000 A 
ATOM     14  C   UNL     1      47.748   6.635  21.227  0.00  0.00    +0.000 A 
ATOM     15  C   UNL     1      49.070   6.292  21.493  0.00  0.00    +0.000 A 
ATOM     16  C   UNL     1      49.800   5.544  20.569  0.00  0.00    +0.000 A 
ENDBRANCH  10  11
BRANCH  10  17
ATOM     17  C   UNL     1      49.068   3.185  17.644  0.00  0.00    +0.000 C 
BRANCH  17  19
ATOM     18  N   UNL     1      50.975   1.659  17.612  0.00  0.00    +0.000 N 
ATOM     19  C   UNL     1      49.872   2.108  16.952  0.00  0.00    +0.000 C 
ATOM     20  O   UNL     1      49.584   1.668  15.844  0.00  0.00    +0.000 OA
ATOM     21  H   UNL     1      51.537   0.962  17.140  0.00  0.00    +0.000 HD
ATOM     22  H   UNL     1      51.362   2.118  18.424  0.00  0.00    +0.000 HD
ENDBRANCH  17  19
ENDBRANCH  10  17
ENDBRANCH   8  10
ENDBRANCH   7   8
ENDBRANCH   1   7
BRANCH   4  23
ATOM     23  C   UNL     1      48.471   7.909  12.176  0.00  0.00    +0.000 C 
BRANCH  23  24
ATOM     24  N   UNL     1      47.721   6.816  11.612  0.00  0.00    +0.000 N 
ATOM     25  C   UNL     1      46.360   6.894  11.475  0.00  0.00    +0.000 C 
ATOM     26  O   UNL     1      45.729   7.894  11.811  0.00  0.00    +0.000 OA
ATOM     27  H   UNL     1      48.185   5.916  11.551  0.00  0.00    +0.000 HD
BRANCH  25  28
ATOM     28  C   UNL     1      45.699   5.751  10.836  0.00  0.00    +0.000 A 
ATOM     29  C   UNL     1      45.827   5.567   9.466  0.00  0.00    +0.000 A 
ATOM     30  S   UNL     1      45.068   4.152   8.892  0.00  0.00    +0.000 S 
ATOM     31  C   UNL     1      44.496   3.764  10.446  0.00  0.00    +0.000 A 
ATOM     32  N   UNL     1      43.741   2.651  10.655  0.00  0.00    +0.000 NA
ATOM     33  C   UNL     1      43.344   2.498  11.874  0.00  0.00    +0.000 A 
ATOM     34  N   UNL     1      43.637   3.353  12.904  0.00  0.00    +0.000 N 
ATOM     35  C   UNL     1      44.420   4.472  12.747  0.00  0.00    +0.000 A 
ATOM     36  O   UNL     1      44.693   5.197  13.698  0.00  0.00    +0.000 OA
ATOM     37  C   UNL     1      44.887   4.696  11.392  0.00  0.00    +0.000 A 
ATOM     38  H   UNL     1      43.296   3.174  13.837  0.00  0.00    +0.000 HD
ENDBRANCH  25  28
ENDBRANCH  23  24
ENDBRANCH   4  23
TORSDOF 9
ENDMDL
MODEL 7
REMARK VINA RESULT:    -7.041      3.432      8.199
REMARK INTER + INTRA:         -12.442
REMARK INTER:                 -10.320
REMARK INTRA:                  -2.122
REMARK UNBOUND:                -1.697
REMARK  Name = 
REMARK  9 active torsions:
REMARK  status: ('A' for Active; 'I' for Inactive)
REMARK    1  A    between atoms: C_2  and  C_4
REMARK    2  A    between atoms: C_4  and  C_5
REMARK    3  A    between atoms: C_5  and  N_6
REMARK    4  A    between atoms: C_5  and  C_28
REMARK    5  A    between atoms: N_6  and  C_7
REMARK    6  A    between atoms: C_7  and  C_8
REMARK    7  A    between atoms: C_11  and  C_12
REMARK    8  A    between atoms: C_12  and  N_13
REMARK    9  A    between atoms: C_14  and  C_16
REMARK                            x       y       z     vdW  Elec       q    Type
REMARK                         _______ _______ _______ _____ _____    ______ ____
ROOT
ATOM      1  C   UNL     1      49.926   7.006  17.411  0.00  0.00    +0.000 A 
ATOM      2  C   UNL     1      50.440   6.787  16.129  0.00  0.00    +0.000 A 
ATOM      3  C   UNL     1      49.871   7.417  15.020  0.00  0.00    +0.000 A 
ATOM      4  C   UNL     1      48.775   8.276  15.172  0.00  0.00    +0.000 A 
ATOM      5  C   UNL     1      48.239   8.473  16.450  0.00  0.00    +0.000 A 
ATOM      6  C   UNL     1      48.814   7.849  17.559  0.00  0.00    +0.000 A 
ENDROOT
BRANCH   1   7
ATOM      7  C   UNL     1      50.460   6.268  18.617  0.00  0.00    +0.000 C 
BRANCH   7   8
ATOM      8  N   UNL     1      49.825   4.965  18.845  0.00  0.00    +0.000 NA
ATOM      9  H   UNL     1      50.252   4.517  19.650  0.00  0.00    +0.000 HD
BRANCH   8  10
ATOM     10  C   UNL     1      49.906   4.059  17.669  0.00  0.00    +0.000 C 
BRANCH  10  11
ATOM     11  C   UNL     1      51.091   3.108  17.789  0.00  0.00    +0.000 A 
ATOM     12  C   UNL     1      50.949   1.764  17.407  0.00  0.00    +0.000 A 
ATOM     13  C   UNL     1      52.044   0.898  17.422  0.00  0.00    +0.000 A 
ATOM     14  C   UNL     1      53.300   1.366  17.806  0.00  0.00    +0.000 A 
ATOM     15  C   UNL     1      53.456   2.694  18.190  0.00  0.00    +0.000 A 
ATOM     16  C   UNL     1      52.359   3.557  18.190  0.00  0.00    +0.000 A 
ENDBRANCH  10  11
BRANCH  10  17
ATOM     17  C   UNL     1      48.552   3.390  17.357  0.00  0.00    +0.000 C 
BRANCH  17  19
ATOM     18  N   UNL     1      47.266   4.949  15.985  0.00  0.00    +0.000 N 
ATOM     19  C   UNL     1      47.425   4.387  17.215  0.00  0.00    +0.000 C 
ATOM     20  O   UNL     1      46.700   4.712  18.150  0.00  0.00    +0.000 OA
ATOM     21  H   UNL     1      46.535   5.643  15.892  0.00  0.00    +0.000 HD
ATOM     22  H   UNL     1      47.947   4.866  15.244  0.00  0.00    +0.000 HD
ENDBRANCH  17  19
ENDBRANCH  10  17
ENDBRANCH   8  10
ENDBRANCH   7   8
ENDBRANCH   1   7
BRANCH   4  23
ATOM     23  C   UNL     1      48.140   8.936  13.980  0.00  0.00    +0.000 C 
BRANCH  23  24
ATOM     24  N   UNL     1      46.952   8.232  13.572  0.00  0.00    +0.000 N 
ATOM     25  C   UNL     1      46.973   7.381  12.499  0.00  0.00    +0.000 C 
ATOM     26  O   UNL     1      47.997   7.172  11.854  0.00  0.00    +0.000 OA
ATOM     27  H   UNL     1      46.065   8.565  13.936  0.00  0.00    +0.000 HD
BRANCH  25  28
ATOM     28  C   UNL     1      45.724   6.670  12.202  0.00  0.00    +0.000 A 
ATOM     29  C   UNL     1      44.639   7.377  11.700  0.00  0.00    +0.000 A 
ATOM     30  S   UNL     1      43.294   6.396  11.333  0.00  0.00    +0.000 S 
ATOM     31  C   UNL     1      44.095   4.999  11.884  0.00  0.00    +0.000 A 
ATOM     32  N   UNL     1      43.479   3.786  11.860  0.00  0.00    +0.000 NA
ATOM     33  C   UNL     1      44.188   2.820  12.341  0.00  0.00    +0.000 A 
ATOM     34  N   UNL     1      45.458   2.955  12.838  0.00  0.00    +0.000 N 
ATOM     35  C   UNL     1      46.130   4.154  12.855  0.00  0.00    +0.000 A 
ATOM     36  O   UNL     1      47.280   4.234  13.274  0.00  0.00    +0.000 OA
ATOM     37  C   UNL     1      45.374   5.276  12.332  0.00  0.00    +0.000 A 
ATOM     38  H   UNL     1      45.960   2.156  13.199  0.00  0.00    +0.000 HD
ENDBRANCH  25  28
ENDBRANCH  23  24
ENDBRANCH   4  23
TORSDOF 9
ENDMDL
MODEL 8
REMARK VINA RESULT:    -7.040      3.590      8.528
REMARK INTER + INTRA:         -12.440
REMARK INTER:                 -10.154
REMARK INTRA:                  -2.286
REMARK UNBOUND:                -1.697
REMARK  Name = 
REMARK  9 active torsions:
REMARK  status: ('A' for Active; 'I' for Inactive)
REMARK    1  A    between atoms: C_2  and  C_4
REMARK    2  A    between atoms: C_4  and  C_5
REMARK    3  A    between atoms: C_5  and  N_6
REMARK    4  A    between atoms: C_5  and  C_28
REMARK    5  A    between atoms: N_6  and  C_7
REMARK    6  A    between atoms: C_7  and  C_8
REMARK    7  A    between atoms: C_11  and  C_12
REMARK    8  A    between atoms: C_12  and  N_13
REMARK    9  A    between atoms: C_14  and  C_16
REMARK                            x       y       z     vdW  Elec       q    Type
REMARK                         _______ _______ _______ _____ _____    ______ ____
ROOT
ATOM      1  C   UNL     1      48.816   7.849  16.209  0.00  0.00    +0.000 A 
ATOM      2  C   UNL     1      49.151   6.772  15.382  0.00  0.00    +0.000 A 
ATOM      3  C   UNL     1      48.992   6.866  13.997  0.00  0.00    +0.000 A 
ATOM      4  C   UNL     1      48.492   8.037  13.414  0.00  0.00    +0.000 A 
ATOM      5  C   UNL     1      48.126   9.105  14.242  0.00  0.00    +0.000 A 
ATOM      6  C   UNL     1      48.293   9.013  15.624  0.00  0.00    +0.000 A 
ENDROOT
BRANCH   1   7
ATOM      7  C   UNL     1      48.888   7.746  17.715  0.00  0.00    +0.000 C 
BRANCH   7   8
ATOM      8  N   UNL     1      47.692   7.158  18.328  0.00  0.00    +0.000 NA
ATOM      9  H   UNL     1      47.204   7.869  18.865  0.00  0.00    +0.000 HD
BRANCH   8  10
ATOM     10  C   UNL     1      47.991   5.992  19.200  0.00  0.00    +0.000 C 
BRANCH  10  11
ATOM     11  C   UNL     1      48.262   4.742  18.371  0.00  0.00    +0.000 A 
ATOM     12  C   UNL     1      47.269   4.246  17.510  0.00  0.00    +0.000 A 
ATOM     13  C   UNL     1      47.527   3.158  16.674  0.00  0.00    +0.000 A 
ATOM     14  C   UNL     1      48.786   2.558  16.676  0.00  0.00    +0.000 A 
ATOM     15  C   UNL     1      49.778   3.036  17.525  0.00  0.00    +0.000 A 
ATOM     16  C   UNL     1      49.517   4.114  18.372  0.00  0.00    +0.000 A 
ENDBRANCH  10  11
BRANCH  10  17
ATOM     17  C   UNL     1      49.058   6.321  20.265  0.00  0.00    +0.000 C 
BRANCH  17  19
ATOM     18  N   UNL     1      47.244   7.339  21.546  0.00  0.00    +0.000 N 
ATOM     19  C   UNL     1      48.579   7.336  21.278  0.00  0.00    +0.000 C 
ATOM     20  O   UNL     1      49.328   8.142  21.819  0.00  0.00    +0.000 OA
ATOM     21  H   UNL     1      46.912   8.038  22.198  0.00  0.00    +0.000 HD
ATOM     22  H   UNL     1      46.565   6.837  20.992  0.00  0.00    +0.000 HD
ENDBRANCH  17  19
ENDBRANCH  10  17
ENDBRANCH   8  10
ENDBRANCH   7   8
ENDBRANCH   1   7
BRANCH   4  23
ATOM     23  C   UNL     1      48.292   8.134  11.927  0.00  0.00    +0.000 C 
BRANCH  23  24
ATOM     24  N   UNL     1      47.596   6.979  11.423  0.00  0.00    +0.000 N 
ATOM     25  C   UNL     1      46.228   6.952  11.368  0.00  0.00    +0.000 C 
ATOM     26  O   UNL     1      45.543   7.906  11.727  0.00  0.00    +0.000 OA
ATOM     27  H   UNL     1      48.123   6.114  11.346  0.00  0.00    +0.000 HD
BRANCH  25  28
ATOM     28  C   UNL     1      45.619   5.750  10.784  0.00  0.00    +0.000 A 
ATOM     29  C   UNL     1      45.788   5.488   9.431  0.00  0.00    +0.000 A 
ATOM     30  S   UNL     1      45.089   4.017   8.927  0.00  0.00    +0.000 S 
ATOM     31  C   UNL     1      44.488   3.707  10.488  0.00  0.00    +0.000 A 
ATOM     32  N   UNL     1      43.761   2.585  10.746  0.00  0.00    +0.000 NA
ATOM     33  C   UNL     1      43.336   2.494  11.962  0.00  0.00    +0.000 A 
ATOM     34  N   UNL     1      43.575   3.419  12.944  0.00  0.00    +0.000 N 
ATOM     35  C   UNL     1      44.328   4.551  12.738  0.00  0.00    +0.000 A 
ATOM     36  O   UNL     1      44.553   5.341  13.649  0.00  0.00    +0.000 OA
ATOM     37  C   UNL     1      44.824   4.706  11.383  0.00  0.00    +0.000 A 
ATOM     38  H   UNL     1      43.215   3.287  13.878  0.00  0.00    +0.000 HD
ENDBRANCH  25  28
ENDBRANCH  23  24
ENDBRANCH   4  23
TORSDOF 9
ENDMDL
MODEL 9
REMARK VINA RESULT:    -6.926      3.904      5.586
REMARK INTER + INTRA:         -12.266
REMARK INTER:                 -10.762
REMARK INTRA:                  -1.504
REMARK UNBOUND:                -1.697
REMARK  Name = 
REMARK  9 active torsions:
REMARK  status: ('A' for Active; 'I' for Inactive)
REMARK    1  A    between atoms: C_2  and  C_4
REMARK    2  A    between atoms: C_4  and  C_5
REMARK    3  A    between atoms: C_5  and  N_6
REMARK    4  A    between atoms: C_5  and  C_28
REMARK    5  A    between atoms: N_6  and  C_7
REMARK    6  A    between atoms: C_7  and  C_8
REMARK    7  A    between atoms: C_11  and  C_12
REMARK    8  A    between atoms: C_12  and  N_13
REMARK    9  A    between atoms: C_14  and  C_16
REMARK                            x       y       z     vdW  Elec       q    Type
REMARK                         _______ _______ _______ _____ _____    ______ ____
ROOT
ATOM      1  C   UNL     1      45.054   7.204  12.202  0.00  0.00    +0.000 A 
ATOM      2  C   UNL     1      44.369   6.021  12.499  0.00  0.00    +0.000 A 
ATOM      3  C   UNL     1      44.982   5.016  13.252  0.00  0.00    +0.000 A 
ATOM      4  C   UNL     1      46.293   5.175  13.720  0.00  0.00    +0.000 A 
ATOM      5  C   UNL     1      46.991   6.345  13.398  0.00  0.00    +0.000 A 
ATOM      6  C   UNL     1      46.375   7.351  12.652  0.00  0.00    +0.000 A 
ENDROOT
BRANCH   1   7
ATOM      7  C   UNL     1      44.453   8.267  11.312  0.00  0.00    +0.000 C 
BRANCH   7   8
ATOM      8  N   UNL     1      44.186   9.536  12.000  0.00  0.00    +0.000 NA
ATOM      9  H   UNL     1      43.395   9.420  12.627  0.00  0.00    +0.000 HD
BRANCH   8  10
ATOM     10  C   UNL     1      43.924  10.664  11.069  0.00  0.00    +0.000 C 
BRANCH  10  11
ATOM     11  C   UNL     1      45.227  11.299  10.595  0.00  0.00    +0.000 A 
ATOM     12  C   UNL     1      46.395  11.152  11.361  0.00  0.00    +0.000 A 
ATOM     13  C   UNL     1      47.617  11.645  10.901  0.00  0.00    +0.000 A 
ATOM     14  C   UNL     1      47.693  12.280   9.662  0.00  0.00    +0.000 A 
ATOM     15  C   UNL     1      46.544  12.436   8.893  0.00  0.00    +0.000 A 
ATOM     16  C   UNL     1      45.319  11.956   9.358  0.00  0.00    +0.000 A 
ENDBRANCH  10  11
BRANCH  10  17
ATOM     17  C   UNL     1      42.933  10.278   9.952  0.00  0.00    +0.000 C 
BRANCH  17  19
ATOM     18  N   UNL     1      40.998   9.553  11.253  0.00  0.00    +0.000 N 
ATOM     19  C   UNL     1      41.490  10.457  10.362  0.00  0.00    +0.000 C 
ATOM     20  O   UNL     1      40.772  11.343   9.908  0.00  0.00    +0.000 OA
ATOM     21  H   UNL     1      40.023   9.647  11.507  0.00  0.00    +0.000 HD
ATOM     22  H   UNL     1      41.480   8.702  11.505  0.00  0.00    +0.000 HD
ENDBRANCH  17  19
ENDBRANCH  10  17
ENDBRANCH   8  10
ENDBRANCH   7   8
ENDBRANCH   1   7
BRANCH   4  23
ATOM     23  C   UNL     1      46.968   4.087  14.507  0.00  0.00    +0.000 C 
BRANCH  23  24
ATOM     24  N   UNL     1      47.579   4.615  15.699  0.00  0.00    +0.000 N 
ATOM     25  C   UNL     1      47.240   4.134  16.936  0.00  0.00    +0.000 C 
ATOM     26  O   UNL     1      46.420   3.231  17.079  0.00  0.00    +0.000 OA
ATOM     27  H   UNL     1      48.070   5.501  15.618  0.00  0.00    +0.000 HD
BRANCH  25  28
ATOM     28  C   UNL     1      47.963   4.700  18.081  0.00  0.00    +0.000 A 
ATOM     29  C   UNL     1      47.306   5.572  18.939  0.00  0.00    +0.000 A 
ATOM     30  S   UNL     1      48.257   6.077  20.260  0.00  0.00    +0.000 S 
ATOM     31  C   UNL     1      49.598   5.191  19.702  0.00  0.00    +0.000 A 
ATOM     32  N   UNL     1      50.777   5.205  20.382  0.00  0.00    +0.000 NA
ATOM     33  C   UNL     1      51.720   4.520  19.827  0.00  0.00    +0.000 A 
ATOM     34  N   UNL     1      51.592   3.819  18.657  0.00  0.00    +0.000 N 
ATOM     35  C   UNL     1      50.414   3.752  17.951  0.00  0.00    +0.000 A 
ATOM     36  O   UNL     1      50.322   3.085  16.926  0.00  0.00    +0.000 OA
ATOM     37  C   UNL     1      49.321   4.512  18.529  0.00  0.00    +0.000 A 
ATOM     38  H   UNL     1      52.370   3.301  18.276  0.00  0.00    +0.000 HD
ENDBRANCH  25  28
ENDBRANCH  23  24
ENDBRANCH   4  23
TORSDOF 9
ENDMDL
