MODEL 1
REMARK VINA RESULT:    -8.530      0.000      0.000
REMARK INTER + INTRA:         -11.340
REMARK INTER:                 -10.774
REMARK INTRA:                  -0.566
REMARK UNBOUND:                -0.566
REMARK  Name = 
REMARK  7 active torsions:
REMARK  status: ('A' for Active; 'I' for Inactive)
REMARK    1  A    between atoms: C_1  and  C_2
REMARK    2  A    between atoms: C_2  and  C_3
REMARK    3  A    between atoms: C_2  and  N_11
REMARK    4  A    between atoms: C_7  and  C_8
REMARK    5  A    between atoms: C_8  and  N_9
REMARK    6  A    between atoms: N_11  and  C_12
REMARK    7  A    between atoms: C_16  and  C_17
REMARK                            x       y       z     vdW  Elec       q    Type
REMARK                         _______ _______ _______ _____ _____    ______ ____
ROOT
ATOM      1  N   UNL     1      43.947   3.806  10.605  0.00  0.00    +0.000 N 
ATOM      2  C   UNL     1      43.297   2.746  11.370  0.00  0.00    +0.000 C 
ATOM      3  C   UNL     1      44.761   3.377   9.567  0.00  0.00    +0.000 A 
ATOM      4  C   UNL     1      45.423   4.250   8.705  0.00  0.00    +0.000 A 
ATOM      5  C   UNL     1      46.287   3.762   7.720  0.00  0.00    +0.000 A 
ATOM      6  C   UNL     1      46.476   2.392   7.577  0.00  0.00    +0.000 A 
ATOM      7  C   UNL     1      45.755   1.579   8.427  0.00  0.00    +0.000 A 
ATOM      8  N   UNL     1      44.921   2.041   9.395  0.00  0.00    +0.000 NA
ENDROOT
BRANCH   6   9
ATOM      9  C   UNL     1      47.435   1.894   6.560  0.00  0.00    +0.000 C 
ATOM     10  N   UNL     1      48.561   2.617   6.289  0.00  0.00    +0.000 N 
ATOM     11  O   UNL     1      47.225   0.845   5.956  0.00  0.00    +0.000 OA
ATOM     12  H   UNL     1      48.842   3.470   6.742  0.00  0.00    +0.000 HD
ATOM     13  H   UNL     1      49.178   2.238   5.582  0.00  0.00    +0.000 HD
ENDBRANCH   6   9
BRANCH   1  15
ATOM     14  C   UNL     1      42.448   5.396  11.728  0.00  0.00    +0.000 C 
ATOM     15  C   UNL     1      43.780   5.218  10.989  0.00  0.00    +0.000 C 
BRANCH  15  16
ATOM     16  C   UNL     1      45.007   5.756  11.727  0.00  0.00    +0.000 A 
ATOM     17  C   UNL     1      45.610   6.983  11.413  0.00  0.00    +0.000 A 
ATOM     18  C   UNL     1      46.653   7.487  12.190  0.00  0.00    +0.000 A 
ATOM     19  C   UNL     1      47.133   6.753  13.273  0.00  0.00    +0.000 A 
ATOM     20  C   UNL     1      46.605   5.490  13.574  0.00  0.00    +0.000 A 
ATOM     21  C   UNL     1      45.524   5.020  12.811  0.00  0.00    +0.000 A 
BRANCH  20  22
ATOM     22  C   UNL     1      47.115   4.664  14.731  0.00  0.00    +0.000 C 
BRANCH  22  23
ATOM     23  N   UNL     1      47.360   3.267  14.377  0.00  0.00    +0.000 NA
ATOM     24  H   UNL     1      48.069   3.240  13.642  0.00  0.00    +0.000 HD
ATOM     25  H   UNL     1      46.514   2.875  13.974  0.00  0.00    +0.000 HD
ENDBRANCH  22  23
ENDBRANCH  20  22
ENDBRANCH  15  16
ENDBRANCH   1  15
TORSDOF 5
ENDMDL
MODEL 2
REMARK VINA RESULT:    -7.901      1.522      2.207
REMARK INTER + INTRA:         -10.545
REMARK INTER:                 -10.034
REMARK INTRA:                  -0.511
REMARK UNBOUND:                -0.566
REMARK  Name = 
REMARK  7 active torsions:
REMARK  status: ('A' for Active; 'I' for Inactive)
REMARK    1  A    between atoms: C_1  and  C_2
REMARK    2  A    between atoms: C_2  and  C_3
REMARK    3  A    between atoms: C_2  and  N_11
REMARK    4  A    between atoms: C_7  and  C_8
REMARK    5  A    between atoms: C_8  and  N_9
REMARK    6  A    between atoms: N_11  and  C_12
REMARK    7  A    between atoms: C_16  and  C_17
REMARK                            x       y       z     vdW  Elec       q    Type
REMARK                         _______ _______ _______ _____ _____    ______ ____
ROOT
ATOM      1  N   UNL     1      43.996   3.819  10.607  0.00  0.00    +0.000 N 
ATOM      2  C   UNL     1      43.377   2.758  11.396  0.00  0.00    +0.000 C 
ATOM      3  C   UNL     1      44.803   3.391   9.564  0.00  0.00    +0.000 A 
ATOM      4  C   UNL     1      45.438   4.264   8.681  0.00  0.00    +0.000 A 
ATOM      5  C   UNL     1      46.296   3.778   7.690  0.00  0.00    +0.000 A 
ATOM      6  C   UNL     1      46.507   2.409   7.562  0.00  0.00    +0.000 A 
ATOM      7  C   UNL     1      45.813   1.595   8.434  0.00  0.00    +0.000 A 
ATOM      8  N   UNL     1      44.985   2.056   9.408  0.00  0.00    +0.000 NA
ENDROOT
BRANCH   6   9
ATOM      9  C   UNL     1      47.461   1.914   6.539  0.00  0.00    +0.000 C 
ATOM     10  N   UNL     1      48.592   2.631   6.273  0.00  0.00    +0.000 N 
ATOM     11  O   UNL     1      47.242   0.873   5.925  0.00  0.00    +0.000 OA
ATOM     12  H   UNL     1      48.880   3.477   6.734  0.00  0.00    +0.000 HD
ATOM     13  H   UNL     1      49.205   2.255   5.560  0.00  0.00    +0.000 HD
ENDBRANCH   6   9
BRANCH   1  15
ATOM     14  C   UNL     1      42.441   5.414  11.644  0.00  0.00    +0.000 C 
ATOM     15  C   UNL     1      43.810   5.233  10.975  0.00  0.00    +0.000 C 
BRANCH  15  16
ATOM     16  C   UNL     1      44.997   5.776  11.772  0.00  0.00    +0.000 A 
ATOM     17  C   UNL     1      45.820   4.963  12.567  0.00  0.00    +0.000 A 
ATOM     18  C   UNL     1      46.960   5.483  13.180  0.00  0.00    +0.000 A 
ATOM     19  C   UNL     1      47.274   6.833  13.038  0.00  0.00    +0.000 A 
ATOM     20  C   UNL     1      46.437   7.691  12.313  0.00  0.00    +0.000 A 
ATOM     21  C   UNL     1      45.321   7.143  11.662  0.00  0.00    +0.000 A 
BRANCH  20  22
ATOM     22  C   UNL     1      46.743   9.162  12.155  0.00  0.00    +0.000 C 
BRANCH  22  23
ATOM     23  N   UNL     1      45.613  10.025  12.496  0.00  0.00    +0.000 NA
ATOM     24  H   UNL     1      44.819   9.433  12.746  0.00  0.00    +0.000 HD
ATOM     25  H   UNL     1      45.334  10.546  11.669  0.00  0.00    +0.000 HD
ENDBRANCH  22  23
ENDBRANCH  20  22
ENDBRANCH  15  16
ENDBRANCH   1  15
TORSDOF 5
ENDMDL
MODEL 3
REMARK VINA RESULT:    -6.587      3.010      6.490
REMARK INTER + INTRA:          -8.885
REMARK INTER:                  -8.448
REMARK INTRA:                  -0.437
REMARK UNBOUND:                -0.566
REMARK  Name = 
REMARK  7 active torsions:
REMARK  status: ('A' for Active; 'I' for Inactive)
REMARK    1  A    between atoms: C_1  and  C_2
REMARK    2  A    between atoms: C_2  and  C_3
REMARK    3  A    between atoms: C_2  and  N_11
REMARK    4  A    between atoms: C_7  and  C_8
REMARK    5  A    between atoms: C_8  and  N_9
REMARK    6  A    between atoms: N_11  and  C_12
REMARK    7  A    between atoms: C_16  and  C_17
REMARK                            x       y       z     vdW  Elec       q    Type
REMARK                         _______ _______ _______ _____ _____    ______ ____
ROOT
ATOM      1  N   UNL     1      44.214   4.824  11.518  0.00  0.00    +0.000 N 
ATOM      2  C   UNL     1      42.930   5.424  11.166  0.00  0.00    +0.000 C 
ATOM      3  C   UNL     1      45.106   5.666  12.165  0.00  0.00    +0.000 A 
ATOM      4  C   UNL     1      46.359   5.251  12.615  0.00  0.00    +0.000 A 
ATOM      5  C   UNL     1      47.245   6.161  13.199  0.00  0.00    +0.000 A 
ATOM      6  C   UNL     1      46.872   7.491  13.357  0.00  0.00    +0.000 A 
ATOM      7  C   UNL     1      45.602   7.830  12.937  0.00  0.00    +0.000 A 
ATOM      8  N   UNL     1      44.736   6.957  12.359  0.00  0.00    +0.000 NA
ENDROOT
BRANCH   6   9
ATOM      9  C   UNL     1      47.845   8.455  13.931  0.00  0.00    +0.000 C 
ATOM     10  N   UNL     1      47.552   9.081  15.108  0.00  0.00    +0.000 N 
ATOM     11  O   UNL     1      48.902   8.700  13.357  0.00  0.00    +0.000 OA
ATOM     12  H   UNL     1      46.732   8.935  15.671  0.00  0.00    +0.000 HD
ATOM     13  H   UNL     1      48.244   9.736  15.452  0.00  0.00    +0.000 HD
ENDBRANCH   6   9
BRANCH   1  15
ATOM     14  C   UNL     1      43.288   2.557  11.329  0.00  0.00    +0.000 C 
ATOM     15  C   UNL     1      44.526   3.439  11.128  0.00  0.00    +0.000 C 
BRANCH  15  16
ATOM     16  C   UNL     1      45.153   3.367   9.735  0.00  0.00    +0.000 A 
ATOM     17  C   UNL     1      45.369   4.499   8.934  0.00  0.00    +0.000 A 
ATOM     18  C   UNL     1      46.051   4.398   7.722  0.00  0.00    +0.000 A 
ATOM     19  C   UNL     1      46.497   3.156   7.274  0.00  0.00    +0.000 A 
ATOM     20  C   UNL     1      46.237   1.993   8.011  0.00  0.00    +0.000 A 
ATOM     21  C   UNL     1      45.591   2.119   9.251  0.00  0.00    +0.000 A 
BRANCH  20  22
ATOM     22  C   UNL     1      46.693   0.630   7.544  0.00  0.00    +0.000 C 
BRANCH  22  23
ATOM     23  N   UNL     1      47.312   0.653   6.219  0.00  0.00    +0.000 NA
ATOM     24  H   UNL     1      47.654   1.598   6.039  0.00  0.00    +0.000 HD
ATOM     25  H   UNL     1      46.599   0.467   5.519  0.00  0.00    +0.000 HD
ENDBRANCH  22  23
ENDBRANCH  20  22
ENDBRANCH  15  16
ENDBRANCH   1  15
TORSDOF 5
ENDMDL
MODEL 4
REMARK VINA RESULT:    -6.164      3.826      5.980
REMARK INTER + INTRA:          -8.351
REMARK INTER:                  -7.733
REMARK INTRA:                  -0.618
REMARK UNBOUND:                -0.566
REMARK  Name = 
REMARK  7 active torsions:
REMARK  status: ('A' for Active; 'I' for Inactive)
REMARK    1  A    between atoms: C_1  and  C_2
REMARK    2  A    between atoms: C_2  and  C_3
REMARK    3  A    between atoms: C_2  and  N_11
REMARK    4  A    between atoms: C_7  and  C_8
REMARK    5  A    between atoms: C_8  and  N_9
REMARK    6  A    between atoms: N_11  and  C_12
REMARK    7  A    between atoms: C_16  and  C_17
REMARK                            x       y       z     vdW  Elec       q    Type
REMARK                         _______ _______ _______ _____ _____    ______ ____
ROOT
ATOM      1  N   UNL     1      47.613   7.275  13.783  0.00  0.00    +0.000 N 
ATOM      2  C   UNL     1      47.188   8.669  13.696  0.00  0.00    +0.000 C 
ATOM      3  C   UNL     1      46.707   6.346  13.296  0.00  0.00    +0.000 A 
ATOM      4  C   UNL     1      46.964   4.976  13.259  0.00  0.00    +0.000 A 
ATOM      5  C   UNL     1      45.986   4.078  12.821  0.00  0.00    +0.000 A 
ATOM      6  C   UNL     1      44.749   4.549  12.396  0.00  0.00    +0.000 A 
ATOM      7  C   UNL     1      44.573   5.918  12.410  0.00  0.00    +0.000 A 
ATOM      8  N   UNL     1      45.512   6.800  12.843  0.00  0.00    +0.000 NA
ENDROOT
BRANCH   6   9
ATOM      9  C   UNL     1      43.704   3.578  11.984  0.00  0.00    +0.000 C 
ATOM     10  N   UNL     1      43.676   2.339  12.556  0.00  0.00    +0.000 N 
ATOM     11  O   UNL     1      42.872   3.874  11.130  0.00  0.00    +0.000 OA
ATOM     12  H   UNL     1      44.291   2.005  13.279  0.00  0.00    +0.000 HD
ATOM     13  H   UNL     1      42.950   1.712  12.233  0.00  0.00    +0.000 HD
ENDBRANCH   6   9
BRANCH   1  15
ATOM     14  C   UNL     1      49.960   7.953  14.040  0.00  0.00    +0.000 C 
ATOM     15  C   UNL     1      48.892   6.921  14.421  0.00  0.00    +0.000 C 
BRANCH  15  16
ATOM     16  C   UNL     1      48.732   6.679  15.923  0.00  0.00    +0.000 A 
ATOM     17  C   UNL     1      48.826   7.704  16.876  0.00  0.00    +0.000 A 
ATOM     18  C   UNL     1      48.555   7.455  18.222  0.00  0.00    +0.000 A 
ATOM     19  C   UNL     1      48.223   6.168  18.640  0.00  0.00    +0.000 A 
ATOM     20  C   UNL     1      48.192   5.104  17.729  0.00  0.00    +0.000 A 
ATOM     21  C   UNL     1      48.419   5.381  16.371  0.00  0.00    +0.000 A 
BRANCH  20  22
ATOM     22  C   UNL     1      47.851   3.695  18.155  0.00  0.00    +0.000 C 
BRANCH  22  23
ATOM     23  N   UNL     1      46.645   3.175  17.513  0.00  0.00    +0.000 NA
ATOM     24  H   UNL     1      46.922   2.467  16.831  0.00  0.00    +0.000 HD
ATOM     25  H   UNL     1      46.202   3.923  16.986  0.00  0.00    +0.000 HD
ENDBRANCH  22  23
ENDBRANCH  20  22
ENDBRANCH  15  16
ENDBRANCH   1  15
TORSDOF 5
ENDMDL
MODEL 5
REMARK VINA RESULT:    -5.572      4.038      6.133
REMARK INTER + INTRA:          -7.604
REMARK INTER:                  -7.204
REMARK INTRA:                  -0.400
REMARK UNBOUND:                -0.566
REMARK  Name = 
REMARK  7 active torsions:
REMARK  status: ('A' for Active; 'I' for Inactive)
REMARK    1  A    between atoms: C_1  and  C_2
REMARK    2  A    between atoms: C_2  and  C_3
REMARK    3  A    between atoms: C_2  and  N_11
REMARK    4  A    between atoms: C_7  and  C_8
REMARK    5  A    between atoms: C_8  and  N_9
REMARK    6  A    between atoms: N_11  and  C_12
REMARK    7  A    between atoms: C_16  and  C_17
REMARK                            x       y       z     vdW  Elec       q    Type
REMARK                         _______ _______ _______ _____ _____    ______ ____
ROOT
ATOM      1  N   UNL     1      48.132   7.269  12.723  0.00  0.00    +0.000 N 
ATOM      2  C   UNL     1      48.840   7.036  13.978  0.00  0.00    +0.000 C 
ATOM      3  C   UNL     1      47.094   6.390  12.454  0.00  0.00    +0.000 A 
ATOM      4  C   UNL     1      46.282   6.490  11.325  0.00  0.00    +0.000 A 
ATOM      5  C   UNL     1      45.294   5.534  11.069  0.00  0.00    +0.000 A 
ATOM      6  C   UNL     1      45.098   4.482  11.956  0.00  0.00    +0.000 A 
ATOM      7  C   UNL     1      45.900   4.465  13.079  0.00  0.00    +0.000 A 
ATOM      8  N   UNL     1      46.870   5.382  13.333  0.00  0.00    +0.000 NA
ENDROOT
BRANCH   6   9
ATOM      9  C   UNL     1      44.081   3.447  11.642  0.00  0.00    +0.000 C 
ATOM     10  N   UNL     1      43.889   2.410  12.509  0.00  0.00    +0.000 N 
ATOM     11  O   UNL     1      43.417   3.509  10.611  0.00  0.00    +0.000 OA
ATOM     12  H   UNL     1      44.358   2.278  13.390  0.00  0.00    +0.000 HD
ATOM     13  H   UNL     1      43.191   1.727  12.245  0.00  0.00    +0.000 HD
ENDBRANCH   6   9
BRANCH   1  15
ATOM     14  C   UNL     1      47.879   9.649  12.167  0.00  0.00    +0.000 C 
ATOM     15  C   UNL     1      48.571   8.330  11.800  0.00  0.00    +0.000 C 
BRANCH  15  16
ATOM     16  C   UNL     1      50.095   8.404  11.701  0.00  0.00    +0.000 A 
ATOM     17  C   UNL     1      50.873   9.252  12.504  0.00  0.00    +0.000 A 
ATOM     18  C   UNL     1      52.267   9.198  12.460  0.00  0.00    +0.000 A 
ATOM     19  C   UNL     1      52.904   8.320  11.586  0.00  0.00    +0.000 A 
ATOM     20  C   UNL     1      52.161   7.510  10.716  0.00  0.00    +0.000 A 
ATOM     21  C   UNL     1      50.760   7.541  10.807  0.00  0.00    +0.000 A 
BRANCH  20  22
ATOM     22  C   UNL     1      52.823   6.560   9.746  0.00  0.00    +0.000 C 
BRANCH  22  23
ATOM     23  N   UNL     1      53.398   5.383  10.393  0.00  0.00    +0.000 NA
ATOM     24  H   UNL     1      54.415   5.434  10.311  0.00  0.00    +0.000 HD
ATOM     25  H   UNL     1      53.111   4.552   9.884  0.00  0.00    +0.000 HD
ENDBRANCH  22  23
ENDBRANCH  20  22
ENDBRANCH  15  16
ENDBRANCH   1  15
TORSDOF 5
ENDMDL
