MODEL 1
REMARK VINA RESULT:    -7.170      0.000      0.000
REMARK INTER + INTRA:         -11.258
REMARK INTER:                 -10.314
REMARK INTRA:                  -0.944
REMARK UNBOUND:                -0.944
REMARK  Name = 
REMARK  9 active torsions:
REMARK  status: ('A' for Active; 'I' for Inactive)
REMARK    1  A    between atoms: C_1  and  C_2
REMARK    2  A    between atoms: C_2  and  N_3
REMARK    3  A    between atoms: N_3  and  C_4
REMARK    4  A    between atoms: N_3  and  C_14
REMARK    5  A    between atoms: C_4  and  C_5
REMARK    6  A    between atoms: C_5  and  C_6
REMARK    7  A    between atoms: C_10  and  C_11
REMARK    8  A    between atoms: C_11  and  N_12
REMARK    9  A    between atoms: C_18  and  C_19
REMARK                            x       y       z     vdW  Elec       q    Type
REMARK                         _______ _______ _______ _____ _____    ______ ____
ROOT
ATOM      1  N   UNL     1      44.416   4.425  12.273  0.00  0.00    +0.000 N 
ENDROOT
BRANCH   1   2
ATOM      2  C   UNL     1      45.573   4.988  12.840  0.00  0.00    +0.000 A 
ATOM      3  C   UNL     1      46.290   6.033  12.242  0.00  0.00    +0.000 A 
ATOM      4  C   UNL     1      47.415   6.600  12.851  0.00  0.00    +0.000 A 
ATOM      5  C   UNL     1      47.862   6.116  14.074  0.00  0.00    +0.000 A 
ATOM      6  C   UNL     1      47.195   5.055  14.693  0.00  0.00    +0.000 A 
ATOM      7  C   UNL     1      46.066   4.499  14.065  0.00  0.00    +0.000 A 
BRANCH   6   8
ATOM      8  C   UNL     1      47.726   4.574  16.000  0.00  0.00    +0.000 C 
ATOM      9  N   UNL     1      46.970   3.719  16.749  0.00  0.00    +0.000 N 
ATOM     10  O   UNL     1      48.822   4.938  16.420  0.00  0.00    +0.000 OA
ATOM     11  H   UNL     1      46.053   3.382  16.505  0.00  0.00    +0.000 HD
ATOM     12  H   UNL     1      47.360   3.434  17.638  0.00  0.00    +0.000 HD
ENDBRANCH   6   8
ENDBRANCH   1   2
BRANCH   1  14
ATOM     13  C   UNL     1      42.652   6.029  11.431  0.00  0.00    +0.000 C 
ATOM     14  C   UNL     1      43.114   5.065  12.512  0.00  0.00    +0.000 C 
ENDBRANCH   1  14
BRANCH   1  15
ATOM     15  C   UNL     1      44.529   2.986  11.926  0.00  0.00    +0.000 C 
BRANCH  15  16
ATOM     16  C   UNL     1      43.965   2.578  10.559  0.00  0.00    +0.000 C 
BRANCH  16  17
ATOM     17  C   UNL     1      44.895   2.966   9.426  0.00  0.00    +0.000 A 
ATOM     18  C   UNL     1      45.086   4.312   9.094  0.00  0.00    +0.000 A 
ATOM     19  C   UNL     1      45.968   4.673   8.074  0.00  0.00    +0.000 A 
ATOM     20  C   UNL     1      46.672   3.692   7.375  0.00  0.00    +0.000 A 
ATOM     21  C   UNL     1      46.481   2.332   7.663  0.00  0.00    +0.000 A 
ATOM     22  C   UNL     1      45.585   1.985   8.691  0.00  0.00    +0.000 A 
BRANCH  21  23
ATOM     23  C   UNL     1      47.293   1.250   6.988  0.00  0.00    +0.000 C 
BRANCH  23  24
ATOM     24  N   UNL     1      48.449   1.751   6.249  0.00  0.00    +0.000 NA
ATOM     25  H   UNL     1      49.263   1.191   6.495  0.00  0.00    +0.000 HD
ATOM     26  H   UNL     1      48.650   2.700   6.555  0.00  0.00    +0.000 HD
ENDBRANCH  23  24
ENDBRANCH  21  23
ENDBRANCH  16  17
ENDBRANCH  15  16
ENDBRANCH   1  15
TORSDOF 8
ENDMDL
MODEL 2
REMARK VINA RESULT:    -7.019      2.391      6.322
REMARK INTER + INTRA:         -11.040
REMARK INTER:                 -10.126
REMARK INTRA:                  -0.915
REMARK UNBOUND:                -0.944
REMARK  Name = 
REMARK  9 active torsions:
REMARK  status: ('A' for Active; 'I' for Inactive)
REMARK    1  A    between atoms: C_1  and  C_2
REMARK    2  A    between atoms: C_2  and  N_3
REMARK    3  A    between atoms: N_3  and  C_4
REMARK    4  A    between atoms: N_3  and  C_14
REMARK    5  A    between atoms: C_4  and  C_5
REMARK    6  A    between atoms: C_5  and  C_6
REMARK    7  A    between atoms: C_10  and  C_11
REMARK    8  A    between atoms: C_11  and  N_12
REMARK    9  A    between atoms: C_18  and  C_19
REMARK                            x       y       z     vdW  Elec       q    Type
REMARK                         _______ _______ _______ _____ _____    ______ ____
ROOT
ATOM      1  N   UNL     1      44.132   3.736  10.394  0.00  0.00    +0.000 N 
ENDROOT
BRANCH   1   2
ATOM      2  C   UNL     1      45.045   3.611   9.332  0.00  0.00    +0.000 A 
ATOM      3  C   UNL     1      45.588   4.709   8.653  0.00  0.00    +0.000 A 
ATOM      4  C   UNL     1      46.525   4.554   7.626  0.00  0.00    +0.000 A 
ATOM      5  C   UNL     1      46.930   3.281   7.241  0.00  0.00    +0.000 A 
ATOM      6  C   UNL     1      46.393   2.156   7.872  0.00  0.00    +0.000 A 
ATOM      7  C   UNL     1      45.452   2.333   8.901  0.00  0.00    +0.000 A 
BRANCH   6   8
ATOM      8  C   UNL     1      46.860   0.817   7.410  0.00  0.00    +0.000 C 
ATOM      9  N   UNL     1      47.605   0.733   6.268  0.00  0.00    +0.000 N 
ATOM     10  O   UNL     1      46.581  -0.208   8.026  0.00  0.00    +0.000 OA
ATOM     11  H   UNL     1      47.865   1.508   5.681  0.00  0.00    +0.000 HD
ATOM     12  H   UNL     1      47.882  -0.196   5.979  0.00  0.00    +0.000 HD
ENDBRANCH   6   8
ENDBRANCH   1   2
BRANCH   1  14
ATOM     13  C   UNL     1      43.550   2.522  12.535  0.00  0.00    +0.000 C 
ATOM     14  C   UNL     1      43.579   2.523  11.014  0.00  0.00    +0.000 C 
ENDBRANCH   1  14
BRANCH   1  15
ATOM     15  C   UNL     1      43.424   5.039  10.457  0.00  0.00    +0.000 C 
BRANCH  15  16
ATOM     16  C   UNL     1      43.596   5.836  11.756  0.00  0.00    +0.000 C 
BRANCH  16  17
ATOM     17  C   UNL     1      45.043   5.870  12.211  0.00  0.00    +0.000 A 
ATOM     18  C   UNL     1      45.983   6.648  11.525  0.00  0.00    +0.000 A 
ATOM     19  C   UNL     1      47.307   6.709  11.961  0.00  0.00    +0.000 A 
ATOM     20  C   UNL     1      47.707   5.993  13.091  0.00  0.00    +0.000 A 
ATOM     21  C   UNL     1      46.796   5.180  13.783  0.00  0.00    +0.000 A 
ATOM     22  C   UNL     1      45.465   5.128  13.327  0.00  0.00    +0.000 A 
BRANCH  21  23
ATOM     23  C   UNL     1      47.173   4.465  15.060  0.00  0.00    +0.000 C 
BRANCH  23  24
ATOM     24  N   UNL     1      47.681   3.111  14.853  0.00  0.00    +0.000 NA
ATOM     25  H   UNL     1      47.374   2.782  13.940  0.00  0.00    +0.000 HD
ATOM     26  H   UNL     1      47.258   2.491  15.540  0.00  0.00    +0.000 HD
ENDBRANCH  23  24
ENDBRANCH  21  23
ENDBRANCH  16  17
ENDBRANCH  15  16
ENDBRANCH   1  15
TORSDOF 8
ENDMDL
MODEL 3
REMARK VINA RESULT:    -6.719      1.954      2.654
REMARK INTER + INTRA:         -10.609
REMARK INTER:                  -9.801
REMARK INTRA:                  -0.808
REMARK UNBOUND:                -0.944
REMARK  Name = 
REMARK  9 active torsions:
REMARK  status: ('A' for Active; 'I' for Inactive)
REMARK    1  A    between atoms: C_1  and  C_2
REMARK    2  A    between atoms: C_2  and  N_3
REMARK    3  A    between atoms: N_3  and  C_4
REMARK    4  A    between atoms: N_3  and  C_14
REMARK    5  A    between atoms: C_4  and  C_5
REMARK    6  A    between atoms: C_5  and  C_6
REMARK    7  A    between atoms: C_10  and  C_11
REMARK    8  A    between atoms: C_11  and  N_12
REMARK    9  A    between atoms: C_18  and  C_19
REMARK                            x       y       z     vdW  Elec       q    Type
REMARK                         _______ _______ _______ _____ _____    ______ ____
ROOT
ATOM      1  N   UNL     1      43.994   5.010  11.565  0.00  0.00    +0.000 N 
ENDROOT
BRANCH   1   2
ATOM      2  C   UNL     1      44.885   6.069  11.815  0.00  0.00    +0.000 A 
ATOM      3  C   UNL     1      44.573   7.411  11.562  0.00  0.00    +0.000 A 
ATOM      4  C   UNL     1      45.466   8.445  11.859  0.00  0.00    +0.000 A 
ATOM      5  C   UNL     1      46.711   8.155  12.403  0.00  0.00    +0.000 A 
ATOM      6  C   UNL     1      47.076   6.828  12.645  0.00  0.00    +0.000 A 
ATOM      7  C   UNL     1      46.164   5.802  12.340  0.00  0.00    +0.000 A 
BRANCH   6   8
ATOM      8  C   UNL     1      48.428   6.578  13.223  0.00  0.00    +0.000 C 
ATOM      9  N   UNL     1      49.533   6.869  12.474  0.00  0.00    +0.000 N 
ATOM     10  O   UNL     1      48.568   6.108  14.349  0.00  0.00    +0.000 OA
ATOM     11  H   UNL     1      49.523   7.233  11.536  0.00  0.00    +0.000 HD
ATOM     12  H   UNL     1      50.429   6.665  12.897  0.00  0.00    +0.000 HD
ENDBRANCH   6   8
ENDBRANCH   1   2
BRANCH   1  14
ATOM     13  C   UNL     1      43.524   2.612  12.213  0.00  0.00    +0.000 C 
ATOM     14  C   UNL     1      43.684   4.061  12.645  0.00  0.00    +0.000 C 
ENDBRANCH   1  14
BRANCH   1  15
ATOM     15  C   UNL     1      43.848   4.643  10.134  0.00  0.00    +0.000 C 
BRANCH  15  16
ATOM     16  C   UNL     1      45.054   4.945   9.236  0.00  0.00    +0.000 C 
BRANCH  16  17
ATOM     17  C   UNL     1      45.591   3.691   8.573  0.00  0.00    +0.000 A 
ATOM     18  C   UNL     1      45.366   2.433   9.145  0.00  0.00    +0.000 A 
ATOM     19  C   UNL     1      45.830   1.275   8.519  0.00  0.00    +0.000 A 
ATOM     20  C   UNL     1      46.522   1.361   7.310  0.00  0.00    +0.000 A 
ATOM     21  C   UNL     1      46.791   2.608   6.726  0.00  0.00    +0.000 A 
ATOM     22  C   UNL     1      46.320   3.766   7.373  0.00  0.00    +0.000 A 
BRANCH  21  23
ATOM     23  C   UNL     1      47.458   2.730   5.375  0.00  0.00    +0.000 C 
BRANCH  23  24
ATOM     24  N   UNL     1      48.321   1.602   5.036  0.00  0.00    +0.000 NA
ATOM     25  H   UNL     1      48.415   1.004   5.855  0.00  0.00    +0.000 HD
ATOM     26  H   UNL     1      49.254   1.951   4.826  0.00  0.00    +0.000 HD
ENDBRANCH  23  24
ENDBRANCH  21  23
ENDBRANCH  16  17
ENDBRANCH  15  16
ENDBRANCH   1  15
TORSDOF 8
ENDMDL
MODEL 4
REMARK VINA RESULT:    -6.393      2.768      4.042
REMARK INTER + INTRA:         -10.140
REMARK INTER:                  -9.378
REMARK INTRA:                  -0.763
REMARK UNBOUND:                -0.944
REMARK  Name = 
REMARK  9 active torsions:
REMARK  status: ('A' for Active; 'I' for Inactive)
REMARK    1  A    between atoms: C_1  and  C_2
REMARK    2  A    between atoms: C_2  and  N_3
REMARK    3  A    between atoms: N_3  and  C_4
REMARK    4  A    between atoms: N_3  and  C_14
REMARK    5  A    between atoms: C_4  and  C_5
REMARK    6  A    between atoms: C_5  and  C_6
REMARK    7  A    between atoms: C_10  and  C_11
REMARK    8  A    between atoms: C_11  and  N_12
REMARK    9  A    between atoms: C_18  and  C_19
REMARK                            x       y       z     vdW  Elec       q    Type
REMARK                         _______ _______ _______ _____ _____    ______ ____
ROOT
ATOM      1  N   UNL     1      43.647   4.945  11.422  0.00  0.00    +0.000 N 
ENDROOT
BRANCH   1   2
ATOM      2  C   UNL     1      44.435   6.057  11.767  0.00  0.00    +0.000 A 
ATOM      3  C   UNL     1      45.631   5.956  12.489  0.00  0.00    +0.000 A 
ATOM      4  C   UNL     1      46.414   7.078  12.782  0.00  0.00    +0.000 A 
ATOM      5  C   UNL     1      46.004   8.340  12.371  0.00  0.00    +0.000 A 
ATOM      6  C   UNL     1      44.802   8.491  11.672  0.00  0.00    +0.000 A 
ATOM      7  C   UNL     1      44.030   7.352  11.388  0.00  0.00    +0.000 A 
BRANCH   6   8
ATOM      8  C   UNL     1      44.411   9.871  11.265  0.00  0.00    +0.000 C 
ATOM      9  N   UNL     1      43.862  10.067  10.029  0.00  0.00    +0.000 N 
ATOM     10  O   UNL     1      44.580  10.833  12.009  0.00  0.00    +0.000 OA
ATOM     11  H   UNL     1      43.705   9.350   9.339  0.00  0.00    +0.000 HD
ATOM     12  H   UNL     1      43.631  11.020   9.785  0.00  0.00    +0.000 HD
ENDBRANCH   6   8
ENDBRANCH   1   2
BRANCH   1  14
ATOM     13  C   UNL     1      43.551   2.549  12.223  0.00  0.00    +0.000 C 
ATOM     14  C   UNL     1      43.220   4.012  12.475  0.00  0.00    +0.000 C 
ENDBRANCH   1  14
BRANCH   1  15
ATOM     15  C   UNL     1      43.744   4.530  10.001  0.00  0.00    +0.000 C 
BRANCH  15  16
ATOM     16  C   UNL     1      45.074   4.836   9.300  0.00  0.00    +0.000 C 
BRANCH  16  17
ATOM     17  C   UNL     1      45.620   3.624   8.571  0.00  0.00    +0.000 A 
ATOM     18  C   UNL     1      45.427   2.338   9.090  0.00  0.00    +0.000 A 
ATOM     19  C   UNL     1      45.899   1.218   8.404  0.00  0.00    +0.000 A 
ATOM     20  C   UNL     1      46.568   1.370   7.188  0.00  0.00    +0.000 A 
ATOM     21  C   UNL     1      46.804   2.647   6.656  0.00  0.00    +0.000 A 
ATOM     22  C   UNL     1      46.325   3.766   7.363  0.00  0.00    +0.000 A 
BRANCH  21  23
ATOM     23  C   UNL     1      47.444   2.842   5.300  0.00  0.00    +0.000 C 
BRANCH  23  24
ATOM     24  N   UNL     1      48.359   1.769   4.917  0.00  0.00    +0.000 NA
ATOM     25  H   UNL     1      48.436   1.751   3.902  0.00  0.00    +0.000 HD
ATOM     26  H   UNL     1      47.954   0.877   5.192  0.00  0.00    +0.000 HD
ENDBRANCH  23  24
ENDBRANCH  21  23
ENDBRANCH  16  17
ENDBRANCH  15  16
ENDBRANCH   1  15
TORSDOF 8
ENDMDL
MODEL 5
REMARK VINA RESULT:    -6.144      2.562      6.590
REMARK INTER + INTRA:          -9.782
REMARK INTER:                  -8.897
REMARK INTRA:                  -0.885
REMARK UNBOUND:                -0.944
REMARK  Name = 
REMARK  9 active torsions:
REMARK  status: ('A' for Active; 'I' for Inactive)
REMARK    1  A    between atoms: C_1  and  C_2
REMARK    2  A    between atoms: C_2  and  N_3
REMARK    3  A    between atoms: N_3  and  C_4
REMARK    4  A    between atoms: N_3  and  C_14
REMARK    5  A    between atoms: C_4  and  C_5
REMARK    6  A    between atoms: C_5  and  C_6
REMARK    7  A    between atoms: C_10  and  C_11
REMARK    8  A    between atoms: C_11  and  N_12
REMARK    9  A    between atoms: C_18  and  C_19
REMARK                            x       y       z     vdW  Elec       q    Type
REMARK                         _______ _______ _______ _____ _____    ______ ____
ROOT
ATOM      1  N   UNL     1      44.285   5.356  10.860  0.00  0.00    +0.000 N 
ENDROOT
BRANCH   1   2
ATOM      2  C   UNL     1      44.609   4.221  10.095  0.00  0.00    +0.000 A 
ATOM      3  C   UNL     1      44.078   2.949  10.347  0.00  0.00    +0.000 A 
ATOM      4  C   UNL     1      44.388   1.847   9.544  0.00  0.00    +0.000 A 
ATOM      5  C   UNL     1      45.259   1.991   8.471  0.00  0.00    +0.000 A 
ATOM      6  C   UNL     1      45.834   3.235   8.200  0.00  0.00    +0.000 A 
ATOM      7  C   UNL     1      45.510   4.331   9.019  0.00  0.00    +0.000 A 
BRANCH   6   8
ATOM      8  C   UNL     1      46.768   3.326   7.040  0.00  0.00    +0.000 C 
ATOM      9  N   UNL     1      47.839   2.481   6.983  0.00  0.00    +0.000 N 
ATOM     10  O   UNL     1      46.600   4.151   6.145  0.00  0.00    +0.000 OA
ATOM     11  H   UNL     1      48.075   1.790   7.676  0.00  0.00    +0.000 HD
ATOM     12  H   UNL     1      48.457   2.591   6.191  0.00  0.00    +0.000 HD
ENDBRANCH   6   8
ENDBRANCH   1   2
BRANCH   1  14
ATOM     13  C   UNL     1      42.835   5.117  12.917  0.00  0.00    +0.000 C 
ATOM     14  C   UNL     1      42.939   5.471  11.442  0.00  0.00    +0.000 C 
ENDBRANCH   1  14
BRANCH   1  15
ATOM     15  C   UNL     1      45.126   6.548  10.590  0.00  0.00    +0.000 C 
BRANCH  15  16
ATOM     16  C   UNL     1      45.276   7.541  11.750  0.00  0.00    +0.000 C 
BRANCH  16  17
ATOM     17  C   UNL     1      46.432   7.173  12.661  0.00  0.00    +0.000 A 
ATOM     18  C   UNL     1      47.554   8.005  12.755  0.00  0.00    +0.000 A 
ATOM     19  C   UNL     1      48.603   7.686  13.619  0.00  0.00    +0.000 A 
ATOM     20  C   UNL     1      48.541   6.532  14.402  0.00  0.00    +0.000 A 
ATOM     21  C   UNL     1      47.444   5.662  14.308  0.00  0.00    +0.000 A 
ATOM     22  C   UNL     1      46.397   5.996  13.430  0.00  0.00    +0.000 A 
BRANCH  21  23
ATOM     23  C   UNL     1      47.304   4.453  15.206  0.00  0.00    +0.000 C 
BRANCH  23  24
ATOM     24  N   UNL     1      47.440   3.178  14.507  0.00  0.00    +0.000 NA
ATOM     25  H   UNL     1      46.542   2.934  14.092  0.00  0.00    +0.000 HD
ATOM     26  H   UNL     1      47.650   2.450  15.187  0.00  0.00    +0.000 HD
ENDBRANCH  23  24
ENDBRANCH  21  23
ENDBRANCH  16  17
ENDBRANCH  15  16
ENDBRANCH   1  15
TORSDOF 8
ENDMDL
MODEL 6
REMARK VINA RESULT:    -6.132      2.875      6.717
REMARK INTER + INTRA:          -9.764
REMARK INTER:                  -9.011
REMARK INTRA:                  -0.753
REMARK UNBOUND:                -0.944
REMARK  Name = 
REMARK  9 active torsions:
REMARK  status: ('A' for Active; 'I' for Inactive)
REMARK    1  A    between atoms: C_1  and  C_2
REMARK    2  A    between atoms: C_2  and  N_3
REMARK    3  A    between atoms: N_3  and  C_4
REMARK    4  A    between atoms: N_3  and  C_14
REMARK    5  A    between atoms: C_4  and  C_5
REMARK    6  A    between atoms: C_5  and  C_6
REMARK    7  A    between atoms: C_10  and  C_11
REMARK    8  A    between atoms: C_11  and  N_12
REMARK    9  A    between atoms: C_18  and  C_19
REMARK                            x       y       z     vdW  Elec       q    Type
REMARK                         _______ _______ _______ _____ _____    ______ ____
ROOT
ATOM      1  N   UNL     1      44.208   3.738  10.440  0.00  0.00    +0.000 N 
ENDROOT
BRANCH   1   2
ATOM      2  C   UNL     1      45.091   3.606   9.354  0.00  0.00    +0.000 A 
ATOM      3  C   UNL     1      45.653   4.701   8.685  0.00  0.00    +0.000 A 
ATOM      4  C   UNL     1      46.561   4.537   7.633  0.00  0.00    +0.000 A 
ATOM      5  C   UNL     1      46.916   3.261   7.213  0.00  0.00    +0.000 A 
ATOM      6  C   UNL     1      46.358   2.140   7.834  0.00  0.00    +0.000 A 
ATOM      7  C   UNL     1      45.447   2.326   8.888  0.00  0.00    +0.000 A 
BRANCH   6   8
ATOM      8  C   UNL     1      46.771   0.798   7.334  0.00  0.00    +0.000 C 
ATOM      9  N   UNL     1      47.289   0.689   6.074  0.00  0.00    +0.000 N 
ATOM     10  O   UNL     1      46.646  -0.211   8.024  0.00  0.00    +0.000 OA
ATOM     11  H   UNL     1      47.410   1.449   5.425  0.00  0.00    +0.000 HD
ATOM     12  H   UNL     1      47.536  -0.242   5.768  0.00  0.00    +0.000 HD
ENDBRANCH   6   8
ENDBRANCH   1   2
BRANCH   1  14
ATOM     13  C   UNL     1      43.562   2.453  12.519  0.00  0.00    +0.000 C 
ATOM     14  C   UNL     1      43.573   2.536  11.001  0.00  0.00    +0.000 C 
ENDBRANCH   1  14
BRANCH   1  15
ATOM     15  C   UNL     1      43.603   5.086  10.591  0.00  0.00    +0.000 C 
BRANCH  15  16
ATOM     16  C   UNL     1      43.631   5.681  12.004  0.00  0.00    +0.000 C 
BRANCH  16  17
ATOM     17  C   UNL     1      45.010   6.192  12.375  0.00  0.00    +0.000 A 
ATOM     18  C   UNL     1      46.035   5.296  12.701  0.00  0.00    +0.000 A 
ATOM     19  C   UNL     1      47.314   5.761  13.008  0.00  0.00    +0.000 A 
ATOM     20  C   UNL     1      47.585   7.131  12.991  0.00  0.00    +0.000 A 
ATOM     21  C   UNL     1      46.572   8.057  12.697  0.00  0.00    +0.000 A 
ATOM     22  C   UNL     1      45.287   7.570  12.393  0.00  0.00    +0.000 A 
BRANCH  21  23
ATOM     23  C   UNL     1      46.853   9.538  12.582  0.00  0.00    +0.000 C 
BRANCH  23  24
ATOM     24  N   UNL     1      45.693  10.332  12.185  0.00  0.00    +0.000 NA
ATOM     25  H   UNL     1      45.974  11.307  12.110  0.00  0.00    +0.000 HD
ATOM     26  H   UNL     1      44.996  10.289  12.925  0.00  0.00    +0.000 HD
ENDBRANCH  23  24
ENDBRANCH  21  23
ENDBRANCH  16  17
ENDBRANCH  15  16
ENDBRANCH   1  15
TORSDOF 8
ENDMDL
MODEL 7
REMARK VINA RESULT:    -6.085      3.220      4.465
REMARK INTER + INTRA:          -9.697
REMARK INTER:                  -8.740
REMARK INTRA:                  -0.957
REMARK UNBOUND:                -0.944
REMARK  Name = 
REMARK  9 active torsions:
REMARK  status: ('A' for Active; 'I' for Inactive)
REMARK    1  A    between atoms: C_1  and  C_2
REMARK    2  A    between atoms: C_2  and  N_3
REMARK    3  A    between atoms: N_3  and  C_4
REMARK    4  A    between atoms: N_3  and  C_14
REMARK    5  A    between atoms: C_4  and  C_5
REMARK    6  A    between atoms: C_5  and  C_6
REMARK    7  A    between atoms: C_10  and  C_11
REMARK    8  A    between atoms: C_11  and  N_12
REMARK    9  A    between atoms: C_18  and  C_19
REMARK                            x       y       z     vdW  Elec       q    Type
REMARK                         _______ _______ _______ _____ _____    ______ ____
ROOT
ATOM      1  N   UNL     1      46.380   6.296  13.310  0.00  0.00    +0.000 N 
ENDROOT
BRANCH   1   2
ATOM      2  C   UNL     1      47.220   7.269  12.739  0.00  0.00    +0.000 A 
ATOM      3  C   UNL     1      48.481   6.976  12.206  0.00  0.00    +0.000 A 
ATOM      4  C   UNL     1      49.277   7.959  11.608  0.00  0.00    +0.000 A 
ATOM      5  C   UNL     1      48.830   9.274  11.546  0.00  0.00    +0.000 A 
ATOM      6  C   UNL     1      47.590   9.616  12.092  0.00  0.00    +0.000 A 
ATOM      7  C   UNL     1      46.805   8.614  12.689  0.00  0.00    +0.000 A 
BRANCH   6   8
ATOM      8  C   UNL     1      47.169  11.044  12.003  0.00  0.00    +0.000 C 
ATOM      9  N   UNL     1      47.526  11.904  13.002  0.00  0.00    +0.000 N 
ATOM     10  O   UNL     1      46.499  11.458  11.060  0.00  0.00    +0.000 OA
ATOM     11  H   UNL     1      48.052  11.658  13.825  0.00  0.00    +0.000 HD
ATOM     12  H   UNL     1      47.202  12.858  12.912  0.00  0.00    +0.000 HD
ENDBRANCH   6   8
ENDBRANCH   1   2
BRANCH   1  14
ATOM     13  C   UNL     1      46.746   3.798  13.451  0.00  0.00    +0.000 C 
ATOM     14  C   UNL     1      46.978   5.176  14.052  0.00  0.00    +0.000 C 
ENDBRANCH   1  14
BRANCH   1  15
ATOM     15  C   UNL     1      45.033   6.197  12.694  0.00  0.00    +0.000 C 
BRANCH  15  16
ATOM     16  C   UNL     1      44.982   6.316  11.166  0.00  0.00    +0.000 C 
BRANCH  16  17
ATOM     17  C   UNL     1      44.864   4.959  10.498  0.00  0.00    +0.000 A 
ATOM     18  C   UNL     1      44.121   3.935  11.098  0.00  0.00    +0.000 A 
ATOM     19  C   UNL     1      43.982   2.697  10.470  0.00  0.00    +0.000 A 
ATOM     20  C   UNL     1      44.583   2.467   9.231  0.00  0.00    +0.000 A 
ATOM     21  C   UNL     1      45.360   3.462   8.618  0.00  0.00    +0.000 A 
ATOM     22  C   UNL     1      45.493   4.704   9.267  0.00  0.00    +0.000 A 
BRANCH  21  23
ATOM     23  C   UNL     1      45.949   3.278   7.237  0.00  0.00    +0.000 C 
BRANCH  23  24
ATOM     24  N   UNL     1      46.935   4.292   6.874  0.00  0.00    +0.000 NA
ATOM     25  H   UNL     1      46.722   5.151   7.376  0.00  0.00    +0.000 HD
ATOM     26  H   UNL     1      46.841   4.505   5.884  0.00  0.00    +0.000 HD
ENDBRANCH  23  24
ENDBRANCH  21  23
ENDBRANCH  16  17
ENDBRANCH  15  16
ENDBRANCH   1  15
TORSDOF 8
ENDMDL
MODEL 8
REMARK VINA RESULT:    -6.027      2.671      3.847
REMARK INTER + INTRA:          -9.614
REMARK INTER:                  -8.774
REMARK INTRA:                  -0.840
REMARK UNBOUND:                -0.944
REMARK  Name = 
REMARK  9 active torsions:
REMARK  status: ('A' for Active; 'I' for Inactive)
REMARK    1  A    between atoms: C_1  and  C_2
REMARK    2  A    between atoms: C_2  and  N_3
REMARK    3  A    between atoms: N_3  and  C_4
REMARK    4  A    between atoms: N_3  and  C_14
REMARK    5  A    between atoms: C_4  and  C_5
REMARK    6  A    between atoms: C_5  and  C_6
REMARK    7  A    between atoms: C_10  and  C_11
REMARK    8  A    between atoms: C_11  and  N_12
REMARK    9  A    between atoms: C_18  and  C_19
REMARK                            x       y       z     vdW  Elec       q    Type
REMARK                         _______ _______ _______ _____ _____    ______ ____
ROOT
ATOM      1  N   UNL     1      45.896   5.804  13.089  0.00  0.00    +0.000 N 
ENDROOT
BRANCH   1   2
ATOM      2  C   UNL     1      46.461   7.050  12.764  0.00  0.00    +0.000 A 
ATOM      3  C   UNL     1      45.761   8.259  12.861  0.00  0.00    +0.000 A 
ATOM      4  C   UNL     1      46.363   9.487  12.569  0.00  0.00    +0.000 A 
ATOM      5  C   UNL     1      47.688   9.531  12.152  0.00  0.00    +0.000 A 
ATOM      6  C   UNL     1      48.417   8.347  12.014  0.00  0.00    +0.000 A 
ATOM      7  C   UNL     1      47.793   7.122  12.312  0.00  0.00    +0.000 A 
BRANCH   6   8
ATOM      8  C   UNL     1      49.831   8.456  11.555  0.00  0.00    +0.000 C 
ATOM      9  N   UNL     1      50.581   7.320  11.442  0.00  0.00    +0.000 N 
ATOM     10  O   UNL     1      50.337   9.544  11.289  0.00  0.00    +0.000 OA
ATOM     11  H   UNL     1      50.268   6.389  11.658  0.00  0.00    +0.000 HD
ATOM     12  H   UNL     1      51.541   7.443  11.147  0.00  0.00    +0.000 HD
ENDBRANCH   6   8
ENDBRANCH   1   2
BRANCH   1  14
ATOM     13  C   UNL     1      47.022   4.577  14.992  0.00  0.00    +0.000 C 
ATOM     14  C   UNL     1      46.777   4.699  13.496  0.00  0.00    +0.000 C 
ENDBRANCH   1  14
BRANCH   1  15
ATOM     15  C   UNL     1      44.551   5.561  12.512  0.00  0.00    +0.000 C 
BRANCH  15  16
ATOM     16  C   UNL     1      44.401   5.845  11.012  0.00  0.00    +0.000 C 
BRANCH  16  17
ATOM     17  C   UNL     1      44.697   4.617  10.172  0.00  0.00    +0.000 A 
ATOM     18  C   UNL     1      44.179   3.368  10.537  0.00  0.00    +0.000 A 
ATOM     19  C   UNL     1      44.421   2.243   9.747  0.00  0.00    +0.000 A 
ATOM     20  C   UNL     1      45.181   2.353   8.582  0.00  0.00    +0.000 A 
ATOM     21  C   UNL     1      45.739   3.584   8.205  0.00  0.00    +0.000 A 
ATOM     22  C   UNL     1      45.489   4.708   9.015  0.00  0.00    +0.000 A 
BRANCH  21  23
ATOM     23  C   UNL     1      46.490   3.757   6.904  0.00  0.00    +0.000 C 
BRANCH  23  24
ATOM     24  N   UNL     1      47.754   3.027   6.849  0.00  0.00    +0.000 NA
ATOM     25  H   UNL     1      48.417   3.472   7.482  0.00  0.00    +0.000 HD
ATOM     26  H   UNL     1      48.145   3.115   5.914  0.00  0.00    +0.000 HD
ENDBRANCH  23  24
ENDBRANCH  21  23
ENDBRANCH  16  17
ENDBRANCH  15  16
ENDBRANCH   1  15
TORSDOF 8
ENDMDL
MODEL 9
REMARK VINA RESULT:    -6.005      3.797      7.698
REMARK INTER + INTRA:          -9.581
REMARK INTER:                  -8.193
REMARK INTRA:                  -1.388
REMARK UNBOUND:                -0.944
REMARK  Name = 
REMARK  9 active torsions:
REMARK  status: ('A' for Active; 'I' for Inactive)
REMARK    1  A    between atoms: C_1  and  C_2
REMARK    2  A    between atoms: C_2  and  N_3
REMARK    3  A    between atoms: N_3  and  C_4
REMARK    4  A    between atoms: N_3  and  C_14
REMARK    5  A    between atoms: C_4  and  C_5
REMARK    6  A    between atoms: C_5  and  C_6
REMARK    7  A    between atoms: C_10  and  C_11
REMARK    8  A    between atoms: C_11  and  N_12
REMARK    9  A    between atoms: C_18  and  C_19
REMARK                            x       y       z     vdW  Elec       q    Type
REMARK                         _______ _______ _______ _____ _____    ______ ____
ROOT
ATOM      1  N   UNL     1      48.601   8.147  13.823  0.00  0.00    +0.000 N 
ENDROOT
BRANCH   1   2
ATOM      2  C   UNL     1      47.497   7.339  13.499  0.00  0.00    +0.000 A 
ATOM      3  C   UNL     1      46.289   7.852  13.007  0.00  0.00    +0.000 A 
ATOM      4  C   UNL     1      45.222   7.020  12.656  0.00  0.00    +0.000 A 
ATOM      5  C   UNL     1      45.333   5.643  12.808  0.00  0.00    +0.000 A 
ATOM      6  C   UNL     1      46.509   5.090  13.322  0.00  0.00    +0.000 A 
ATOM      7  C   UNL     1      47.571   5.943  13.669  0.00  0.00    +0.000 A 
BRANCH   6   8
ATOM      8  C   UNL     1      46.567   3.607  13.470  0.00  0.00    +0.000 C 
ATOM      9  N   UNL     1      45.724   2.833  12.724  0.00  0.00    +0.000 N 
ATOM     10  O   UNL     1      47.346   3.070  14.254  0.00  0.00    +0.000 OA
ATOM     11  H   UNL     1      45.037   3.176  12.074  0.00  0.00    +0.000 HD
ATOM     12  H   UNL     1      45.783   1.834  12.871  0.00  0.00    +0.000 HD
ENDBRANCH   6   8
ENDBRANCH   1   2
BRANCH   1  14
ATOM     13  C   UNL     1      49.720   8.658  11.614  0.00  0.00    +0.000 C 
ATOM     14  C   UNL     1      49.042   9.178  12.872  0.00  0.00    +0.000 C 
ENDBRANCH   1  14
BRANCH   1  15
ATOM     15  C   UNL     1      49.524   7.565  14.829  0.00  0.00    +0.000 C 
BRANCH  15  16
ATOM     16  C   UNL     1      49.496   8.210  16.220  0.00  0.00    +0.000 C 
BRANCH  16  17
ATOM     17  C   UNL     1      48.766   7.343  17.229  0.00  0.00    +0.000 A 
ATOM     18  C   UNL     1      48.108   7.925  18.319  0.00  0.00    +0.000 A 
ATOM     19  C   UNL     1      47.407   7.133  19.230  0.00  0.00    +0.000 A 
ATOM     20  C   UNL     1      47.354   5.748  19.060  0.00  0.00    +0.000 A 
ATOM     21  C   UNL     1      48.029   5.132  17.995  0.00  0.00    +0.000 A 
ATOM     22  C   UNL     1      48.734   5.945  17.088  0.00  0.00    +0.000 A 
BRANCH  21  23
ATOM     23  C   UNL     1      47.917   3.647  17.732  0.00  0.00    +0.000 C 
BRANCH  23  24
ATOM     24  N   UNL     1      46.565   3.203  17.404  0.00  0.00    +0.000 NA
ATOM     25  H   UNL     1      45.966   3.352  18.214  0.00  0.00    +0.000 HD
ATOM     26  H   UNL     1      46.578   2.200  17.235  0.00  0.00    +0.000 HD
ENDBRANCH  23  24
ENDBRANCH  21  23
ENDBRANCH  16  17
ENDBRANCH  15  16
ENDBRANCH   1  15
TORSDOF 8
ENDMDL
