MODEL 1
REMARK VINA RESULT:    -8.146      0.000      0.000
REMARK INTER + INTRA:         -12.580
REMARK INTER:                 -11.717
REMARK INTRA:                  -0.863
REMARK UNBOUND:                -0.863
REMARK  Name = 
REMARK  9 active torsions:
REMARK  status: ('A' for Active; 'I' for Inactive)
REMARK    1  A    between atoms: C_1  and  N_2
REMARK    2  A    between atoms: C_4  and  C_5
REMARK    3  A    between atoms: N_7  and  C_8
REMARK    4  A    between atoms: C_8  and  C_9
REMARK    5  A    between atoms: C_12  and  C_13
REMARK    6  A    between atoms: C_13  and  S_14
REMARK    7  A    between atoms: S_14  and  C_15
REMARK    8  A    between atoms: C_15  and  C_16
REMARK    9  A    between atoms: C_25  and  O_26
REMARK                            x       y       z     vdW  Elec       q    Type
REMARK                         _______ _______ _______ _____ _____    ______ ____
ROOT
ATOM      1  C   UNL     1      48.780   7.036  14.900  0.00  0.00    +0.000 C 
ATOM      2  O   UNL     1      49.631   6.827  14.041  0.00  0.00    +0.000 OA
ATOM      3  N   UNL     1      47.606   7.698  14.649  0.00  0.00    +0.000 N 
ATOM      4  H   UNL     1      46.945   7.860  15.392  0.00  0.00    +0.000 HD
ENDROOT
BRANCH   1   8
ATOM      5  C   UNL     1      49.991   6.858  19.752  0.00  0.00    +0.000 C 
ATOM      6  N   UNL     1      49.498   6.487  18.446  0.00  0.00    +0.000 N 
ATOM      7  C   UNL     1      49.529   7.287  17.335  0.00  0.00    +0.000 A 
ATOM      8  C   UNL     1      48.963   6.584  16.270  0.00  0.00    +0.000 A 
ATOM      9  C   UNL     1      48.585   5.303  16.791  0.00  0.00    +0.000 A 
ATOM     10  C   UNL     1      47.985   4.137  16.300  0.00  0.00    +0.000 A 
ATOM     11  N   UNL     1      47.775   3.088  17.113  0.00  0.00    +0.000 NA
ATOM     12  C   UNL     1      48.164   3.207  18.394  0.00  0.00    +0.000 A 
ATOM     13  N   UNL     1      48.748   4.261  18.991  0.00  0.00    +0.000 NA
ATOM     14  C   UNL     1      48.932   5.278  18.135  0.00  0.00    +0.000 A 
BRANCH  10  15
ATOM     15  O   UNL     1      47.571   3.964  15.003  0.00  0.00    +0.000 OA
ATOM     16  H   UNL     1      46.947   3.210  14.984  0.00  0.00    +0.000 HD
ENDBRANCH  10  15
ENDBRANCH   1   8
BRANCH   3  17
ATOM     17  C   UNL     1      47.307   8.209  13.338  0.00  0.00    +0.000 C 
BRANCH  17  18
ATOM     18  C   UNL     1      46.338   7.320  12.607  0.00  0.00    +0.000 A 
ATOM     19  C   UNL     1      46.657   5.974  12.417  0.00  0.00    +0.000 A 
ATOM     20  C   UNL     1      45.770   5.118  11.758  0.00  0.00    +0.000 A 
ATOM     21  C   UNL     1      44.544   5.593  11.279  0.00  0.00    +0.000 A 
ATOM     22  C   UNL     1      44.242   6.951  11.436  0.00  0.00    +0.000 A 
ATOM     23  C   UNL     1      45.129   7.811  12.089  0.00  0.00    +0.000 A 
BRANCH  21  24
ATOM     24  C   UNL     1      43.559   4.679  10.594  0.00  0.00    +0.000 C 
BRANCH  24  25
ATOM     25  S   UNL     1      44.315   3.253   9.751  0.00  0.00    +0.000 S 
BRANCH  25  26
ATOM     26  C   UNL     1      45.216   4.072   8.383  0.00  0.00    +0.000 C 
BRANCH  26  27
ATOM     27  C   UNL     1      45.995   3.043   7.586  0.00  0.00    +0.000 A 
ATOM     28  C   UNL     1      46.306   1.781   8.122  0.00  0.00    +0.000 A 
ATOM     29  C   UNL     1      47.061   0.860   7.390  0.00  0.00    +0.000 A 
ATOM     30  C   UNL     1      47.522   1.189   6.116  0.00  0.00    +0.000 A 
ATOM     31  C   UNL     1      47.226   2.437   5.575  0.00  0.00    +0.000 A 
ATOM     32  C   UNL     1      46.470   3.358   6.304  0.00  0.00    +0.000 A 
ENDBRANCH  26  27
ENDBRANCH  25  26
ENDBRANCH  24  25
ENDBRANCH  21  24
ENDBRANCH  17  18
ENDBRANCH   3  17
TORSDOF 8
ENDMDL
MODEL 2
REMARK VINA RESULT:    -7.922      1.969      3.113
REMARK INTER + INTRA:         -12.258
REMARK INTER:                 -11.289
REMARK INTRA:                  -0.969
REMARK UNBOUND:                -0.863
REMARK  Name = 
REMARK  9 active torsions:
REMARK  status: ('A' for Active; 'I' for Inactive)
REMARK    1  A    between atoms: C_1  and  N_2
REMARK    2  A    between atoms: C_4  and  C_5
REMARK    3  A    between atoms: N_7  and  C_8
REMARK    4  A    between atoms: C_8  and  C_9
REMARK    5  A    between atoms: C_12  and  C_13
REMARK    6  A    between atoms: C_13  and  S_14
REMARK    7  A    between atoms: S_14  and  C_15
REMARK    8  A    between atoms: C_15  and  C_16
REMARK    9  A    between atoms: C_25  and  O_26
REMARK                            x       y       z     vdW  Elec       q    Type
REMARK                         _______ _______ _______ _____ _____    ______ ____
ROOT
ATOM      1  C   UNL     1      48.955   6.690  16.137  0.00  0.00    +0.000 C 
ATOM      2  O   UNL     1      50.052   6.180  15.928  0.00  0.00    +0.000 OA
ATOM      3  N   UNL     1      48.075   7.017  15.137  0.00  0.00    +0.000 N 
ATOM      4  H   UNL     1      47.192   7.449  15.358  0.00  0.00    +0.000 HD
ENDROOT
BRANCH   1   8
ATOM      5  C   UNL     1      47.693   6.242  20.958  0.00  0.00    +0.000 C 
ATOM      6  N   UNL     1      47.936   6.803  19.649  0.00  0.00    +0.000 N 
ATOM      7  C   UNL     1      48.395   6.105  18.565  0.00  0.00    +0.000 A 
ATOM      8  C   UNL     1      48.505   6.985  17.488  0.00  0.00    +0.000 A 
ATOM      9  C   UNL     1      48.084   8.267  17.974  0.00  0.00    +0.000 A 
ATOM     10  C   UNL     1      47.944   9.560  17.455  0.00  0.00    +0.000 A 
ATOM     11  N   UNL     1      47.504  10.561  18.237  0.00  0.00    +0.000 NA
ATOM     12  C   UNL     1      47.207  10.266  19.514  0.00  0.00    +0.000 A 
ATOM     13  N   UNL     1      47.293   9.076  20.135  0.00  0.00    +0.000 NA
ATOM     14  C   UNL     1      47.739   8.116  19.309  0.00  0.00    +0.000 A 
BRANCH  10  15
ATOM     15  O   UNL     1      48.233   9.913  16.161  0.00  0.00    +0.000 OA
ATOM     16  H   UNL     1      47.902  10.823  16.016  0.00  0.00    +0.000 HD
ENDBRANCH  10  15
ENDBRANCH   1   8
BRANCH   3  17
ATOM     17  C   UNL     1      48.404   6.789  13.755  0.00  0.00    +0.000 C 
BRANCH  17  18
ATOM     18  C   UNL     1      47.262   6.145  13.016  0.00  0.00    +0.000 A 
ATOM     19  C   UNL     1      46.690   4.978  13.528  0.00  0.00    +0.000 A 
ATOM     20  C   UNL     1      45.617   4.366  12.874  0.00  0.00    +0.000 A 
ATOM     21  C   UNL     1      45.094   4.912  11.696  0.00  0.00    +0.000 A 
ATOM     22  C   UNL     1      45.693   6.059  11.164  0.00  0.00    +0.000 A 
ATOM     23  C   UNL     1      46.771   6.672  11.811  0.00  0.00    +0.000 A 
BRANCH  21  24
ATOM     24  C   UNL     1      43.916   4.285  10.993  0.00  0.00    +0.000 C 
BRANCH  24  25
ATOM     25  S   UNL     1      44.348   2.907   9.882  0.00  0.00    +0.000 S 
BRANCH  25  26
ATOM     26  C   UNL     1      44.997   3.804   8.422  0.00  0.00    +0.000 C 
BRANCH  26  27
ATOM     27  C   UNL     1      45.929   2.905   7.634  0.00  0.00    +0.000 A 
ATOM     28  C   UNL     1      46.476   3.313   6.405  0.00  0.00    +0.000 A 
ATOM     29  C   UNL     1      47.301   2.455   5.671  0.00  0.00    +0.000 A 
ATOM     30  C   UNL     1      47.584   1.177   6.150  0.00  0.00    +0.000 A 
ATOM     31  C   UNL     1      47.045   0.759   7.364  0.00  0.00    +0.000 A 
ATOM     32  C   UNL     1      46.223   1.615   8.100  0.00  0.00    +0.000 A 
ENDBRANCH  26  27
ENDBRANCH  25  26
ENDBRANCH  24  25
ENDBRANCH  21  24
ENDBRANCH  17  18
ENDBRANCH   3  17
TORSDOF 8
ENDMDL
MODEL 3
REMARK VINA RESULT:    -7.868      1.731      2.426
REMARK INTER + INTRA:         -12.180
REMARK INTER:                 -11.250
REMARK INTRA:                  -0.930
REMARK UNBOUND:                -0.863
REMARK  Name = 
REMARK  9 active torsions:
REMARK  status: ('A' for Active; 'I' for Inactive)
REMARK    1  A    between atoms: C_1  and  N_2
REMARK    2  A    between atoms: C_4  and  C_5
REMARK    3  A    between atoms: N_7  and  C_8
REMARK    4  A    between atoms: C_8  and  C_9
REMARK    5  A    between atoms: C_12  and  C_13
REMARK    6  A    between atoms: C_13  and  S_14
REMARK    7  A    between atoms: S_14  and  C_15
REMARK    8  A    between atoms: C_15  and  C_16
REMARK    9  A    between atoms: C_25  and  O_26
REMARK                            x       y       z     vdW  Elec       q    Type
REMARK                         _______ _______ _______ _____ _____    ______ ____
ROOT
ATOM      1  C   UNL     1      48.927   6.372  16.472  0.00  0.00    +0.000 C 
ATOM      2  O   UNL     1      49.862   5.585  16.346  0.00  0.00    +0.000 OA
ATOM      3  N   UNL     1      48.216   6.870  15.412  0.00  0.00    +0.000 N 
ATOM      4  H   UNL     1      47.467   7.527  15.566  0.00  0.00    +0.000 HD
ENDROOT
BRANCH   1   8
ATOM      5  C   UNL     1      47.242   9.232  20.216  0.00  0.00    +0.000 C 
ATOM      6  N   UNL     1      47.749   8.102  19.473  0.00  0.00    +0.000 N 
ATOM      7  C   UNL     1      48.043   8.104  18.136  0.00  0.00    +0.000 A 
ATOM      8  C   UNL     1      48.503   6.835  17.784  0.00  0.00    +0.000 A 
ATOM      9  C   UNL     1      48.478   6.051  18.985  0.00  0.00    +0.000 A 
ATOM     10  C   UNL     1      48.795   4.739  19.356  0.00  0.00    +0.000 A 
ATOM     11  N   UNL     1      48.636   4.336  20.628  0.00  0.00    +0.000 NA
ATOM     12  C   UNL     1      48.173   5.236  21.511  0.00  0.00    +0.000 A 
ATOM     13  N   UNL     1      47.834   6.519  21.291  0.00  0.00    +0.000 NA
ATOM     14  C   UNL     1      48.010   6.866  20.006  0.00  0.00    +0.000 A 
BRANCH  10  15
ATOM     15  O   UNL     1      49.271   3.783  18.494  0.00  0.00    +0.000 OA
ATOM     16  H   UNL     1      48.557   3.130  18.344  0.00  0.00    +0.000 HD
ENDBRANCH  10  15
ENDBRANCH   1   8
BRANCH   3  17
ATOM     17  C   UNL     1      48.542   6.502  14.060  0.00  0.00    +0.000 C 
BRANCH  17  18
ATOM     18  C   UNL     1      47.347   5.945  13.336  0.00  0.00    +0.000 A 
ATOM     19  C   UNL     1      46.852   6.618  12.217  0.00  0.00    +0.000 A 
ATOM     20  C   UNL     1      45.754   6.117  11.513  0.00  0.00    +0.000 A 
ATOM     21  C   UNL     1      45.130   4.930  11.914  0.00  0.00    +0.000 A 
ATOM     22  C   UNL     1      45.603   4.277  13.059  0.00  0.00    +0.000 A 
ATOM     23  C   UNL     1      46.697   4.778  13.770  0.00  0.00    +0.000 A 
BRANCH  21  24
ATOM     24  C   UNL     1      43.965   4.355  11.149  0.00  0.00    +0.000 C 
BRANCH  24  25
ATOM     25  S   UNL     1      44.400   2.983  10.033  0.00  0.00    +0.000 S 
BRANCH  25  26
ATOM     26  C   UNL     1      45.097   3.885   8.599  0.00  0.00    +0.000 C 
BRANCH  26  27
ATOM     27  C   UNL     1      45.960   2.954   7.771  0.00  0.00    +0.000 A 
ATOM     28  C   UNL     1      46.500   3.357   6.537  0.00  0.00    +0.000 A 
ATOM     29  C   UNL     1      47.260   2.472   5.766  0.00  0.00    +0.000 A 
ATOM     30  C   UNL     1      47.484   1.170   6.213  0.00  0.00    +0.000 A 
ATOM     31  C   UNL     1      46.951   0.756   7.431  0.00  0.00    +0.000 A 
ATOM     32  C   UNL     1      46.194   1.640   8.203  0.00  0.00    +0.000 A 
ENDBRANCH  26  27
ENDBRANCH  25  26
ENDBRANCH  24  25
ENDBRANCH  21  24
ENDBRANCH  17  18
ENDBRANCH   3  17
TORSDOF 8
ENDMDL
MODEL 4
REMARK VINA RESULT:    -7.763      4.121      9.739
REMARK INTER + INTRA:         -12.029
REMARK INTER:                  -9.789
REMARK INTRA:                  -2.239
REMARK UNBOUND:                -0.863
REMARK  Name = 
REMARK  9 active torsions:
REMARK  status: ('A' for Active; 'I' for Inactive)
REMARK    1  A    between atoms: C_1  and  N_2
REMARK    2  A    between atoms: C_4  and  C_5
REMARK    3  A    between atoms: N_7  and  C_8
REMARK    4  A    between atoms: C_8  and  C_9
REMARK    5  A    between atoms: C_12  and  C_13
REMARK    6  A    between atoms: C_13  and  S_14
REMARK    7  A    between atoms: S_14  and  C_15
REMARK    8  A    between atoms: C_15  and  C_16
REMARK    9  A    between atoms: C_25  and  O_26
REMARK                            x       y       z     vdW  Elec       q    Type
REMARK                         _______ _______ _______ _____ _____    ______ ____
ROOT
ATOM      1  C   UNL     1      46.806   4.151  14.398  0.00  0.00    +0.000 C 
ATOM      2  O   UNL     1      47.339   3.146  13.937  0.00  0.00    +0.000 OA
ATOM      3  N   UNL     1      46.794   4.448  15.737  0.00  0.00    +0.000 N 
ATOM      4  H   UNL     1      46.329   5.278  16.069  0.00  0.00    +0.000 HD
ENDROOT
BRANCH   1   8
ATOM      5  C   UNL     1      45.511   8.388  12.073  0.00  0.00    +0.000 C 
ATOM      6  N   UNL     1      45.547   7.004  12.485  0.00  0.00    +0.000 N 
ATOM      7  C   UNL     1      46.408   6.478  13.410  0.00  0.00    +0.000 A 
ATOM      8  C   UNL     1      46.139   5.115  13.537  0.00  0.00    +0.000 A 
ATOM      9  C   UNL     1      45.060   4.833  12.636  0.00  0.00    +0.000 A 
ATOM     10  C   UNL     1      44.308   3.712  12.261  0.00  0.00    +0.000 A 
ATOM     11  N   UNL     1      43.332   3.826  11.345  0.00  0.00    +0.000 NA
ATOM     12  C   UNL     1      43.113   5.043  10.818  0.00  0.00    +0.000 A 
ATOM     13  N   UNL     1      43.755   6.194  11.088  0.00  0.00    +0.000 NA
ATOM     14  C   UNL     1      44.719   6.022  12.007  0.00  0.00    +0.000 A 
BRANCH  10  15
ATOM     15  O   UNL     1      44.491   2.450  12.768  0.00  0.00    +0.000 OA
ATOM     16  H   UNL     1      43.752   2.263  13.383  0.00  0.00    +0.000 HD
ENDBRANCH  10  15
ENDBRANCH   1   8
BRANCH   3  17
ATOM     17  C   UNL     1      47.407   3.570  16.698  0.00  0.00    +0.000 C 
BRANCH  17  18
ATOM     18  C   UNL     1      48.799   4.020  17.047  0.00  0.00    +0.000 A 
ATOM     19  C   UNL     1      49.138   5.367  16.898  0.00  0.00    +0.000 A 
ATOM     20  C   UNL     1      50.417   5.821  17.231  0.00  0.00    +0.000 A 
ATOM     21  C   UNL     1      51.383   4.934  17.720  0.00  0.00    +0.000 A 
ATOM     22  C   UNL     1      51.055   3.578  17.831  0.00  0.00    +0.000 A 
ATOM     23  C   UNL     1      49.778   3.119  17.495  0.00  0.00    +0.000 A 
BRANCH  21  24
ATOM     24  C   UNL     1      52.760   5.408  18.115  0.00  0.00    +0.000 C 
BRANCH  24  25
ATOM     25  S   UNL     1      52.769   6.861  19.213  0.00  0.00    +0.000 S 
BRANCH  25  26
ATOM     26  C   UNL     1      52.158   6.138  20.782  0.00  0.00    +0.000 C 
BRANCH  26  27
ATOM     27  C   UNL     1      50.644   6.058  20.760  0.00  0.00    +0.000 A 
ATOM     28  C   UNL     1      49.854   7.179  20.454  0.00  0.00    +0.000 A 
ATOM     29  C   UNL     1      48.459   7.099  20.480  0.00  0.00    +0.000 A 
ATOM     30  C   UNL     1      47.834   5.900  20.819  0.00  0.00    +0.000 A 
ATOM     31  C   UNL     1      48.604   4.782  21.130  0.00  0.00    +0.000 A 
ATOM     32  C   UNL     1      49.999   4.861  21.103  0.00  0.00    +0.000 A 
ENDBRANCH  26  27
ENDBRANCH  25  26
ENDBRANCH  24  25
ENDBRANCH  21  24
ENDBRANCH  17  18
ENDBRANCH   3  17
TORSDOF 8
ENDMDL
MODEL 5
REMARK VINA RESULT:    -7.625      4.228      8.809
REMARK INTER + INTRA:         -11.830
REMARK INTER:                  -9.277
REMARK INTRA:                  -2.553
REMARK UNBOUND:                -0.863
REMARK  Name = 
REMARK  9 active torsions:
REMARK  status: ('A' for Active; 'I' for Inactive)
REMARK    1  A    between atoms: C_1  and  N_2
REMARK    2  A    between atoms: C_4  and  C_5
REMARK    3  A    between atoms: N_7  and  C_8
REMARK    4  A    between atoms: C_8  and  C_9
REMARK    5  A    between atoms: C_12  and  C_13
REMARK    6  A    between atoms: C_13  and  S_14
REMARK    7  A    between atoms: S_14  and  C_15
REMARK    8  A    between atoms: C_15  and  C_16
REMARK    9  A    between atoms: C_25  and  O_26
REMARK                            x       y       z     vdW  Elec       q    Type
REMARK                         _______ _______ _______ _____ _____    ______ ____
ROOT
ATOM      1  C   UNL     1      46.855   4.179  14.227  0.00  0.00    +0.000 C 
ATOM      2  O   UNL     1      47.362   3.217  13.655  0.00  0.00    +0.000 OA
ATOM      3  N   UNL     1      46.936   4.375  15.581  0.00  0.00    +0.000 N 
ATOM      4  H   UNL     1      46.490   5.172  16.007  0.00  0.00    +0.000 HD
ENDROOT
BRANCH   1   8
ATOM      5  C   UNL     1      45.412   8.550  12.267  0.00  0.00    +0.000 C 
ATOM      6  N   UNL     1      45.463   7.146  12.601  0.00  0.00    +0.000 N 
ATOM      7  C   UNL     1      46.404   6.560  13.405  0.00  0.00    +0.000 A 
ATOM      8  C   UNL     1      46.123   5.196  13.489  0.00  0.00    +0.000 A 
ATOM      9  C   UNL     1      44.952   4.977  12.692  0.00  0.00    +0.000 A 
ATOM     10  C   UNL     1      44.144   3.889  12.340  0.00  0.00    +0.000 A 
ATOM     11  N   UNL     1      43.082   4.064  11.535  0.00  0.00    +0.000 NA
ATOM     12  C   UNL     1      42.834   5.310  11.097  0.00  0.00    +0.000 A 
ATOM     13  N   UNL     1      43.523   6.436  11.357  0.00  0.00    +0.000 NA
ATOM     14  C   UNL     1      44.572   6.202  12.162  0.00  0.00    +0.000 A 
BRANCH  10  15
ATOM     15  O   UNL     1      44.353   2.599  12.760  0.00  0.00    +0.000 OA
ATOM     16  H   UNL     1      44.645   2.631  13.693  0.00  0.00    +0.000 HD
ENDBRANCH  10  15
ENDBRANCH   1   8
BRANCH   3  17
ATOM     17  C   UNL     1      47.621   3.435  16.428  0.00  0.00    +0.000 C 
BRANCH  17  18
ATOM     18  C   UNL     1      48.348   4.130  17.548  0.00  0.00    +0.000 A 
ATOM     19  C   UNL     1      49.726   3.948  17.682  0.00  0.00    +0.000 A 
ATOM     20  C   UNL     1      50.434   4.593  18.700  0.00  0.00    +0.000 A 
ATOM     21  C   UNL     1      49.774   5.435  19.603  0.00  0.00    +0.000 A 
ATOM     22  C   UNL     1      48.387   5.586  19.491  0.00  0.00    +0.000 A 
ATOM     23  C   UNL     1      47.675   4.938  18.478  0.00  0.00    +0.000 A 
BRANCH  21  24
ATOM     24  C   UNL     1      50.524   6.166  20.689  0.00  0.00    +0.000 C 
BRANCH  24  25
ATOM     25  S   UNL     1      51.744   7.374  20.080  0.00  0.00    +0.000 S 
BRANCH  25  26
ATOM     26  C   UNL     1      50.666   8.586  19.229  0.00  0.00    +0.000 C 
BRANCH  26  27
ATOM     27  C   UNL     1      50.396   8.132  17.808  0.00  0.00    +0.000 A 
ATOM     28  C   UNL     1      49.111   8.215  17.243  0.00  0.00    +0.000 A 
ATOM     29  C   UNL     1      48.871   7.752  15.945  0.00  0.00    +0.000 A 
ATOM     30  C   UNL     1      49.907   7.194  15.198  0.00  0.00    +0.000 A 
ATOM     31  C   UNL     1      51.183   7.102  15.747  0.00  0.00    +0.000 A 
ATOM     32  C   UNL     1      51.426   7.565  17.043  0.00  0.00    +0.000 A 
ENDBRANCH  26  27
ENDBRANCH  25  26
ENDBRANCH  24  25
ENDBRANCH  21  24
ENDBRANCH  17  18
ENDBRANCH   3  17
TORSDOF 8
ENDMDL
MODEL 6
REMARK VINA RESULT:    -7.184      2.469      2.960
REMARK INTER + INTRA:         -11.197
REMARK INTER:                 -10.285
REMARK INTRA:                  -0.911
REMARK UNBOUND:                -0.863
REMARK  Name = 
REMARK  9 active torsions:
REMARK  status: ('A' for Active; 'I' for Inactive)
REMARK    1  A    between atoms: C_1  and  N_2
REMARK    2  A    between atoms: C_4  and  C_5
REMARK    3  A    between atoms: N_7  and  C_8
REMARK    4  A    between atoms: C_8  and  C_9
REMARK    5  A    between atoms: C_12  and  C_13
REMARK    6  A    between atoms: C_13  and  S_14
REMARK    7  A    between atoms: S_14  and  C_15
REMARK    8  A    between atoms: C_15  and  C_16
REMARK    9  A    between atoms: C_25  and  O_26
REMARK                            x       y       z     vdW  Elec       q    Type
REMARK                         _______ _______ _______ _____ _____    ______ ____
ROOT
ATOM      1  C   UNL     1      50.116   6.265  17.240  0.00  0.00    +0.000 C 
ATOM      2  O   UNL     1      49.545   6.889  18.130  0.00  0.00    +0.000 OA
ATOM      3  N   UNL     1      49.852   6.447  15.907  0.00  0.00    +0.000 N 
ATOM      4  H   UNL     1      50.335   5.898  15.213  0.00  0.00    +0.000 HD
ENDROOT
BRANCH   1   8
ATOM      5  C   UNL     1      54.391   4.079  18.646  0.00  0.00    +0.000 C 
ATOM      6  N   UNL     1      53.040   4.275  18.175  0.00  0.00    +0.000 N 
ATOM      7  C   UNL     1      52.427   5.489  18.017  0.00  0.00    +0.000 A 
ATOM      8  C   UNL     1      51.132   5.271  17.547  0.00  0.00    +0.000 A 
ATOM      9  C   UNL     1      50.983   3.850  17.424  0.00  0.00    +0.000 A 
ATOM     10  C   UNL     1      49.981   2.958  17.023  0.00  0.00    +0.000 A 
ATOM     11  N   UNL     1      50.205   1.634  17.039  0.00  0.00    +0.000 NA
ATOM     12  C   UNL     1      51.415   1.213  17.444  0.00  0.00    +0.000 A 
ATOM     13  N   UNL     1      52.461   1.956  17.851  0.00  0.00    +0.000 NA
ATOM     14  C   UNL     1      52.181   3.269  17.817  0.00  0.00    +0.000 A 
BRANCH  10  15
ATOM     15  O   UNL     1      48.731   3.335  16.601  0.00  0.00    +0.000 OA
ATOM     16  H   UNL     1      48.192   2.525  16.496  0.00  0.00    +0.000 HD
ENDBRANCH  10  15
ENDBRANCH   1   8
BRANCH   3  17
ATOM     17  C   UNL     1      48.859   7.391  15.469  0.00  0.00    +0.000 C 
BRANCH  17  18
ATOM     18  C   UNL     1      48.026   6.834  14.346  0.00  0.00    +0.000 A 
ATOM     19  C   UNL     1      47.360   5.620  14.528  0.00  0.00    +0.000 A 
ATOM     20  C   UNL     1      46.565   5.085  13.511  0.00  0.00    +0.000 A 
ATOM     21  C   UNL     1      46.419   5.757  12.292  0.00  0.00    +0.000 A 
ATOM     22  C   UNL     1      47.118   6.954  12.096  0.00  0.00    +0.000 A 
ATOM     23  C   UNL     1      47.919   7.490  13.109  0.00  0.00    +0.000 A 
BRANCH  21  24
ATOM     24  C   UNL     1      45.540   5.213  11.193  0.00  0.00    +0.000 C 
BRANCH  24  25
ATOM     25  S   UNL     1      45.074   3.464  11.398  0.00  0.00    +0.000 S 
BRANCH  25  26
ATOM     26  C   UNL     1      44.239   3.119   9.804  0.00  0.00    +0.000 C 
BRANCH  26  27
ATOM     27  C   UNL     1      45.270   2.823   8.733  0.00  0.00    +0.000 A 
ATOM     28  C   UNL     1      45.661   3.800   7.801  0.00  0.00    +0.000 A 
ATOM     29  C   UNL     1      46.582   3.498   6.792  0.00  0.00    +0.000 A 
ATOM     30  C   UNL     1      47.119   2.215   6.697  0.00  0.00    +0.000 A 
ATOM     31  C   UNL     1      46.736   1.236   7.611  0.00  0.00    +0.000 A 
ATOM     32  C   UNL     1      45.818   1.537   8.620  0.00  0.00    +0.000 A 
ENDBRANCH  26  27
ENDBRANCH  25  26
ENDBRANCH  24  25
ENDBRANCH  21  24
ENDBRANCH  17  18
ENDBRANCH   3  17
TORSDOF 8
ENDMDL
MODEL 7
REMARK VINA RESULT:    -7.021      4.435      9.001
REMARK INTER + INTRA:         -10.962
REMARK INTER:                  -9.337
REMARK INTRA:                  -1.625
REMARK UNBOUND:                -0.863
REMARK  Name = 
REMARK  9 active torsions:
REMARK  status: ('A' for Active; 'I' for Inactive)
REMARK    1  A    between atoms: C_1  and  N_2
REMARK    2  A    between atoms: C_4  and  C_5
REMARK    3  A    between atoms: N_7  and  C_8
REMARK    4  A    between atoms: C_8  and  C_9
REMARK    5  A    between atoms: C_12  and  C_13
REMARK    6  A    between atoms: C_13  and  S_14
REMARK    7  A    between atoms: S_14  and  C_15
REMARK    8  A    between atoms: C_15  and  C_16
REMARK    9  A    between atoms: C_25  and  O_26
REMARK                            x       y       z     vdW  Elec       q    Type
REMARK                         _______ _______ _______ _____ _____    ______ ____
ROOT
ATOM      1  C   UNL     1      46.870   4.172  14.539  0.00  0.00    +0.000 C 
ATOM      2  O   UNL     1      47.309   3.144  14.032  0.00  0.00    +0.000 OA
ATOM      3  N   UNL     1      46.757   4.353  15.893  0.00  0.00    +0.000 N 
ATOM      4  H   UNL     1      46.375   5.210  16.262  0.00  0.00    +0.000 HD
ENDROOT
BRANCH   1   8
ATOM      5  C   UNL     1      46.674   8.586  12.191  0.00  0.00    +0.000 C 
ATOM      6  N   UNL     1      46.329   7.264  12.658  0.00  0.00    +0.000 N 
ATOM      7  C   UNL     1      47.094   6.500  13.498  0.00  0.00    +0.000 A 
ATOM      8  C   UNL     1      46.433   5.291  13.719  0.00  0.00    +0.000 A 
ATOM      9  C   UNL     1      45.214   5.357  12.966  0.00  0.00    +0.000 A 
ATOM     10  C   UNL     1      44.110   4.528  12.735  0.00  0.00    +0.000 A 
ATOM     11  N   UNL     1      43.110   4.936  11.936  0.00  0.00    +0.000 NA
ATOM     12  C   UNL     1      43.215   6.157  11.384  0.00  0.00    +0.000 A 
ATOM     13  N   UNL     1      44.212   7.049  11.522  0.00  0.00    +0.000 NA
ATOM     14  C   UNL     1      45.183   6.589  12.328  0.00  0.00    +0.000 A 
BRANCH  10  15
ATOM     15  O   UNL     1      43.953   3.276  13.275  0.00  0.00    +0.000 OA
ATOM     16  H   UNL     1      44.492   3.230  14.090  0.00  0.00    +0.000 HD
ENDBRANCH  10  15
ENDBRANCH   1   8
BRANCH   3  17
ATOM     17  C   UNL     1      47.142   3.319  16.816  0.00  0.00    +0.000 C 
BRANCH  17  18
ATOM     18  C   UNL     1      48.609   3.391  17.144  0.00  0.00    +0.000 A 
ATOM     19  C   UNL     1      49.404   2.257  16.966  0.00  0.00    +0.000 A 
ATOM     20  C   UNL     1      50.773   2.296  17.245  0.00  0.00    +0.000 A 
ATOM     21  C   UNL     1      51.373   3.473  17.707  0.00  0.00    +0.000 A 
ATOM     22  C   UNL     1      50.568   4.598  17.923  0.00  0.00    +0.000 A 
ATOM     23  C   UNL     1      49.197   4.561  17.650  0.00  0.00    +0.000 A 
BRANCH  21  24
ATOM     24  C   UNL     1      52.854   3.547  17.984  0.00  0.00    +0.000 C 
BRANCH  24  25
ATOM     25  S   UNL     1      53.334   4.835  19.179  0.00  0.00    +0.000 S 
BRANCH  25  26
ATOM     26  C   UNL     1      54.138   6.066  18.086  0.00  0.00    +0.000 C 
BRANCH  26  27
ATOM     27  C   UNL     1      53.086   6.903  17.386  0.00  0.00    +0.000 A 
ATOM     28  C   UNL     1      52.878   6.811  15.999  0.00  0.00    +0.000 A 
ATOM     29  C   UNL     1      51.932   7.621  15.363  0.00  0.00    +0.000 A 
ATOM     30  C   UNL     1      51.188   8.540  16.102  0.00  0.00    +0.000 A 
ATOM     31  C   UNL     1      51.388   8.645  17.476  0.00  0.00    +0.000 A 
ATOM     32  C   UNL     1      52.331   7.835  18.113  0.00  0.00    +0.000 A 
ENDBRANCH  26  27
ENDBRANCH  25  26
ENDBRANCH  24  25
ENDBRANCH  21  24
ENDBRANCH  17  18
ENDBRANCH   3  17
TORSDOF 8
ENDMDL
MODEL 8
REMARK VINA RESULT:    -6.920      4.400      9.489
REMARK INTER + INTRA:         -10.816
REMARK INTER:                  -8.434
REMARK INTRA:                  -2.382
REMARK UNBOUND:                -0.863
REMARK  Name = 
REMARK  9 active torsions:
REMARK  status: ('A' for Active; 'I' for Inactive)
REMARK    1  A    between atoms: C_1  and  N_2
REMARK    2  A    between atoms: C_4  and  C_5
REMARK    3  A    between atoms: N_7  and  C_8
REMARK    4  A    between atoms: C_8  and  C_9
REMARK    5  A    between atoms: C_12  and  C_13
REMARK    6  A    between atoms: C_13  and  S_14
REMARK    7  A    between atoms: S_14  and  C_15
REMARK    8  A    between atoms: C_15  and  C_16
REMARK    9  A    between atoms: C_25  and  O_26
REMARK                            x       y       z     vdW  Elec       q    Type
REMARK                         _______ _______ _______ _____ _____    ______ ____
ROOT
ATOM      1  C   UNL     1      46.861   4.057  14.531  0.00  0.00    +0.000 C 
ATOM      2  O   UNL     1      47.317   3.002  14.100  0.00  0.00    +0.000 OA
ATOM      3  N   UNL     1      46.936   4.424  15.850  0.00  0.00    +0.000 N 
ATOM      4  H   UNL     1      46.531   5.294  16.159  0.00  0.00    +0.000 HD
ENDROOT
BRANCH   1   8
ATOM      5  C   UNL     1      43.542   6.247  11.495  0.00  0.00    +0.000 C 
ATOM      6  N   UNL     1      44.722   6.005  12.291  0.00  0.00    +0.000 N 
ATOM      7  C   UNL     1      44.962   4.871  13.020  0.00  0.00    +0.000 A 
ATOM      8  C   UNL     1      46.198   5.008  13.652  0.00  0.00    +0.000 A 
ATOM      9  C   UNL     1      46.705   6.293  13.269  0.00  0.00    +0.000 A 
ATOM     10  C   UNL     1      47.852   7.057  13.522  0.00  0.00    +0.000 A 
ATOM     11  N   UNL     1      47.993   8.273  12.968  0.00  0.00    +0.000 NA
ATOM     12  C   UNL     1      47.003   8.711  12.172  0.00  0.00    +0.000 A 
ATOM     13  N   UNL     1      45.858   8.085  11.846  0.00  0.00    +0.000 NA
ATOM     14  C   UNL     1      45.769   6.878  12.427  0.00  0.00    +0.000 A 
BRANCH  10  15
ATOM     15  O   UNL     1      48.890   6.655  14.325  0.00  0.00    +0.000 OA
ATOM     16  H   UNL     1      49.687   6.568  13.764  0.00  0.00    +0.000 HD
ENDBRANCH  10  15
ENDBRANCH   1   8
BRANCH   3  17
ATOM     17  C   UNL     1      47.554   3.568  16.826  0.00  0.00    +0.000 C 
BRANCH  17  18
ATOM     18  C   UNL     1      47.877   4.315  18.091  0.00  0.00    +0.000 A 
ATOM     19  C   UNL     1      46.994   5.297  18.546  0.00  0.00    +0.000 A 
ATOM     20  C   UNL     1      47.256   5.997  19.727  0.00  0.00    +0.000 A 
ATOM     21  C   UNL     1      48.407   5.726  20.477  0.00  0.00    +0.000 A 
ATOM     22  C   UNL     1      49.310   4.769  19.999  0.00  0.00    +0.000 A 
ATOM     23  C   UNL     1      49.054   4.071  18.815  0.00  0.00    +0.000 A 
BRANCH  21  24
ATOM     24  C   UNL     1      48.692   6.447  21.770  0.00  0.00    +0.000 C 
BRANCH  24  25
ATOM     25  S   UNL     1      50.327   7.247  21.842  0.00  0.00    +0.000 S 
BRANCH  25  26
ATOM     26  C   UNL     1      49.941   8.925  21.216  0.00  0.00    +0.000 C 
BRANCH  26  27
ATOM     27  C   UNL     1      49.434   8.842  19.790  0.00  0.00    +0.000 A 
ATOM     28  C   UNL     1      50.185   8.216  18.779  0.00  0.00    +0.000 A 
ATOM     29  C   UNL     1      49.721   8.185  17.460  0.00  0.00    +0.000 A 
ATOM     30  C   UNL     1      48.506   8.785  17.132  0.00  0.00    +0.000 A 
ATOM     31  C   UNL     1      47.754   9.412  18.122  0.00  0.00    +0.000 A 
ATOM     32  C   UNL     1      48.215   9.442  19.441  0.00  0.00    +0.000 A 
ENDBRANCH  26  27
ENDBRANCH  25  26
ENDBRANCH  24  25
ENDBRANCH  21  24
ENDBRANCH  17  18
ENDBRANCH   3  17
TORSDOF 8
ENDMDL
MODEL 9
REMARK VINA RESULT:    -6.864      4.486      8.520
REMARK INTER + INTRA:         -10.736
REMARK INTER:                  -8.155
REMARK INTRA:                  -2.581
REMARK UNBOUND:                -0.863
REMARK  Name = 
REMARK  9 active torsions:
REMARK  status: ('A' for Active; 'I' for Inactive)
REMARK    1  A    between atoms: C_1  and  N_2
REMARK    2  A    between atoms: C_4  and  C_5
REMARK    3  A    between atoms: N_7  and  C_8
REMARK    4  A    between atoms: C_8  and  C_9
REMARK    5  A    between atoms: C_12  and  C_13
REMARK    6  A    between atoms: C_13  and  S_14
REMARK    7  A    between atoms: S_14  and  C_15
REMARK    8  A    between atoms: C_15  and  C_16
REMARK    9  A    between atoms: C_25  and  O_26
REMARK                            x       y       z     vdW  Elec       q    Type
REMARK                         _______ _______ _______ _____ _____    ______ ____
ROOT
ATOM      1  C   UNL     1      47.934   6.762  13.277  0.00  0.00    +0.000 C 
ATOM      2  O   UNL     1      48.608   5.757  13.069  0.00  0.00    +0.000 OA
ATOM      3  N   UNL     1      48.378   7.823  14.023  0.00  0.00    +0.000 N 
ATOM      4  H   UNL     1      47.780   8.619  14.179  0.00  0.00    +0.000 HD
ENDROOT
BRANCH   1   8
ATOM      5  C   UNL     1      43.865   8.559  10.986  0.00  0.00    +0.000 C 
ATOM      6  N   UNL     1      44.760   7.685  11.708  0.00  0.00    +0.000 N 
ATOM      7  C   UNL     1      46.053   7.984  12.045  0.00  0.00    +0.000 A 
ATOM      8  C   UNL     1      46.592   6.896  12.732  0.00  0.00    +0.000 A 
ATOM      9  C   UNL     1      45.553   5.910  12.800  0.00  0.00    +0.000 A 
ATOM     10  C   UNL     1      45.401   4.622  13.327  0.00  0.00    +0.000 A 
ATOM     11  N   UNL     1      44.234   3.969  13.196  0.00  0.00    +0.000 NA
ATOM     12  C   UNL     1      43.238   4.600  12.551  0.00  0.00    +0.000 A 
ATOM     13  N   UNL     1      43.250   5.828  12.002  0.00  0.00    +0.000 NA
ATOM     14  C   UNL     1      44.438   6.432  12.161  0.00  0.00    +0.000 A 
BRANCH  10  15
ATOM     15  O   UNL     1      46.384   3.934  13.993  0.00  0.00    +0.000 OA
ATOM     16  H   UNL     1      46.957   3.506  13.326  0.00  0.00    +0.000 HD
ENDBRANCH  10  15
ENDBRANCH   1   8
BRANCH   3  17
ATOM     17  C   UNL     1      49.682   7.810  14.629  0.00  0.00    +0.000 C 
BRANCH  17  18
ATOM     18  C   UNL     1      49.592   7.862  16.130  0.00  0.00    +0.000 A 
ATOM     19  C   UNL     1      48.442   8.383  16.727  0.00  0.00    +0.000 A 
ATOM     20  C   UNL     1      48.321   8.429  18.119  0.00  0.00    +0.000 A 
ATOM     21  C   UNL     1      49.349   7.952  18.941  0.00  0.00    +0.000 A 
ATOM     22  C   UNL     1      50.517   7.466  18.341  0.00  0.00    +0.000 A 
ATOM     23  C   UNL     1      50.645   7.424  16.950  0.00  0.00    +0.000 A 
BRANCH  21  24
ATOM     24  C   UNL     1      49.225   7.963  20.444  0.00  0.00    +0.000 C 
BRANCH  24  25
ATOM     25  S   UNL     1      47.728   7.144  21.082  0.00  0.00    +0.000 S 
BRANCH  25  26
ATOM     26  C   UNL     1      48.217   5.380  21.008  0.00  0.00    +0.000 C 
BRANCH  26  27
ATOM     27  C   UNL     1      48.275   4.918  19.565  0.00  0.00    +0.000 A 
ATOM     28  C   UNL     1      47.195   5.116  18.687  0.00  0.00    +0.000 A 
ATOM     29  C   UNL     1      47.248   4.646  17.371  0.00  0.00    +0.000 A 
ATOM     30  C   UNL     1      48.377   3.966  16.917  0.00  0.00    +0.000 A 
ATOM     31  C   UNL     1      49.452   3.758  17.777  0.00  0.00    +0.000 A 
ATOM     32  C   UNL     1      49.401   4.228  19.092  0.00  0.00    +0.000 A 
ENDBRANCH  26  27
ENDBRANCH  25  26
ENDBRANCH  24  25
ENDBRANCH  21  24
ENDBRANCH  17  18
ENDBRANCH   3  17
TORSDOF 8
ENDMDL
