MODEL 1
REMARK VINA RESULT:    -8.103      0.000      0.000
REMARK INTER + INTRA:         -12.184
REMARK INTER:                 -10.945
REMARK INTRA:                  -1.239
REMARK UNBOUND:                -1.239
REMARK  Name = 
REMARK  7 active torsions:
REMARK  status: ('A' for Active; 'I' for Inactive)
REMARK    1  A    between atoms: C_1  and  C_2
REMARK    2  A    between atoms: C_6  and  C_7
REMARK    3  A    between atoms: N_9  and  C_10
REMARK    4  A    between atoms: C_10  and  C_11
REMARK    5  A    between atoms: C_14  and  C_15
REMARK    6  A    between atoms: C_15  and  N_16
REMARK    7  A    between atoms: C_17  and  C_19
REMARK                            x       y       z     vdW  Elec       q    Type
REMARK                         _______ _______ _______ _____ _____    ______ ____
ROOT
ATOM      1  C   UNL     1      44.845   5.845  10.878  0.00  0.00    +0.000 A 
ATOM      2  C   UNL     1      46.203   6.064  10.610  0.00  0.00    +0.000 A 
ATOM      3  C   UNL     1      46.989   6.848  11.466  0.00  0.00    +0.000 A 
ATOM      4  C   UNL     1      46.436   7.414  12.623  0.00  0.00    +0.000 A 
ATOM      5  C   UNL     1      45.075   7.206  12.883  0.00  0.00    +0.000 A 
ATOM      6  C   UNL     1      44.291   6.420  12.029  0.00  0.00    +0.000 A 
ENDROOT
BRANCH   1   7
ATOM      7  C   UNL     1      43.996   5.043   9.926  0.00  0.00    +0.000 C 
BRANCH   7  10
ATOM      8  C   UNL     1      44.993   2.912   9.235  0.00  0.00    +0.000 C 
ATOM      9  O   UNL     1      44.578   2.323  10.228  0.00  0.00    +0.000 OA
ATOM     10  N   UNL     1      44.758   4.253   8.994  0.00  0.00    +0.000 N 
ATOM     11  H   UNL     1      45.156   4.656   8.152  0.00  0.00    +0.000 HD
BRANCH   8  17
ATOM     12  C   UNL     1      47.407   2.903   4.841  0.00  0.00    +0.000 C 
ATOM     13  C   UNL     1      46.955   2.200   6.085  0.00  0.00    +0.000 A 
ATOM     14  C   UNL     1      47.268   0.860   6.319  0.00  0.00    +0.000 A 
ATOM     15  C   UNL     1      46.822   0.262   7.490  0.00  0.00    +0.000 A 
ATOM     16  N   UNL     1      46.091   0.890   8.433  0.00  0.00    +0.000 NA
ATOM     17  C   UNL     1      45.798   2.197   8.189  0.00  0.00    +0.000 A 
ATOM     18  C   UNL     1      46.200   2.881   7.043  0.00  0.00    +0.000 A 
ENDBRANCH   8  17
ENDBRANCH   7  10
ENDBRANCH   1   7
BRANCH   4  19
ATOM     19  C   UNL     1      47.273   8.239  13.571  0.00  0.00    +0.000 C 
BRANCH  19  20
ATOM     20  N   UNL     1      47.645   7.497  14.750  0.00  0.00    +0.000 N 
ATOM     21  C   UNL     1      48.870   6.884  14.848  0.00  0.00    +0.000 C 
ATOM     22  O   UNL     1      49.715   6.966  13.960  0.00  0.00    +0.000 OA
ATOM     23  H   UNL     1      46.890   7.193  15.356  0.00  0.00    +0.000 HD
BRANCH  21  24
ATOM     24  C   UNL     1      49.143   6.168  16.103  0.00  0.00    +0.000 A 
ATOM     25  C   UNL     1      50.180   6.587  16.928  0.00  0.00    +0.000 A 
ATOM     26  S   UNL     1      50.319   5.674  18.363  0.00  0.00    +0.000 S 
ATOM     27  C   UNL     1      49.035   4.657  17.906  0.00  0.00    +0.000 A 
ATOM     28  N   UNL     1      48.642   3.619  18.698  0.00  0.00    +0.000 NA
ATOM     29  C   UNL     1      47.673   2.917  18.211  0.00  0.00    +0.000 A 
ATOM     30  N   UNL     1      47.052   3.164  17.015  0.00  0.00    +0.000 N 
ATOM     31  C   UNL     1      47.395   4.216  16.201  0.00  0.00    +0.000 A 
ATOM     32  O   UNL     1      46.778   4.436  15.157  0.00  0.00    +0.000 OA
ATOM     33  C   UNL     1      48.490   5.026  16.690  0.00  0.00    +0.000 A 
ATOM     34  H   UNL     1      46.288   2.585  16.698  0.00  0.00    +0.000 HD
ENDBRANCH  21  24
ENDBRANCH  19  20
ENDBRANCH   4  19
TORSDOF 6
ENDMDL
MODEL 2
REMARK VINA RESULT:    -7.827      3.577      6.254
REMARK INTER + INTRA:         -11.811
REMARK INTER:                 -10.836
REMARK INTRA:                  -0.976
REMARK UNBOUND:                -1.239
REMARK  Name = 
REMARK  7 active torsions:
REMARK  status: ('A' for Active; 'I' for Inactive)
REMARK    1  A    between atoms: C_1  and  C_2
REMARK    2  A    between atoms: C_6  and  C_7
REMARK    3  A    between atoms: N_9  and  C_10
REMARK    4  A    between atoms: C_10  and  C_11
REMARK    5  A    between atoms: C_14  and  C_15
REMARK    6  A    between atoms: C_15  and  N_16
REMARK    7  A    between atoms: C_17  and  C_19
REMARK                            x       y       z     vdW  Elec       q    Type
REMARK                         _______ _______ _______ _____ _____    ______ ____
ROOT
ATOM      1  C   UNL     1      46.876   2.136   6.661  0.00  0.00    +0.000 A 
ATOM      2  C   UNL     1      46.558   3.491   6.828  0.00  0.00    +0.000 A 
ATOM      3  C   UNL     1      45.810   3.924   7.932  0.00  0.00    +0.000 A 
ATOM      4  C   UNL     1      45.382   3.012   8.906  0.00  0.00    +0.000 A 
ATOM      5  C   UNL     1      45.689   1.655   8.731  0.00  0.00    +0.000 A 
ATOM      6  C   UNL     1      46.439   1.223   7.630  0.00  0.00    +0.000 A 
ENDROOT
BRANCH   1   7
ATOM      7  C   UNL     1      47.638   1.672   5.445  0.00  0.00    +0.000 C 
BRANCH   7  10
ATOM      8  C   UNL     1      46.829   0.046   3.797  0.00  0.00    +0.000 C 
ATOM      9  O   UNL     1      46.613   0.913   2.955  0.00  0.00    +0.000 OA
ATOM     10  N   UNL     1      47.335   0.320   5.054  0.00  0.00    +0.000 N 
ATOM     11  H   UNL     1      47.466  -0.462   5.689  0.00  0.00    +0.000 HD
BRANCH   8  17
ATOM     12  C   UNL     1      46.856  -4.763   5.214  0.00  0.00    +0.000 C 
ATOM     13  C   UNL     1      46.569  -3.703   4.194  0.00  0.00    +0.000 A 
ATOM     14  C   UNL     1      46.037  -4.020   2.943  0.00  0.00    +0.000 A 
ATOM     15  C   UNL     1      45.793  -2.994   2.039  0.00  0.00    +0.000 A 
ATOM     16  N   UNL     1      46.041  -1.692   2.283  0.00  0.00    +0.000 NA
ATOM     17  C   UNL     1      46.557  -1.401   3.509  0.00  0.00    +0.000 A 
ATOM     18  C   UNL     1      46.837  -2.361   4.480  0.00  0.00    +0.000 A 
ENDBRANCH   8  17
ENDBRANCH   7  10
ENDBRANCH   1   7
BRANCH   4  19
ATOM     19  C   UNL     1      44.599   3.463  10.115  0.00  0.00    +0.000 C 
BRANCH  19  20
ATOM     20  N   UNL     1      45.132   4.676  10.684  0.00  0.00    +0.000 N 
ATOM     21  C   UNL     1      44.309   5.621  11.242  0.00  0.00    +0.000 C 
ATOM     22  O   UNL     1      43.093   5.467  11.318  0.00  0.00    +0.000 OA
ATOM     23  H   UNL     1      46.068   4.942  10.396  0.00  0.00    +0.000 HD
BRANCH  21  24
ATOM     24  C   UNL     1      44.967   6.811  11.803  0.00  0.00    +0.000 A 
ATOM     25  C   UNL     1      44.550   8.080  11.419  0.00  0.00    +0.000 A 
ATOM     26  S   UNL     1      45.389   9.340  12.207  0.00  0.00    +0.000 S 
ATOM     27  C   UNL     1      46.372   8.235  13.047  0.00  0.00    +0.000 A 
ATOM     28  N   UNL     1      47.347   8.664  13.898  0.00  0.00    +0.000 NA
ATOM     29  C   UNL     1      48.032   7.714  14.443  0.00  0.00    +0.000 A 
ATOM     30  N   UNL     1      47.823   6.377  14.229  0.00  0.00    +0.000 N 
ATOM     31  C   UNL     1      46.833   5.900  13.405  0.00  0.00    +0.000 A 
ATOM     32  O   UNL     1      46.643   4.689  13.278  0.00  0.00    +0.000 OA
ATOM     33  C   UNL     1      46.046   6.924  12.751  0.00  0.00    +0.000 A 
ATOM     34  H   UNL     1      48.385   5.682  14.700  0.00  0.00    +0.000 HD
ENDBRANCH  21  24
ENDBRANCH  19  20
ENDBRANCH   4  19
TORSDOF 6
ENDMDL
MODEL 3
REMARK VINA RESULT:    -7.767      1.832      2.041
REMARK INTER + INTRA:         -11.731
REMARK INTER:                 -10.874
REMARK INTRA:                  -0.857
REMARK UNBOUND:                -1.239
REMARK  Name = 
REMARK  7 active torsions:
REMARK  status: ('A' for Active; 'I' for Inactive)
REMARK    1  A    between atoms: C_1  and  C_2
REMARK    2  A    between atoms: C_6  and  C_7
REMARK    3  A    between atoms: N_9  and  C_10
REMARK    4  A    between atoms: C_10  and  C_11
REMARK    5  A    between atoms: C_14  and  C_15
REMARK    6  A    between atoms: C_15  and  N_16
REMARK    7  A    between atoms: C_17  and  C_19
REMARK                            x       y       z     vdW  Elec       q    Type
REMARK                         _______ _______ _______ _____ _____    ______ ____
ROOT
ATOM      1  C   UNL     1      45.385   4.580  12.058  0.00  0.00    +0.000 A 
ATOM      2  C   UNL     1      46.154   4.200  13.167  0.00  0.00    +0.000 A 
ATOM      3  C   UNL     1      47.045   5.099  13.768  0.00  0.00    +0.000 A 
ATOM      4  C   UNL     1      47.171   6.409  13.285  0.00  0.00    +0.000 A 
ATOM      5  C   UNL     1      46.412   6.785  12.168  0.00  0.00    +0.000 A 
ATOM      6  C   UNL     1      45.519   5.886  11.570  0.00  0.00    +0.000 A 
ENDROOT
BRANCH   1   7
ATOM      7  C   UNL     1      44.467   3.591  11.387  0.00  0.00    +0.000 C 
BRANCH   7  10
ATOM      8  C   UNL     1      45.180   3.200   9.073  0.00  0.00    +0.000 C 
ATOM      9  O   UNL     1      44.701   4.259   8.680  0.00  0.00    +0.000 OA
ATOM     10  N   UNL     1      45.117   2.781  10.389  0.00  0.00    +0.000 N 
ATOM     11  H   UNL     1      45.529   1.882  10.617  0.00  0.00    +0.000 HD
BRANCH   8  17
ATOM     12  C   UNL     1      47.638   2.379   4.782  0.00  0.00    +0.000 C 
ATOM     13  C   UNL     1      47.065   1.883   6.075  0.00  0.00    +0.000 A 
ATOM     14  C   UNL     1      47.169   0.543   6.452  0.00  0.00    +0.000 A 
ATOM     15  C   UNL     1      46.619   0.142   7.662  0.00  0.00    +0.000 A 
ATOM     16  N   UNL     1      45.975   0.966   8.513  0.00  0.00    +0.000 NA
ATOM     17  C   UNL     1      45.886   2.270   8.131  0.00  0.00    +0.000 A 
ATOM     18  C   UNL     1      46.405   2.764   6.936  0.00  0.00    +0.000 A 
ENDBRANCH   8  17
ENDBRANCH   7  10
ENDBRANCH   1   7
BRANCH   4  19
ATOM     19  C   UNL     1      48.105   7.400  13.936  0.00  0.00    +0.000 C 
BRANCH  19  20
ATOM     20  N   UNL     1      48.001   7.380  15.373  0.00  0.00    +0.000 N 
ATOM     21  C   UNL     1      49.041   6.947  16.157  0.00  0.00    +0.000 C 
ATOM     22  O   UNL     1      50.116   6.593  15.679  0.00  0.00    +0.000 OA
ATOM     23  H   UNL     1      47.064   7.402  15.764  0.00  0.00    +0.000 HD
BRANCH  21  24
ATOM     24  C   UNL     1      48.824   6.983  17.611  0.00  0.00    +0.000 A 
ATOM     25  C   UNL     1      48.670   8.204  18.258  0.00  0.00    +0.000 A 
ATOM     26  S   UNL     1      48.376   8.054  19.932  0.00  0.00    +0.000 S 
ATOM     27  C   UNL     1      48.498   6.359  19.858  0.00  0.00    +0.000 A 
ATOM     28  N   UNL     1      48.367   5.594  20.979  0.00  0.00    +0.000 NA
ATOM     29  C   UNL     1      48.510   4.326  20.775  0.00  0.00    +0.000 A 
ATOM     30  N   UNL     1      48.756   3.752  19.556  0.00  0.00    +0.000 N 
ATOM     31  C   UNL     1      48.863   4.482  18.397  0.00  0.00    +0.000 A 
ATOM     32  O   UNL     1      49.033   3.925  17.311  0.00  0.00    +0.000 OA
ATOM     33  C   UNL     1      48.730   5.913  18.570  0.00  0.00    +0.000 A 
ATOM     34  H   UNL     1      48.841   2.750  19.462  0.00  0.00    +0.000 HD
ENDBRANCH  21  24
ENDBRANCH  19  20
ENDBRANCH   4  19
TORSDOF 6
ENDMDL
MODEL 4
REMARK VINA RESULT:    -7.519      1.306      1.892
REMARK INTER + INTRA:         -11.395
REMARK INTER:                 -10.337
REMARK INTRA:                  -1.059
REMARK UNBOUND:                -1.239
REMARK  Name = 
REMARK  7 active torsions:
REMARK  status: ('A' for Active; 'I' for Inactive)
REMARK    1  A    between atoms: C_1  and  C_2
REMARK    2  A    between atoms: C_6  and  C_7
REMARK    3  A    between atoms: N_9  and  C_10
REMARK    4  A    between atoms: C_10  and  C_11
REMARK    5  A    between atoms: C_14  and  C_15
REMARK    6  A    between atoms: C_15  and  N_16
REMARK    7  A    between atoms: C_17  and  C_19
REMARK                            x       y       z     vdW  Elec       q    Type
REMARK                         _______ _______ _______ _____ _____    ______ ____
ROOT
ATOM      1  C   UNL     1      45.328   6.795  11.467  0.00  0.00    +0.000 A 
ATOM      2  C   UNL     1      44.940   8.024  12.016  0.00  0.00    +0.000 A 
ATOM      3  C   UNL     1      45.762   8.698  12.929  0.00  0.00    +0.000 A 
ATOM      4  C   UNL     1      47.005   8.165  13.298  0.00  0.00    +0.000 A 
ATOM      5  C   UNL     1      47.387   6.929  12.760  0.00  0.00    +0.000 A 
ATOM      6  C   UNL     1      46.566   6.257  11.844  0.00  0.00    +0.000 A 
ENDROOT
BRANCH   1   7
ATOM      7  C   UNL     1      44.416   6.052  10.525  0.00  0.00    +0.000 C 
BRANCH   7  10
ATOM      8  C   UNL     1      44.833   3.914   9.399  0.00  0.00    +0.000 C 
ATOM      9  O   UNL     1      43.993   3.324  10.071  0.00  0.00    +0.000 OA
ATOM     10  N   UNL     1      45.115   5.260   9.547  0.00  0.00    +0.000 N 
ATOM     11  H   UNL     1      45.838   5.657   8.955  0.00  0.00    +0.000 HD
BRANCH   8  17
ATOM     12  C   UNL     1      46.890  -0.285   7.589  0.00  0.00    +0.000 C 
ATOM     13  C   UNL     1      46.607   1.183   7.481  0.00  0.00    +0.000 A 
ATOM     14  C   UNL     1      47.065   1.937   6.399  0.00  0.00    +0.000 A 
ATOM     15  C   UNL     1      46.771   3.294   6.354  0.00  0.00    +0.000 A 
ATOM     16  N   UNL     1      46.067   3.950   7.298  0.00  0.00    +0.000 NA
ATOM     17  C   UNL     1      45.626   3.198   8.345  0.00  0.00    +0.000 A 
ATOM     18  C   UNL     1      45.873   1.833   8.478  0.00  0.00    +0.000 A 
ENDBRANCH   8  17
ENDBRANCH   7  10
ENDBRANCH   1   7
BRANCH   4  19
ATOM     19  C   UNL     1      47.916   8.888  14.259  0.00  0.00    +0.000 C 
BRANCH  19  20
ATOM     20  N   UNL     1      48.118   8.146  15.478  0.00  0.00    +0.000 N 
ATOM     21  C   UNL     1      49.377   7.935  15.983  0.00  0.00    +0.000 C 
ATOM     22  O   UNL     1      50.382   8.395  15.448  0.00  0.00    +0.000 OA
ATOM     23  H   UNL     1      47.358   7.543  15.777  0.00  0.00    +0.000 HD
BRANCH  21  24
ATOM     24  C   UNL     1      49.458   7.175  17.240  0.00  0.00    +0.000 A 
ATOM     25  C   UNL     1      50.031   7.755  18.365  0.00  0.00    +0.000 A 
ATOM     26  S   UNL     1      49.993   6.750  19.743  0.00  0.00    +0.000 S 
ATOM     27  C   UNL     1      49.259   5.488  18.871  0.00  0.00    +0.000 A 
ATOM     28  N   UNL     1      48.966   4.297  19.467  0.00  0.00    +0.000 NA
ATOM     29  C   UNL     1      48.436   3.425  18.675  0.00  0.00    +0.000 A 
ATOM     30  N   UNL     1      48.158   3.636  17.351  0.00  0.00    +0.000 N 
ATOM     31  C   UNL     1      48.408   4.829  16.719  0.00  0.00    +0.000 A 
ATOM     32  O   UNL     1      48.096   4.999  15.539  0.00  0.00    +0.000 OA
ATOM     33  C   UNL     1      49.021   5.840  17.556  0.00  0.00    +0.000 A 
ATOM     34  H   UNL     1      47.727   2.915  16.789  0.00  0.00    +0.000 HD
ENDBRANCH  21  24
ENDBRANCH  19  20
ENDBRANCH   4  19
TORSDOF 6
ENDMDL
MODEL 5
REMARK VINA RESULT:    -7.451      3.721      6.530
REMARK INTER + INTRA:         -11.304
REMARK INTER:                 -10.376
REMARK INTRA:                  -0.928
REMARK UNBOUND:                -1.239
REMARK  Name = 
REMARK  7 active torsions:
REMARK  status: ('A' for Active; 'I' for Inactive)
REMARK    1  A    between atoms: C_1  and  C_2
REMARK    2  A    between atoms: C_6  and  C_7
REMARK    3  A    between atoms: N_9  and  C_10
REMARK    4  A    between atoms: C_10  and  C_11
REMARK    5  A    between atoms: C_14  and  C_15
REMARK    6  A    between atoms: C_15  and  N_16
REMARK    7  A    between atoms: C_17  and  C_19
REMARK                            x       y       z     vdW  Elec       q    Type
REMARK                         _______ _______ _______ _____ _____    ______ ____
ROOT
ATOM      1  C   UNL     1      46.648   2.116   6.124  0.00  0.00    +0.000 A 
ATOM      2  C   UNL     1      45.918   3.273   6.428  0.00  0.00    +0.000 A 
ATOM      3  C   UNL     1      45.326   3.441   7.687  0.00  0.00    +0.000 A 
ATOM      4  C   UNL     1      45.471   2.463   8.680  0.00  0.00    +0.000 A 
ATOM      5  C   UNL     1      46.191   1.300   8.372  0.00  0.00    +0.000 A 
ATOM      6  C   UNL     1      46.784   1.133   7.114  0.00  0.00    +0.000 A 
ENDROOT
BRANCH   1   7
ATOM      7  C   UNL     1      47.238   1.920   4.751  0.00  0.00    +0.000 C 
BRANCH   7  10
ATOM      8  C   UNL     1      46.967  -0.048   3.312  0.00  0.00    +0.000 C 
ATOM      9  O   UNL     1      46.223   0.544   2.536  0.00  0.00    +0.000 OA
ATOM     10  N   UNL     1      47.520   0.544   4.433  0.00  0.00    +0.000 N 
ATOM     11  H   UNL     1      48.112  -0.031   5.024  0.00  0.00    +0.000 HD
BRANCH   8  17
ATOM     12  C   UNL     1      46.243  -4.929   4.200  0.00  0.00    +0.000 C 
ATOM     13  C   UNL     1      46.985  -3.821   3.514  0.00  0.00    +0.000 A 
ATOM     14  C   UNL     1      48.043  -4.083   2.642  0.00  0.00    +0.000 A 
ATOM     15  C   UNL     1      48.693  -3.015   2.036  0.00  0.00    +0.000 A 
ATOM     16  N   UNL     1      48.374  -1.721   2.236  0.00  0.00    +0.000 NA
ATOM     17  C   UNL     1      47.338  -1.484   3.088  0.00  0.00    +0.000 A 
ATOM     18  C   UNL     1      46.629  -2.489   3.743  0.00  0.00    +0.000 A 
ENDBRANCH   8  17
ENDBRANCH   7  10
ENDBRANCH   1   7
BRANCH   4  19
ATOM     19  C   UNL     1      44.865   2.639  10.051  0.00  0.00    +0.000 C 
BRANCH  19  20
ATOM     20  N   UNL     1      45.410   3.780  10.742  0.00  0.00    +0.000 N 
ATOM     21  C   UNL     1      45.376   3.866  12.112  0.00  0.00    +0.000 C 
ATOM     22  O   UNL     1      44.916   2.968  12.812  0.00  0.00    +0.000 OA
ATOM     23  H   UNL     1      45.539   4.627  10.197  0.00  0.00    +0.000 HD
BRANCH  21  24
ATOM     24  C   UNL     1      45.974   5.071  12.706  0.00  0.00    +0.000 A 
ATOM     25  C   UNL     1      47.047   4.952  13.581  0.00  0.00    +0.000 A 
ATOM     26  S   UNL     1      47.646   6.453  14.131  0.00  0.00    +0.000 S 
ATOM     27  C   UNL     1      46.460   7.307  13.263  0.00  0.00    +0.000 A 
ATOM     28  N   UNL     1      46.390   8.668  13.318  0.00  0.00    +0.000 NA
ATOM     29  C   UNL     1      45.422   9.177  12.630  0.00  0.00    +0.000 A 
ATOM     30  N   UNL     1      44.529   8.457  11.882  0.00  0.00    +0.000 N 
ATOM     31  C   UNL     1      44.582   7.088  11.774  0.00  0.00    +0.000 A 
ATOM     32  O   UNL     1      43.793   6.479  11.050  0.00  0.00    +0.000 OA
ATOM     33  C   UNL     1      45.638   6.462  12.542  0.00  0.00    +0.000 A 
ATOM     34  H   UNL     1      43.803   8.919  11.353  0.00  0.00    +0.000 HD
ENDBRANCH  21  24
ENDBRANCH  19  20
ENDBRANCH   4  19
TORSDOF 6
ENDMDL
MODEL 6
REMARK VINA RESULT:    -7.344      4.484      7.614
REMARK INTER + INTRA:         -11.159
REMARK INTER:                 -10.136
REMARK INTRA:                  -1.024
REMARK UNBOUND:                -1.239
REMARK  Name = 
REMARK  7 active torsions:
REMARK  status: ('A' for Active; 'I' for Inactive)
REMARK    1  A    between atoms: C_1  and  C_2
REMARK    2  A    between atoms: C_6  and  C_7
REMARK    3  A    between atoms: N_9  and  C_10
REMARK    4  A    between atoms: C_10  and  C_11
REMARK    5  A    between atoms: C_14  and  C_15
REMARK    6  A    between atoms: C_15  and  N_16
REMARK    7  A    between atoms: C_17  and  C_19
REMARK                            x       y       z     vdW  Elec       q    Type
REMARK                         _______ _______ _______ _____ _____    ______ ____
ROOT
ATOM      1  C   UNL     1      44.772   9.169  11.747  0.00  0.00    +0.000 A 
ATOM      2  C   UNL     1      45.814   9.050  12.677  0.00  0.00    +0.000 A 
ATOM      3  C   UNL     1      46.248   7.791  13.114  0.00  0.00    +0.000 A 
ATOM      4  C   UNL     1      45.663   6.621  12.613  0.00  0.00    +0.000 A 
ATOM      5  C   UNL     1      44.613   6.741  11.693  0.00  0.00    +0.000 A 
ATOM      6  C   UNL     1      44.181   7.999  11.254  0.00  0.00    +0.000 A 
ENDROOT
BRANCH   1   7
ATOM      7  C   UNL     1      44.277  10.528  11.320  0.00  0.00    +0.000 C 
BRANCH   7  10
ATOM      8  C   UNL     1      41.845  10.834  11.411  0.00  0.00    +0.000 C 
ATOM      9  O   UNL     1      41.682  10.370  10.287  0.00  0.00    +0.000 OA
ATOM     10  N   UNL     1      43.086  10.953  12.010  0.00  0.00    +0.000 N 
ATOM     11  H   UNL     1      43.124  11.363  12.937  0.00  0.00    +0.000 HD
BRANCH   8  17
ATOM     12  C   UNL     1      36.905  11.141  12.206  0.00  0.00    +0.000 C 
ATOM     13  C   UNL     1      38.315  11.450  12.609  0.00  0.00    +0.000 A 
ATOM     14  C   UNL     1      38.599  12.187  13.761  0.00  0.00    +0.000 A 
ATOM     15  C   UNL     1      39.925  12.442  14.083  0.00  0.00    +0.000 A 
ATOM     16  N   UNL     1      40.978  12.028  13.350  0.00  0.00    +0.000 NA
ATOM     17  C   UNL     1      40.683  11.309  12.232  0.00  0.00    +0.000 A 
ATOM     18  C   UNL     1      39.384  11.005  11.827  0.00  0.00    +0.000 A 
ENDBRANCH   8  17
ENDBRANCH   7  10
ENDBRANCH   1   7
BRANCH   4  19
ATOM     19  C   UNL     1      46.136   5.256  13.051  0.00  0.00    +0.000 C 
BRANCH  19  20
ATOM     20  N   UNL     1      46.698   5.277  14.378  0.00  0.00    +0.000 N 
ATOM     21  C   UNL     1      47.269   4.157  14.928  0.00  0.00    +0.000 C 
ATOM     22  O   UNL     1      47.362   3.100  14.309  0.00  0.00    +0.000 OA
ATOM     23  H   UNL     1      46.398   6.030  14.990  0.00  0.00    +0.000 HD
BRANCH  21  24
ATOM     24  C   UNL     1      47.821   4.302  16.283  0.00  0.00    +0.000 A 
ATOM     25  C   UNL     1      47.421   3.434  17.291  0.00  0.00    +0.000 A 
ATOM     26  S   UNL     1      48.201   3.717  18.782  0.00  0.00    +0.000 S 
ATOM     27  C   UNL     1      49.058   5.041  18.146  0.00  0.00    +0.000 A 
ATOM     28  N   UNL     1      49.911   5.768  18.923  0.00  0.00    +0.000 NA
ATOM     29  C   UNL     1      50.470   6.760  18.312  0.00  0.00    +0.000 A 
ATOM     30  N   UNL     1      50.269   7.082  16.996  0.00  0.00    +0.000 N 
ATOM     31  C   UNL     1      49.444   6.359  16.170  0.00  0.00    +0.000 A 
ATOM     32  O   UNL     1      49.329   6.650  14.978  0.00  0.00    +0.000 OA
ATOM     33  C   UNL     1      48.775   5.246  16.809  0.00  0.00    +0.000 A 
ATOM     34  H   UNL     1      50.751   7.863  16.574  0.00  0.00    +0.000 HD
ENDBRANCH  21  24
ENDBRANCH  19  20
ENDBRANCH   4  19
TORSDOF 6
ENDMDL
MODEL 7
REMARK VINA RESULT:    -7.253      2.984      4.984
REMARK INTER + INTRA:         -11.036
REMARK INTER:                 -10.195
REMARK INTRA:                  -0.841
REMARK UNBOUND:                -1.239
REMARK  Name = 
REMARK  7 active torsions:
REMARK  status: ('A' for Active; 'I' for Inactive)
REMARK    1  A    between atoms: C_1  and  C_2
REMARK    2  A    between atoms: C_6  and  C_7
REMARK    3  A    between atoms: N_9  and  C_10
REMARK    4  A    between atoms: C_10  and  C_11
REMARK    5  A    between atoms: C_14  and  C_15
REMARK    6  A    between atoms: C_15  and  N_16
REMARK    7  A    between atoms: C_17  and  C_19
REMARK                            x       y       z     vdW  Elec       q    Type
REMARK                         _______ _______ _______ _____ _____    ______ ____
ROOT
ATOM      1  C   UNL     1      46.139   3.397   7.315  0.00  0.00    +0.000 A 
ATOM      2  C   UNL     1      45.981   4.549   8.096  0.00  0.00    +0.000 A 
ATOM      3  C   UNL     1      45.450   4.474   9.391  0.00  0.00    +0.000 A 
ATOM      4  C   UNL     1      45.085   3.239   9.942  0.00  0.00    +0.000 A 
ATOM      5  C   UNL     1      45.231   2.088   9.155  0.00  0.00    +0.000 A 
ATOM      6  C   UNL     1      45.765   2.163   7.862  0.00  0.00    +0.000 A 
ENDROOT
BRANCH   1   7
ATOM      7  C   UNL     1      46.664   3.492   5.905  0.00  0.00    +0.000 C 
BRANCH   7  10
ATOM      8  C   UNL     1      47.332   1.345   4.926  0.00  0.00    +0.000 C 
ATOM      9  O   UNL     1      48.450   1.391   5.430  0.00  0.00    +0.000 OA
ATOM     10  N   UNL     1      46.379   2.331   5.101  0.00  0.00    +0.000 N 
ATOM     11  H   UNL     1      45.487   2.213   4.632  0.00  0.00    +0.000 HD
BRANCH   8  17
ATOM     12  C   UNL     1      46.525  -3.567   4.328  0.00  0.00    +0.000 C 
ATOM     13  C   UNL     1      46.526  -2.168   3.790  0.00  0.00    +0.000 A 
ATOM     14  C   UNL     1      46.137  -1.891   2.478  0.00  0.00    +0.000 A 
ATOM     15  C   UNL     1      46.158  -0.575   2.036  0.00  0.00    +0.000 A 
ATOM     16  N   UNL     1      46.540   0.474   2.792  0.00  0.00    +0.000 NA
ATOM     17  C   UNL     1      46.914   0.186   4.070  0.00  0.00    +0.000 A 
ATOM     18  C   UNL     1      46.927  -1.102   4.601  0.00  0.00    +0.000 A 
ENDBRANCH   8  17
ENDBRANCH   7  10
ENDBRANCH   1   7
BRANCH   4  19
ATOM     19  C   UNL     1      44.536   3.135  11.344  0.00  0.00    +0.000 C 
BRANCH  19  20
ATOM     20  N   UNL     1      45.514   3.505  12.337  0.00  0.00    +0.000 N 
ATOM     21  C   UNL     1      45.447   4.713  12.987  0.00  0.00    +0.000 C 
ATOM     22  O   UNL     1      44.539   5.515  12.784  0.00  0.00    +0.000 OA
ATOM     23  H   UNL     1      46.394   3.000  12.322  0.00  0.00    +0.000 HD
BRANCH  21  24
ATOM     24  C   UNL     1      46.491   4.974  13.988  0.00  0.00    +0.000 A 
ATOM     25  C   UNL     1      46.494   4.270  15.187  0.00  0.00    +0.000 A 
ATOM     26  S   UNL     1      47.805   4.666  16.205  0.00  0.00    +0.000 S 
ATOM     27  C   UNL     1      48.382   5.827  15.104  0.00  0.00    +0.000 A 
ATOM     28  N   UNL     1      49.492   6.569  15.380  0.00  0.00    +0.000 NA
ATOM     29  C   UNL     1      49.796   7.429  14.466  0.00  0.00    +0.000 A 
ATOM     30  N   UNL     1      49.103   7.606  13.297  0.00  0.00    +0.000 N 
ATOM     31  C   UNL     1      47.999   6.860  12.965  0.00  0.00    +0.000 A 
ATOM     32  O   UNL     1      47.434   7.013  11.881  0.00  0.00    +0.000 OA
ATOM     33  C   UNL     1      47.602   5.891  13.965  0.00  0.00    +0.000 A 
ATOM     34  H   UNL     1      49.404   8.287  12.614  0.00  0.00    +0.000 HD
ENDBRANCH  21  24
ENDBRANCH  19  20
ENDBRANCH   4  19
TORSDOF 6
ENDMDL
MODEL 8
REMARK VINA RESULT:    -7.177      4.396      7.161
REMARK INTER + INTRA:         -10.933
REMARK INTER:                 -10.155
REMARK INTRA:                  -0.779
REMARK UNBOUND:                -1.239
REMARK  Name = 
REMARK  7 active torsions:
REMARK  status: ('A' for Active; 'I' for Inactive)
REMARK    1  A    between atoms: C_1  and  C_2
REMARK    2  A    between atoms: C_6  and  C_7
REMARK    3  A    between atoms: N_9  and  C_10
REMARK    4  A    between atoms: C_10  and  C_11
REMARK    5  A    between atoms: C_14  and  C_15
REMARK    6  A    between atoms: C_15  and  N_16
REMARK    7  A    between atoms: C_17  and  C_19
REMARK                            x       y       z     vdW  Elec       q    Type
REMARK                         _______ _______ _______ _____ _____    ______ ____
ROOT
ATOM      1  C   UNL     1      45.127   8.118  11.945  0.00  0.00    +0.000 A 
ATOM      2  C   UNL     1      46.286   8.103  12.733  0.00  0.00    +0.000 A 
ATOM      3  C   UNL     1      46.683   6.940  13.408  0.00  0.00    +0.000 A 
ATOM      4  C   UNL     1      45.938   5.759  13.293  0.00  0.00    +0.000 A 
ATOM      5  C   UNL     1      44.772   5.778  12.516  0.00  0.00    +0.000 A 
ATOM      6  C   UNL     1      44.378   6.939  11.838  0.00  0.00    +0.000 A 
ENDROOT
BRANCH   1   7
ATOM      7  C   UNL     1      44.680   9.385  11.262  0.00  0.00    +0.000 C 
BRANCH   7  10
ATOM      8  C   UNL     1      42.441  10.338  10.963  0.00  0.00    +0.000 C 
ATOM      9  O   UNL     1      42.500  10.254   9.740  0.00  0.00    +0.000 OA
ATOM     10  N   UNL     1      43.464   9.935  11.801  0.00  0.00    +0.000 N 
ATOM     11  H   UNL     1      43.329  10.057  12.800  0.00  0.00    +0.000 HD
BRANCH   8  17
ATOM     12  C   UNL     1      37.502  10.244  11.823  0.00  0.00    +0.000 C 
ATOM     13  C   UNL     1      38.858  10.840  12.055  0.00  0.00    +0.000 A 
ATOM     14  C   UNL     1      39.040  11.926  12.914  0.00  0.00    +0.000 A 
ATOM     15  C   UNL     1      40.321  12.434  13.089  0.00  0.00    +0.000 A 
ATOM     16  N   UNL     1      41.420  11.951  12.476  0.00  0.00    +0.000 NA
ATOM     17  C   UNL     1      41.224  10.891  11.645  0.00  0.00    +0.000 A 
ATOM     18  C   UNL     1      39.978  10.314  11.404  0.00  0.00    +0.000 A 
ENDBRANCH   8  17
ENDBRANCH   7  10
ENDBRANCH   1   7
BRANCH   4  19
ATOM     19  C   UNL     1      46.364   4.490  13.991  0.00  0.00    +0.000 C 
BRANCH  19  20
ATOM     20  N   UNL     1      47.476   4.709  14.883  0.00  0.00    +0.000 N 
ATOM     21  C   UNL     1      47.478   4.197  16.156  0.00  0.00    +0.000 C 
ATOM     22  O   UNL     1      46.559   3.504  16.584  0.00  0.00    +0.000 OA
ATOM     23  H   UNL     1      48.096   5.480  14.658  0.00  0.00    +0.000 HD
BRANCH  21  24
ATOM     24  C   UNL     1      48.672   4.474  16.969  0.00  0.00    +0.000 A 
ATOM     25  C   UNL     1      48.811   5.705  17.599  0.00  0.00    +0.000 A 
ATOM     26  S   UNL     1      50.229   5.832  18.540  0.00  0.00    +0.000 S 
ATOM     27  C   UNL     1      50.730   4.269  18.094  0.00  0.00    +0.000 A 
ATOM     28  N   UNL     1      51.909   3.752  18.545  0.00  0.00    +0.000 NA
ATOM     29  C   UNL     1      52.171   2.567  18.103  0.00  0.00    +0.000 A 
ATOM     30  N   UNL     1      51.361   1.846  17.267  0.00  0.00    +0.000 N 
ATOM     31  C   UNL     1      50.152   2.315  16.814  0.00  0.00    +0.000 A 
ATOM     32  O   UNL     1      49.426   1.616  16.105  0.00  0.00    +0.000 OA
ATOM     33  C   UNL     1      49.815   3.650  17.264  0.00  0.00    +0.000 A 
ATOM     34  H   UNL     1      51.617   0.915  16.970  0.00  0.00    +0.000 HD
ENDBRANCH  21  24
ENDBRANCH  19  20
ENDBRANCH   4  19
TORSDOF 6
ENDMDL
MODEL 9
REMARK VINA RESULT:    -6.855      2.298      3.327
REMARK INTER + INTRA:         -10.499
REMARK INTER:                  -9.535
REMARK INTRA:                  -0.964
REMARK UNBOUND:                -1.239
REMARK  Name = 
REMARK  7 active torsions:
REMARK  status: ('A' for Active; 'I' for Inactive)
REMARK    1  A    between atoms: C_1  and  C_2
REMARK    2  A    between atoms: C_6  and  C_7
REMARK    3  A    between atoms: N_9  and  C_10
REMARK    4  A    between atoms: C_10  and  C_11
REMARK    5  A    between atoms: C_14  and  C_15
REMARK    6  A    between atoms: C_15  and  N_16
REMARK    7  A    between atoms: C_17  and  C_19
REMARK                            x       y       z     vdW  Elec       q    Type
REMARK                         _______ _______ _______ _____ _____    ______ ____
ROOT
ATOM      1  C   UNL     1      45.731   6.759  11.751  0.00  0.00    +0.000 A 
ATOM      2  C   UNL     1      46.813   5.978  12.180  0.00  0.00    +0.000 A 
ATOM      3  C   UNL     1      47.708   6.457  13.147  0.00  0.00    +0.000 A 
ATOM      4  C   UNL     1      47.527   7.721  13.724  0.00  0.00    +0.000 A 
ATOM      5  C   UNL     1      46.452   8.507  13.285  0.00  0.00    +0.000 A 
ATOM      6  C   UNL     1      45.556   8.027  12.321  0.00  0.00    +0.000 A 
ENDROOT
BRANCH   1   7
ATOM      7  C   UNL     1      44.803   6.258  10.674  0.00  0.00    +0.000 C 
BRANCH   7  10
ATOM      8  C   UNL     1      44.941   4.186   9.371  0.00  0.00    +0.000 C 
ATOM      9  O   UNL     1      43.932   3.718   9.889  0.00  0.00    +0.000 OA
ATOM     10  N   UNL     1      45.451   5.430   9.690  0.00  0.00    +0.000 N 
ATOM     11  H   UNL     1      46.301   5.726   9.220  0.00  0.00    +0.000 HD
BRANCH   8  17
ATOM     12  C   UNL     1      46.819  -0.124   7.627  0.00  0.00    +0.000 C 
ATOM     13  C   UNL     1      46.599   1.353   7.497  0.00  0.00    +0.000 A 
ATOM     14  C   UNL     1      47.091   2.071   6.406  0.00  0.00    +0.000 A 
ATOM     15  C   UNL     1      46.856   3.438   6.340  0.00  0.00    +0.000 A 
ATOM     16  N   UNL     1      46.180   4.137   7.273  0.00  0.00    +0.000 NA
ATOM     17  C   UNL     1      45.705   3.421   8.329  0.00  0.00    +0.000 A 
ATOM     18  C   UNL     1      45.892   2.049   8.483  0.00  0.00    +0.000 A 
ENDBRANCH   8  17
ENDBRANCH   7  10
ENDBRANCH   1   7
BRANCH   4  19
ATOM     19  C   UNL     1      48.464   8.242  14.786  0.00  0.00    +0.000 C 
BRANCH  19  20
ATOM     20  N   UNL     1      49.324   7.207  15.305  0.00  0.00    +0.000 N 
ATOM     21  C   UNL     1      49.285   6.847  16.629  0.00  0.00    +0.000 C 
ATOM     22  O   UNL     1      48.499   7.357  17.422  0.00  0.00    +0.000 OA
ATOM     23  H   UNL     1      50.143   6.975  14.752  0.00  0.00    +0.000 HD
BRANCH  21  24
ATOM     24  C   UNL     1      50.199   5.770  17.039  0.00  0.00    +0.000 A 
ATOM     25  C   UNL     1      49.686   4.548  17.459  0.00  0.00    +0.000 A 
ATOM     26  S   UNL     1      50.890   3.403  17.847  0.00  0.00    +0.000 S 
ATOM     27  C   UNL     1      52.133   4.516  17.520  0.00  0.00    +0.000 A 
ATOM     28  N   UNL     1      53.444   4.175  17.679  0.00  0.00    +0.000 NA
ATOM     29  C   UNL     1      54.275   5.129  17.420  0.00  0.00    +0.000 A 
ATOM     30  N   UNL     1      53.920   6.384  17.003  0.00  0.00    +0.000 N 
ATOM     31  C   UNL     1      52.615   6.760  16.799  0.00  0.00    +0.000 A 
ATOM     32  O   UNL     1      52.339   7.883  16.373  0.00  0.00    +0.000 OA
ATOM     33  C   UNL     1      51.638   5.733  17.093  0.00  0.00    +0.000 A 
ATOM     34  H   UNL     1      54.623   7.082  16.801  0.00  0.00    +0.000 HD
ENDBRANCH  21  24
ENDBRANCH  19  20
ENDBRANCH   4  19
TORSDOF 6
ENDMDL
