MODEL 1
REMARK VINA RESULT:    -7.169      0.000      0.000
REMARK INTER + INTRA:         -10.734
REMARK INTER:                  -9.893
REMARK INTRA:                  -0.841
REMARK UNBOUND:                -0.841
REMARK  Name = 
REMARK  10 active torsions:
REMARK  status: ('A' for Active; 'I' for Inactive)
REMARK    1  A    between atoms: C_1  and  C_2
REMARK    2  A    between atoms: C_5  and  C_6
REMARK    3  A    between atoms: C_6  and  O_7
REMARK    4  A    between atoms: O_7  and  C_8
REMARK    5  A    between atoms: C_12  and  C_13
REMARK    6  A    between atoms: C_13  and  C_14
REMARK    7  A    between atoms: C_17  and  C_18
REMARK    8  A    between atoms: C_17  and  C_19
REMARK    9  A    between atoms: CA_23  and  C_24
REMARK   10  A    between atoms: C_24  and  OXT_26
REMARK                            x       y       z     vdW  Elec       q    Type
REMARK                         _______ _______ _______ _____ _____    ______ ____
ROOT
ATOM      1  C   UNL     1      47.586   6.536  13.130  0.00  0.00    +0.000 A 
ATOM      2  C   UNL     1      47.467   7.658  12.317  0.00  0.00    +0.000 A 
ATOM      3  C   UNL     1      46.221   8.004  11.798  0.00  0.00    +0.000 A 
ATOM      4  C   UNL     1      45.109   7.189  12.032  0.00  0.00    +0.000 A 
ATOM      5  C   UNL     1      45.254   5.980  12.720  0.00  0.00    +0.000 A 
ATOM      6  C   UNL     1      46.495   5.685  13.303  0.00  0.00    +0.000 A 
ENDROOT
BRANCH   1   7
ATOM      7  O   UNL     1      48.810   6.327  13.704  0.00  0.00    +0.000 OA
BRANCH   7   8
ATOM      8  C   UNL     1      49.069   7.218  14.798  0.00  0.00    +0.000 C 
BRANCH   8  13
ATOM      9  C   UNL     1      48.755   4.435  19.799  0.00  0.00    +0.000 C 
ATOM     10  C   UNL     1      48.817   5.121  18.478  0.00  0.00    +0.000 A 
ATOM     11  C   UNL     1      49.248   6.426  18.381  0.00  0.00    +0.000 A 
ATOM     12  N   UNL     1      49.333   7.109  17.227  0.00  0.00    +0.000 NA
ATOM     13  C   UNL     1      48.950   6.472  16.106  0.00  0.00    +0.000 A 
ATOM     14  N   UNL     1      48.529   5.194  16.069  0.00  0.00    +0.000 NA
ATOM     15  CA  UNL     1      48.464   4.550  17.268  0.00  0.00    +0.000 A 
BRANCH  15  16
ATOM     16  C   UNL     1      47.967   3.139  17.148  0.00  0.00    +0.000 C 
ATOM     17  O   UNL     1      48.626   2.174  16.800  0.00  0.00    +0.000 OA
BRANCH  16  18
ATOM     18  OXT UNL     1      46.654   3.070  17.481  0.00  0.00    +0.000 OA
ATOM     19  HXT UNL     1      46.461   3.754  18.166  0.00  0.00    +0.000 HD
ENDBRANCH  16  18
ENDBRANCH  15  16
ENDBRANCH   8  13
ENDBRANCH   7   8
ENDBRANCH   1   7
BRANCH   5  20
ATOM     20  C   UNL     1      44.148   4.950  12.825  0.00  0.00    +0.000 C 
BRANCH  20  21
ATOM     21  C   UNL     1      44.564   3.485  12.557  0.00  0.00    +0.000 C 
ATOM     22  C   UNL     1      43.377   2.612  12.185  0.00  0.00    +0.000 C 
ATOM     23  O   UNL     1      43.112   2.909  10.807  0.00  0.00    +0.000 OA
ATOM     24  C   UNL     1      44.370   3.189  10.160  0.00  0.00    +0.000 C 
ATOM     25  C   UNL     1      44.245   4.474   9.337  0.00  0.00    +0.000 C 
ATOM     26  C   UNL     1      44.655   2.033   9.198  0.00  0.00    +0.000 C 
ATOM     27  C   UNL     1      45.406   3.319  11.290  0.00  0.00    +0.000 C 
ENDBRANCH  20  21
ENDBRANCH   5  20
TORSDOF 7
ENDMDL
MODEL 2
REMARK VINA RESULT:    -6.858      2.158      2.760
REMARK INTER + INTRA:         -10.305
REMARK INTER:                  -9.252
REMARK INTRA:                  -1.054
REMARK UNBOUND:                -0.841
REMARK  Name = 
REMARK  10 active torsions:
REMARK  status: ('A' for Active; 'I' for Inactive)
REMARK    1  A    between atoms: C_1  and  C_2
REMARK    2  A    between atoms: C_5  and  C_6
REMARK    3  A    between atoms: C_6  and  O_7
REMARK    4  A    between atoms: O_7  and  C_8
REMARK    5  A    between atoms: C_12  and  C_13
REMARK    6  A    between atoms: C_13  and  C_14
REMARK    7  A    between atoms: C_17  and  C_18
REMARK    8  A    between atoms: C_17  and  C_19
REMARK    9  A    between atoms: CA_23  and  C_24
REMARK   10  A    between atoms: C_24  and  OXT_26
REMARK                            x       y       z     vdW  Elec       q    Type
REMARK                         _______ _______ _______ _____ _____    ______ ____
ROOT
ATOM      1  C   UNL     1      47.777   6.163  14.062  0.00  0.00    +0.000 A 
ATOM      2  C   UNL     1      48.281   6.956  13.038  0.00  0.00    +0.000 A 
ATOM      3  C   UNL     1      47.473   7.272  11.947  0.00  0.00    +0.000 A 
ATOM      4  C   UNL     1      46.186   6.736  11.846  0.00  0.00    +0.000 A 
ATOM      5  C   UNL     1      45.729   5.816  12.794  0.00  0.00    +0.000 A 
ATOM      6  C   UNL     1      46.521   5.569  13.926  0.00  0.00    +0.000 A 
ENDROOT
BRANCH   1   7
ATOM      7  O   UNL     1      48.580   5.996  15.157  0.00  0.00    +0.000 OA
BRANCH   7   8
ATOM      8  C   UNL     1      47.997   5.137  16.146  0.00  0.00    +0.000 C 
BRANCH   8  13
ATOM      9  C   UNL     1      51.634   0.990  17.704  0.00  0.00    +0.000 C 
ATOM     10  C   UNL     1      50.720   2.100  17.314  0.00  0.00    +0.000 A 
ATOM     11  C   UNL     1      49.539   1.841  16.655  0.00  0.00    +0.000 A 
ATOM     12  N   UNL     1      48.664   2.788  16.273  0.00  0.00    +0.000 NA
ATOM     13  C   UNL     1      48.986   4.066  16.542  0.00  0.00    +0.000 A 
ATOM     14  N   UNL     1      50.099   4.443  17.196  0.00  0.00    +0.000 NA
ATOM     15  CA  UNL     1      50.949   3.442  17.559  0.00  0.00    +0.000 A 
BRANCH  15  16
ATOM     16  C   UNL     1      52.176   3.943  18.263  0.00  0.00    +0.000 C 
ATOM     17  O   UNL     1      53.209   4.311  17.730  0.00  0.00    +0.000 OA
BRANCH  16  18
ATOM     18  OXT UNL     1      51.989   3.933  19.607  0.00  0.00    +0.000 OA
ATOM     19  HXT UNL     1      52.177   4.834  19.963  0.00  0.00    +0.000 HD
ENDBRANCH  16  18
ENDBRANCH  15  16
ENDBRANCH   8  13
ENDBRANCH   7   8
ENDBRANCH   1   7
BRANCH   5  20
ATOM     20  C   UNL     1      44.440   5.035  12.638  0.00  0.00    +0.000 C 
BRANCH  20  21
ATOM     21  C   UNL     1      44.596   3.511  12.435  0.00  0.00    +0.000 C 
ATOM     22  C   UNL     1      43.332   2.874  11.880  0.00  0.00    +0.000 C 
ATOM     23  O   UNL     1      43.345   3.177  10.478  0.00  0.00    +0.000 OA
ATOM     24  C   UNL     1      44.718   3.189  10.036  0.00  0.00    +0.000 C 
ATOM     25  C   UNL     1      44.974   4.450   9.206  0.00  0.00    +0.000 C 
ATOM     26  C   UNL     1      44.913   1.973   9.127  0.00  0.00    +0.000 C 
ATOM     27  C   UNL     1      45.573   3.148  11.314  0.00  0.00    +0.000 C 
ENDBRANCH  20  21
ENDBRANCH   5  20
TORSDOF 7
ENDMDL
MODEL 3
REMARK VINA RESULT:    -6.845      2.425      3.762
REMARK INTER + INTRA:         -10.288
REMARK INTER:                  -9.577
REMARK INTRA:                  -0.711
REMARK UNBOUND:                -0.841
REMARK  Name = 
REMARK  10 active torsions:
REMARK  status: ('A' for Active; 'I' for Inactive)
REMARK    1  A    between atoms: C_1  and  C_2
REMARK    2  A    between atoms: C_5  and  C_6
REMARK    3  A    between atoms: C_6  and  O_7
REMARK    4  A    between atoms: O_7  and  C_8
REMARK    5  A    between atoms: C_12  and  C_13
REMARK    6  A    between atoms: C_13  and  C_14
REMARK    7  A    between atoms: C_17  and  C_18
REMARK    8  A    between atoms: C_17  and  C_19
REMARK    9  A    between atoms: CA_23  and  C_24
REMARK   10  A    between atoms: C_24  and  OXT_26
REMARK                            x       y       z     vdW  Elec       q    Type
REMARK                         _______ _______ _______ _____ _____    ______ ____
ROOT
ATOM      1  C   UNL     1      45.043   4.813  12.986  0.00  0.00    +0.000 A 
ATOM      2  C   UNL     1      43.768   5.366  13.024  0.00  0.00    +0.000 A 
ATOM      3  C   UNL     1      42.833   5.012  12.052  0.00  0.00    +0.000 A 
ATOM      4  C   UNL     1      43.195   4.160  11.004  0.00  0.00    +0.000 A 
ATOM      5  C   UNL     1      44.517   3.723  10.875  0.00  0.00    +0.000 A 
ATOM      6  C   UNL     1      45.426   4.023  11.902  0.00  0.00    +0.000 A 
ENDROOT
BRANCH   1   7
ATOM      7  O   UNL     1      45.867   5.108  14.038  0.00  0.00    +0.000 OA
BRANCH   7   8
ATOM      8  C   UNL     1      46.968   4.196  14.152  0.00  0.00    +0.000 C 
BRANCH   8  13
ATOM      9  C   UNL     1      48.901   4.329  19.547  0.00  0.00    +0.000 C 
ATOM     10  C   UNL     1      48.434   4.322  18.131  0.00  0.00    +0.000 A 
ATOM     11  C   UNL     1      47.364   3.545  17.746  0.00  0.00    +0.000 A 
ATOM     12  N   UNL     1      46.886   3.488  16.491  0.00  0.00    +0.000 NA
ATOM     13  C   UNL     1      47.515   4.227  15.560  0.00  0.00    +0.000 A 
ATOM     14  N   UNL     1      48.557   5.039  15.816  0.00  0.00    +0.000 NA
ATOM     15  CA  UNL     1      48.999   5.058  17.104  0.00  0.00    +0.000 A 
BRANCH  15  16
ATOM     16  C   UNL     1      50.175   5.968  17.306  0.00  0.00    +0.000 C 
ATOM     17  O   UNL     1      51.346   5.673  17.143  0.00  0.00    +0.000 OA
BRANCH  16  18
ATOM     18  OXT UNL     1      49.760   7.196  17.709  0.00  0.00    +0.000 OA
ATOM     19  HXT UNL     1      48.780   7.181  17.822  0.00  0.00    +0.000 HD
ENDBRANCH  16  18
ENDBRANCH  15  16
ENDBRANCH   8  13
ENDBRANCH   7   8
ENDBRANCH   1   7
BRANCH   5  20
ATOM     20  C   UNL     1      45.030   2.981   9.658  0.00  0.00    +0.000 C 
BRANCH  20  21
ATOM     21  C   UNL     1      44.917   3.733   8.313  0.00  0.00    +0.000 C 
ATOM     22  C   UNL     1      46.107   4.647   8.066  0.00  0.00    +0.000 C 
ATOM     23  O   UNL     1      47.158   3.778   7.622  0.00  0.00    +0.000 OA
ATOM     24  C   UNL     1      46.563   2.707   6.861  0.00  0.00    +0.000 C 
ATOM     25  C   UNL     1      47.130   1.367   7.338  0.00  0.00    +0.000 C 
ATOM     26  C   UNL     1      46.973   2.906   5.400  0.00  0.00    +0.000 C 
ATOM     27  C   UNL     1      45.047   2.815   7.095  0.00  0.00    +0.000 C 
ENDBRANCH  20  21
ENDBRANCH   5  20
TORSDOF 7
ENDMDL
MODEL 4
REMARK VINA RESULT:    -6.750      2.610      8.493
REMARK INTER + INTRA:         -10.156
REMARK INTER:                  -9.366
REMARK INTRA:                  -0.790
REMARK UNBOUND:                -0.841
REMARK  Name = 
REMARK  10 active torsions:
REMARK  status: ('A' for Active; 'I' for Inactive)
REMARK    1  A    between atoms: C_1  and  C_2
REMARK    2  A    between atoms: C_5  and  C_6
REMARK    3  A    between atoms: C_6  and  O_7
REMARK    4  A    between atoms: O_7  and  C_8
REMARK    5  A    between atoms: C_12  and  C_13
REMARK    6  A    between atoms: C_13  and  C_14
REMARK    7  A    between atoms: C_17  and  C_18
REMARK    8  A    between atoms: C_17  and  C_19
REMARK    9  A    between atoms: CA_23  and  C_24
REMARK   10  A    between atoms: C_24  and  OXT_26
REMARK                            x       y       z     vdW  Elec       q    Type
REMARK                         _______ _______ _______ _____ _____    ______ ____
ROOT
ATOM      1  C   UNL     1      47.945   3.649  16.435  0.00  0.00    +0.000 A 
ATOM      2  C   UNL     1      48.796   2.551  16.489  0.00  0.00    +0.000 A 
ATOM      3  C   UNL     1      49.834   2.527  17.419  0.00  0.00    +0.000 A 
ATOM      4  C   UNL     1      50.064   3.631  18.246  0.00  0.00    +0.000 A 
ATOM      5  C   UNL     1      49.308   4.798  18.091  0.00  0.00    +0.000 A 
ATOM      6  C   UNL     1      48.218   4.778  17.207  0.00  0.00    +0.000 A 
ENDROOT
BRANCH   1   7
ATOM      7  O   UNL     1      46.877   3.551  15.586  0.00  0.00    +0.000 OA
BRANCH   7   8
ATOM      8  C   UNL     1      47.245   3.717  14.209  0.00  0.00    +0.000 C 
BRANCH   8  13
ATOM      9  C   UNL     1      42.685   5.659  11.331  0.00  0.00    +0.000 C 
ATOM     10  C   UNL     1      43.867   5.114  12.055  0.00  0.00    +0.000 A 
ATOM     11  C   UNL     1      44.578   5.899  12.936  0.00  0.00    +0.000 A 
ATOM     12  N   UNL     1      45.652   5.477  13.626  0.00  0.00    +0.000 NA
ATOM     13  C   UNL     1      46.058   4.213  13.417  0.00  0.00    +0.000 A 
ATOM     14  N   UNL     1      45.437   3.344  12.598  0.00  0.00    +0.000 NA
ATOM     15  CA  UNL     1      44.355   3.825  11.926  0.00  0.00    +0.000 A 
BRANCH  15  16
ATOM     16  C   UNL     1      43.730   2.807  11.017  0.00  0.00    +0.000 C 
ATOM     17  O   UNL     1      43.913   2.709   9.816  0.00  0.00    +0.000 OA
BRANCH  16  18
ATOM     18  OXT UNL     1      42.910   1.985  11.719  0.00  0.00    +0.000 OA
ATOM     19  HXT UNL     1      41.987   2.333  11.666  0.00  0.00    +0.000 HD
ENDBRANCH  16  18
ENDBRANCH  15  16
ENDBRANCH   8  13
ENDBRANCH   7   8
ENDBRANCH   1   7
BRANCH   5  20
ATOM     20  C   UNL     1      49.636   6.098  18.796  0.00  0.00    +0.000 C 
BRANCH  20  21
ATOM     21  C   UNL     1      49.244   6.173  20.289  0.00  0.00    +0.000 C 
ATOM     22  C   UNL     1      49.955   7.306  21.011  0.00  0.00    +0.000 C 
ATOM     23  O   UNL     1      49.236   8.492  20.644  0.00  0.00    +0.000 OA
ATOM     24  C   UNL     1      47.846   8.143  20.488  0.00  0.00    +0.000 C 
ATOM     25  C   UNL     1      47.319   8.723  19.173  0.00  0.00    +0.000 C 
ATOM     26  C   UNL     1      47.080   8.799  21.639  0.00  0.00    +0.000 C 
ATOM     27  C   UNL     1      47.792   6.605  20.510  0.00  0.00    +0.000 C 
ENDBRANCH  20  21
ENDBRANCH   5  20
TORSDOF 7
ENDMDL
MODEL 5
REMARK VINA RESULT:    -6.601      1.478      2.146
REMARK INTER + INTRA:          -9.950
REMARK INTER:                  -8.810
REMARK INTRA:                  -1.140
REMARK UNBOUND:                -0.841
REMARK  Name = 
REMARK  10 active torsions:
REMARK  status: ('A' for Active; 'I' for Inactive)
REMARK    1  A    between atoms: C_1  and  C_2
REMARK    2  A    between atoms: C_5  and  C_6
REMARK    3  A    between atoms: C_6  and  O_7
REMARK    4  A    between atoms: O_7  and  C_8
REMARK    5  A    between atoms: C_12  and  C_13
REMARK    6  A    between atoms: C_13  and  C_14
REMARK    7  A    between atoms: C_17  and  C_18
REMARK    8  A    between atoms: C_17  and  C_19
REMARK    9  A    between atoms: CA_23  and  C_24
REMARK   10  A    between atoms: C_24  and  OXT_26
REMARK                            x       y       z     vdW  Elec       q    Type
REMARK                         _______ _______ _______ _____ _____    ______ ____
ROOT
ATOM      1  C   UNL     1      48.737   8.114  14.023  0.00  0.00    +0.000 A 
ATOM      2  C   UNL     1      49.629   7.719  13.034  0.00  0.00    +0.000 A 
ATOM      3  C   UNL     1      49.146   7.339  11.782  0.00  0.00    +0.000 A 
ATOM      4  C   UNL     1      47.770   7.288  11.543  0.00  0.00    +0.000 A 
ATOM      5  C   UNL     1      46.865   7.537  12.580  0.00  0.00    +0.000 A 
ATOM      6  C   UNL     1      47.364   7.993  13.810  0.00  0.00    +0.000 A 
ENDROOT
BRANCH   1   7
ATOM      7  O   UNL     1      49.285   8.591  15.183  0.00  0.00    +0.000 OA
BRANCH   7   8
ATOM      8  C   UNL     1      48.593   8.131  16.353  0.00  0.00    +0.000 C 
BRANCH   8  13
ATOM      9  C   UNL     1      50.418   2.837  17.576  0.00  0.00    +0.000 C 
ATOM     10  C   UNL     1      49.901   4.196  17.249  0.00  0.00    +0.000 A 
ATOM     11  C   UNL     1      50.695   5.310  17.412  0.00  0.00    +0.000 A 
ATOM     12  N   UNL     1      50.299   6.565  17.137  0.00  0.00    +0.000 NA
ATOM     13  C   UNL     1      49.040   6.729  16.695  0.00  0.00    +0.000 A 
ATOM     14  N   UNL     1      48.177   5.720  16.477  0.00  0.00    +0.000 NA
ATOM     15  CA  UNL     1      48.631   4.470  16.772  0.00  0.00    +0.000 A 
BRANCH  15  16
ATOM     16  C   UNL     1      47.607   3.401  16.525  0.00  0.00    +0.000 C 
ATOM     17  O   UNL     1      46.717   3.070  17.289  0.00  0.00    +0.000 OA
BRANCH  16  18
ATOM     18  OXT UNL     1      47.801   2.831  15.309  0.00  0.00    +0.000 OA
ATOM     19  HXT UNL     1      48.770   2.797  15.123  0.00  0.00    +0.000 HD
ENDBRANCH  16  18
ENDBRANCH  15  16
ENDBRANCH   8  13
ENDBRANCH   7   8
ENDBRANCH   1   7
BRANCH   5  20
ATOM     20  C   UNL     1      45.375   7.293  12.456  0.00  0.00    +0.000 C 
BRANCH  20  21
ATOM     21  C   UNL     1      44.877   5.910  12.935  0.00  0.00    +0.000 C 
ATOM     22  C   UNL     1      43.439   5.644  12.517  0.00  0.00    +0.000 C 
ATOM     23  O   UNL     1      43.516   5.265  11.136  0.00  0.00    +0.000 OA
ATOM     24  C   UNL     1      44.749   4.545  10.936  0.00  0.00    +0.000 C 
ATOM     25  C   UNL     1      45.469   5.099   9.703  0.00  0.00    +0.000 C 
ATOM     26  C   UNL     1      44.383   3.085  10.659  0.00  0.00    +0.000 C 
ATOM     27  C   UNL     1      45.566   4.742  12.225  0.00  0.00    +0.000 C 
ENDBRANCH  20  21
ENDBRANCH   5  20
TORSDOF 7
ENDMDL
MODEL 6
REMARK VINA RESULT:    -6.573      4.250      8.374
REMARK INTER + INTRA:          -9.911
REMARK INTER:                  -9.603
REMARK INTRA:                  -0.309
REMARK UNBOUND:                -0.841
REMARK  Name = 
REMARK  10 active torsions:
REMARK  status: ('A' for Active; 'I' for Inactive)
REMARK    1  A    between atoms: C_1  and  C_2
REMARK    2  A    between atoms: C_5  and  C_6
REMARK    3  A    between atoms: C_6  and  O_7
REMARK    4  A    between atoms: O_7  and  C_8
REMARK    5  A    between atoms: C_12  and  C_13
REMARK    6  A    between atoms: C_13  and  C_14
REMARK    7  A    between atoms: C_17  and  C_18
REMARK    8  A    between atoms: C_17  and  C_19
REMARK    9  A    between atoms: CA_23  and  C_24
REMARK   10  A    between atoms: C_24  and  OXT_26
REMARK                            x       y       z     vdW  Elec       q    Type
REMARK                         _______ _______ _______ _____ _____    ______ ____
ROOT
ATOM      1  C   UNL     1      45.029   4.792  11.880  0.00  0.00    +0.000 A 
ATOM      2  C   UNL     1      45.438   4.061  12.988  0.00  0.00    +0.000 A 
ATOM      3  C   UNL     1      46.490   4.529  13.774  0.00  0.00    +0.000 A 
ATOM      4  C   UNL     1      47.178   5.690  13.411  0.00  0.00    +0.000 A 
ATOM      5  C   UNL     1      46.872   6.346  12.214  0.00  0.00    +0.000 A 
ATOM      6  C   UNL     1      45.761   5.909  11.476  0.00  0.00    +0.000 A 
ENDROOT
BRANCH   1   7
ATOM      7  O   UNL     1      43.914   4.340  11.228  0.00  0.00    +0.000 OA
BRANCH   7   8
ATOM      8  C   UNL     1      44.063   2.999  10.740  0.00  0.00    +0.000 C 
BRANCH   8  13
ATOM      9  C   UNL     1      46.771   3.089   5.689  0.00  0.00    +0.000 C 
ATOM     10  C   UNL     1      46.089   3.026   7.013  0.00  0.00    +0.000 A 
ATOM     11  C   UNL     1      45.280   4.056   7.438  0.00  0.00    +0.000 A 
ATOM     12  N   UNL     1      44.631   4.069   8.616  0.00  0.00    +0.000 NA
ATOM     13  C   UNL     1      44.810   3.011   9.427  0.00  0.00    +0.000 A 
ATOM     14  N   UNL     1      45.559   1.938   9.116  0.00  0.00    +0.000 NA
ATOM     15  CA  UNL     1      46.192   1.978   7.911  0.00  0.00    +0.000 A 
BRANCH  15  16
ATOM     16  C   UNL     1      47.024   0.757   7.645  0.00  0.00    +0.000 C 
ATOM     17  O   UNL     1      46.701  -0.395   7.878  0.00  0.00    +0.000 OA
BRANCH  16  18
ATOM     18  OXT UNL     1      48.217   1.106   7.102  0.00  0.00    +0.000 OA
ATOM     19  HXT UNL     1      48.144   1.068   6.118  0.00  0.00    +0.000 HD
ENDBRANCH  16  18
ENDBRANCH  15  16
ENDBRANCH   8  13
ENDBRANCH   7   8
ENDBRANCH   1   7
BRANCH   5  20
ATOM     20  C   UNL     1      47.709   7.476  11.650  0.00  0.00    +0.000 C 
BRANCH  20  21
ATOM     21  C   UNL     1      48.659   8.174  12.649  0.00  0.00    +0.000 C 
ATOM     22  C   UNL     1      49.809   8.880  11.948  0.00  0.00    +0.000 C 
ATOM     23  O   UNL     1      49.248  10.103  11.451  0.00  0.00    +0.000 OA
ATOM     24  C   UNL     1      48.242  10.547  12.383  0.00  0.00    +0.000 C 
ATOM     25  C   UNL     1      46.968  10.918  11.620  0.00  0.00    +0.000 C 
ATOM     26  C   UNL     1      48.777  11.810  13.062  0.00  0.00    +0.000 C 
ATOM     27  C   UNL     1      48.019   9.373  13.353  0.00  0.00    +0.000 C 
ENDBRANCH  20  21
ENDBRANCH   5  20
TORSDOF 7
ENDMDL
MODEL 7
REMARK VINA RESULT:    -6.559      1.828      2.304
REMARK INTER + INTRA:          -9.893
REMARK INTER:                  -8.981
REMARK INTRA:                  -0.912
REMARK UNBOUND:                -0.841
REMARK  Name = 
REMARK  10 active torsions:
REMARK  status: ('A' for Active; 'I' for Inactive)
REMARK    1  A    between atoms: C_1  and  C_2
REMARK    2  A    between atoms: C_5  and  C_6
REMARK    3  A    between atoms: C_6  and  O_7
REMARK    4  A    between atoms: O_7  and  C_8
REMARK    5  A    between atoms: C_12  and  C_13
REMARK    6  A    between atoms: C_13  and  C_14
REMARK    7  A    between atoms: C_17  and  C_18
REMARK    8  A    between atoms: C_17  and  C_19
REMARK    9  A    between atoms: CA_23  and  C_24
REMARK   10  A    between atoms: C_24  and  OXT_26
REMARK                            x       y       z     vdW  Elec       q    Type
REMARK                         _______ _______ _______ _____ _____    ______ ____
ROOT
ATOM      1  C   UNL     1      47.883   6.159  13.978  0.00  0.00    +0.000 A 
ATOM      2  C   UNL     1      48.486   6.851  12.934  0.00  0.00    +0.000 A 
ATOM      3  C   UNL     1      47.740   7.186  11.805  0.00  0.00    +0.000 A 
ATOM      4  C   UNL     1      46.412   6.767  11.690  0.00  0.00    +0.000 A 
ATOM      5  C   UNL     1      45.845   5.941  12.666  0.00  0.00    +0.000 A 
ATOM      6  C   UNL     1      46.581   5.678  13.832  0.00  0.00    +0.000 A 
ENDROOT
BRANCH   1   7
ATOM      7  O   UNL     1      48.638   5.973  15.103  0.00  0.00    +0.000 OA
BRANCH   7   8
ATOM      8  C   UNL     1      48.014   5.094  16.050  0.00  0.00    +0.000 C 
BRANCH   8  13
ATOM      9  C   UNL     1      51.063   4.940  20.902  0.00  0.00    +0.000 C 
ATOM     10  C   UNL     1      50.233   4.996  19.665  0.00  0.00    +0.000 A 
ATOM     11  C   UNL     1      50.790   4.741  18.432  0.00  0.00    +0.000 A 
ATOM     12  N   UNL     1      50.106   4.770  17.274  0.00  0.00    +0.000 NA
ATOM     13  C   UNL     1      48.801   5.088  17.340  0.00  0.00    +0.000 A 
ATOM     14  N   UNL     1      48.140   5.339  18.485  0.00  0.00    +0.000 NA
ATOM     15  CA  UNL     1      48.883   5.295  19.626  0.00  0.00    +0.000 A 
BRANCH  15  16
ATOM     16  C   UNL     1      48.082   5.605  20.857  0.00  0.00    +0.000 C 
ATOM     17  O   UNL     1      47.769   6.717  21.247  0.00  0.00    +0.000 OA
BRANCH  16  18
ATOM     18  OXT UNL     1      47.743   4.462  21.504  0.00  0.00    +0.000 OA
ATOM     19  HXT UNL     1      47.114   4.680  22.232  0.00  0.00    +0.000 HD
ENDBRANCH  16  18
ENDBRANCH  15  16
ENDBRANCH   8  13
ENDBRANCH   7   8
ENDBRANCH   1   7
BRANCH   5  20
ATOM     20  C   UNL     1      44.494   5.276  12.506  0.00  0.00    +0.000 C 
BRANCH  20  21
ATOM     21  C   UNL     1      44.512   3.737  12.368  0.00  0.00    +0.000 C 
ATOM     22  C   UNL     1      43.217   3.199  11.779  0.00  0.00    +0.000 C 
ATOM     23  O   UNL     1      43.320   3.441  10.369  0.00  0.00    +0.000 OA
ATOM     24  C   UNL     1      44.706   3.306   9.991  0.00  0.00    +0.000 C 
ATOM     25  C   UNL     1      45.117   4.501   9.128  0.00  0.00    +0.000 C 
ATOM     26  C   UNL     1      44.823   2.040   9.139  0.00  0.00    +0.000 C 
ATOM     27  C   UNL     1      45.497   3.238  11.309  0.00  0.00    +0.000 C 
ENDBRANCH  20  21
ENDBRANCH   5  20
TORSDOF 7
ENDMDL
MODEL 8
REMARK VINA RESULT:    -6.412      1.395      2.032
REMARK INTER + INTRA:          -9.690
REMARK INTER:                  -8.738
REMARK INTRA:                  -0.952
REMARK UNBOUND:                -0.841
REMARK  Name = 
REMARK  10 active torsions:
REMARK  status: ('A' for Active; 'I' for Inactive)
REMARK    1  A    between atoms: C_1  and  C_2
REMARK    2  A    between atoms: C_5  and  C_6
REMARK    3  A    between atoms: C_6  and  O_7
REMARK    4  A    between atoms: O_7  and  C_8
REMARK    5  A    between atoms: C_12  and  C_13
REMARK    6  A    between atoms: C_13  and  C_14
REMARK    7  A    between atoms: C_17  and  C_18
REMARK    8  A    between atoms: C_17  and  C_19
REMARK    9  A    between atoms: CA_23  and  C_24
REMARK   10  A    between atoms: C_24  and  OXT_26
REMARK                            x       y       z     vdW  Elec       q    Type
REMARK                         _______ _______ _______ _____ _____    ______ ____
ROOT
ATOM      1  C   UNL     1      47.543   8.897  12.673  0.00  0.00    +0.000 A 
ATOM      2  C   UNL     1      47.189  10.202  12.353  0.00  0.00    +0.000 A 
ATOM      3  C   UNL     1      45.907  10.474  11.880  0.00  0.00    +0.000 A 
ATOM      4  C   UNL     1      45.002   9.432  11.659  0.00  0.00    +0.000 A 
ATOM      5  C   UNL     1      45.401   8.103  11.834  0.00  0.00    +0.000 A 
ATOM      6  C   UNL     1      46.667   7.850  12.385  0.00  0.00    +0.000 A 
ENDROOT
BRANCH   1   7
ATOM      7  O   UNL     1      48.772   8.721  13.248  0.00  0.00    +0.000 OA
BRANCH   7   8
ATOM      8  C   UNL     1      49.108   7.338  13.426  0.00  0.00    +0.000 C 
BRANCH   8  13
ATOM      9  C   UNL     1      48.333   5.863  18.911  0.00  0.00    +0.000 C 
ATOM     10  C   UNL     1      48.516   6.205  17.472  0.00  0.00    +0.000 A 
ATOM     11  C   UNL     1      48.961   7.453  17.096  0.00  0.00    +0.000 A 
ATOM     12  N   UNL     1      49.152   7.833  15.820  0.00  0.00    +0.000 NA
ATOM     13  C   UNL     1      48.868   6.934  14.862  0.00  0.00    +0.000 A 
ATOM     14  N   UNL     1      48.446   5.679  15.104  0.00  0.00    +0.000 NA
ATOM     15  CA  UNL     1      48.270   5.348  16.413  0.00  0.00    +0.000 A 
BRANCH  15  16
ATOM     16  C   UNL     1      47.779   3.943  16.601  0.00  0.00    +0.000 C 
ATOM     17  O   UNL     1      46.624   3.608  16.805  0.00  0.00    +0.000 OA
BRANCH  16  18
ATOM     18  OXT UNL     1      48.809   3.065  16.517  0.00  0.00    +0.000 OA
ATOM     19  HXT UNL     1      49.192   3.106  15.608  0.00  0.00    +0.000 HD
ENDBRANCH  16  18
ENDBRANCH  15  16
ENDBRANCH   8  13
ENDBRANCH   7   8
ENDBRANCH   1   7
BRANCH   5  20
ATOM     20  C   UNL     1      44.554   6.920  11.412  0.00  0.00    +0.000 C 
BRANCH  20  21
ATOM     21  C   UNL     1      44.304   5.849  12.498  0.00  0.00    +0.000 C 
ATOM     22  C   UNL     1      42.830   5.504  12.635  0.00  0.00    +0.000 C 
ATOM     23  O   UNL     1      42.549   4.623  11.539  0.00  0.00    +0.000 OA
ATOM     24  C   UNL     1      43.727   3.829  11.289  0.00  0.00    +0.000 C 
ATOM     25  C   UNL     1      44.038   3.838   9.790  0.00  0.00    +0.000 C 
ATOM     26  C   UNL     1      43.402   2.391  11.700  0.00  0.00    +0.000 C 
ATOM     27  C   UNL     1      44.851   4.470  12.121  0.00  0.00    +0.000 C 
ENDBRANCH  20  21
ENDBRANCH   5  20
TORSDOF 7
ENDMDL
MODEL 9
REMARK VINA RESULT:    -6.315      2.241      7.923
REMARK INTER + INTRA:          -9.556
REMARK INTER:                  -8.675
REMARK INTRA:                  -0.881
REMARK UNBOUND:                -0.841
REMARK  Name = 
REMARK  10 active torsions:
REMARK  status: ('A' for Active; 'I' for Inactive)
REMARK    1  A    between atoms: C_1  and  C_2
REMARK    2  A    between atoms: C_5  and  C_6
REMARK    3  A    between atoms: C_6  and  O_7
REMARK    4  A    between atoms: O_7  and  C_8
REMARK    5  A    between atoms: C_12  and  C_13
REMARK    6  A    between atoms: C_13  and  C_14
REMARK    7  A    between atoms: C_17  and  C_18
REMARK    8  A    between atoms: C_17  and  C_19
REMARK    9  A    between atoms: CA_23  and  C_24
REMARK   10  A    between atoms: C_24  and  OXT_26
REMARK                            x       y       z     vdW  Elec       q    Type
REMARK                         _______ _______ _______ _____ _____    ______ ____
ROOT
ATOM      1  C   UNL     1      47.877   3.829  16.474  0.00  0.00    +0.000 A 
ATOM      2  C   UNL     1      48.772   2.803  16.753  0.00  0.00    +0.000 A 
ATOM      3  C   UNL     1      49.762   2.994  17.715  0.00  0.00    +0.000 A 
ATOM      4  C   UNL     1      49.901   4.233  18.347  0.00  0.00    +0.000 A 
ATOM      5  C   UNL     1      49.102   5.314  17.962  0.00  0.00    +0.000 A 
ATOM      6  C   UNL     1      48.060   5.087  17.050  0.00  0.00    +0.000 A 
ENDROOT
BRANCH   1   7
ATOM      7  O   UNL     1      46.857   3.532  15.612  0.00  0.00    +0.000 OA
BRANCH   7   8
ATOM      8  C   UNL     1      47.249   3.630  14.235  0.00  0.00    +0.000 C 
BRANCH   8  13
ATOM      9  C   UNL     1      42.843   5.745  11.241  0.00  0.00    +0.000 C 
ATOM     10  C   UNL     1      43.984   5.155  11.996  0.00  0.00    +0.000 A 
ATOM     11  C   UNL     1      44.715   5.918  12.878  0.00  0.00    +0.000 A 
ATOM     12  N   UNL     1      45.755   5.456  13.595  0.00  0.00    +0.000 NA
ATOM     13  C   UNL     1      46.103   4.170  13.413  0.00  0.00    +0.000 A 
ATOM     14  N   UNL     1      45.456   3.320  12.595  0.00  0.00    +0.000 NA
ATOM     15  CA  UNL     1      44.410   3.842  11.895  0.00  0.00    +0.000 A 
BRANCH  15  16
ATOM     16  C   UNL     1      43.754   2.841  10.989  0.00  0.00    +0.000 C 
ATOM     17  O   UNL     1      43.957   2.714   9.794  0.00  0.00    +0.000 OA
BRANCH  16  18
ATOM     18  OXT UNL     1      42.878   2.075  11.686  0.00  0.00    +0.000 OA
ATOM     19  HXT UNL     1      42.709   2.497  12.562  0.00  0.00    +0.000 HD
ENDBRANCH  16  18
ENDBRANCH  15  16
ENDBRANCH   8  13
ENDBRANCH   7   8
ENDBRANCH   1   7
BRANCH   5  20
ATOM     20  C   UNL     1      49.337   6.731  18.444  0.00  0.00    +0.000 C 
BRANCH  20  21
ATOM     21  C   UNL     1      50.627   7.412  17.932  0.00  0.00    +0.000 C 
ATOM     22  C   UNL     1      50.799   7.257  16.429  0.00  0.00    +0.000 C 
ATOM     23  O   UNL     1      49.919   8.231  15.851  0.00  0.00    +0.000 OA
ATOM     24  C   UNL     1      49.882   9.377  16.725  0.00  0.00    +0.000 C 
ATOM     25  C   UNL     1      48.427   9.792  16.959  0.00  0.00    +0.000 C 
ATOM     26  C   UNL     1      50.595  10.523  16.002  0.00  0.00    +0.000 C 
ATOM     27  C   UNL     1      50.580   8.939  18.024  0.00  0.00    +0.000 C 
ENDBRANCH  20  21
ENDBRANCH   5  20
TORSDOF 7
ENDMDL
