MODEL 1
REMARK VINA RESULT:    -7.677      0.000      0.000
REMARK INTER + INTRA:         -11.534
REMARK INTER:                 -10.819
REMARK INTRA:                  -0.715
REMARK UNBOUND:                -0.715
REMARK  Name = 
REMARK  8 active torsions:
REMARK  status: ('A' for Active; 'I' for Inactive)
REMARK    1  A    between atoms: C_1  and  O_2
REMARK    2  A    between atoms: O_2  and  C_3
REMARK    3  A    between atoms: C_3  and  C_4
REMARK    4  A    between atoms: C_3  and  C_18
REMARK    5  A    between atoms: C_4  and  N_5
REMARK    6  A    between atoms: C_6  and  C_8
REMARK    7  A    between atoms: C_21  and  C_22
REMARK    8  A    between atoms: C_22  and  N_23
REMARK                            x       y       z     vdW  Elec       q    Type
REMARK                         _______ _______ _______ _____ _____    ______ ____
ROOT
ATOM      1  C   UNL     1      45.155   4.818  12.813  0.00  0.00    +0.000 C 
ENDROOT
BRANCH   1   2
ATOM      2  C   UNL     1      45.011   4.499  11.319  0.00  0.00    +0.000 A 
ATOM      3  C   UNL     1      44.407   3.297  10.914  0.00  0.00    +0.000 A 
ATOM      4  C   UNL     1      44.402   2.901   9.570  0.00  0.00    +0.000 A 
ATOM      5  C   UNL     1      44.996   3.705   8.593  0.00  0.00    +0.000 A 
ATOM      6  C   UNL     1      45.482   4.962   8.972  0.00  0.00    +0.000 A 
ATOM      7  C   UNL     1      45.481   5.359  10.315  0.00  0.00    +0.000 A 
BRANCH   5   8
ATOM      8  C   UNL     1      45.273   3.162   7.210  0.00  0.00    +0.000 C 
BRANCH   8   9
ATOM      9  N   UNL     1      46.638   2.853   6.825  0.00  0.00    +0.000 NA
ATOM     10  C   UNL     1      47.014   3.081   5.430  0.00  0.00    +0.000 C 
ATOM     11  C   UNL     1      47.088   1.811   4.571  0.00  0.00    +0.000 C 
ATOM     12  O   UNL     1      47.886   0.800   5.198  0.00  0.00    +0.000 OA
ATOM     13  C   UNL     1      47.314   0.446   6.462  0.00  0.00    +0.000 C 
ATOM     14  C   UNL     1      47.245   1.656   7.404  0.00  0.00    +0.000 C 
ENDBRANCH   8   9
ENDBRANCH   5   8
ENDBRANCH   1   2
BRANCH   1  16
ATOM     15  C   UNL     1      42.803   5.370  12.886  0.00  0.00    +0.000 C 
ATOM     16  O   UNL     1      43.864   4.593  13.419  0.00  0.00    +0.000 OA
ENDBRANCH   1  16
BRANCH   1  17
ATOM     17  C   UNL     1      46.254   4.002  13.545  0.00  0.00    +0.000 C 
BRANCH  17  18
ATOM     18  N   UNL     1      46.692   4.621  14.787  0.00  0.00    +0.000 N 
ATOM     19  C   UNL     1      47.535   3.982  15.657  0.00  0.00    +0.000 C 
ATOM     20  O   UNL     1      47.883   2.817  15.476  0.00  0.00    +0.000 OA
ATOM     21  H   UNL     1      46.514   5.619  14.881  0.00  0.00    +0.000 HD
BRANCH  19  22
ATOM     22  C   UNL     1      47.988   4.740  16.830  0.00  0.00    +0.000 A 
ATOM     23  C   UNL     1      47.644   4.304  18.104  0.00  0.00    +0.000 A 
ATOM     24  S   UNL     1      48.297   5.260  19.354  0.00  0.00    +0.000 S 
ATOM     25  C   UNL     1      49.091   6.271  18.241  0.00  0.00    +0.000 A 
ATOM     26  N   UNL     1      49.898   7.281  18.667  0.00  0.00    +0.000 NA
ATOM     27  C   UNL     1      50.467   7.944  17.716  0.00  0.00    +0.000 A 
ATOM     28  N   UNL     1      50.285   7.704  16.380  0.00  0.00    +0.000 N 
ATOM     29  C   UNL     1      49.431   6.739  15.905  0.00  0.00    +0.000 A 
ATOM     30  O   UNL     1      49.211   6.622  14.705  0.00  0.00    +0.000 OA
ATOM     31  C   UNL     1      48.816   5.918  16.930  0.00  0.00    +0.000 A 
ATOM     32  H   UNL     1      50.728   8.285  15.683  0.00  0.00    +0.000 HD
ENDBRANCH  19  22
ENDBRANCH  17  18
ENDBRANCH   1  17
TORSDOF 7
ENDMDL
MODEL 2
REMARK VINA RESULT:    -7.289      1.901      2.540
REMARK INTER + INTRA:         -10.986
REMARK INTER:                  -9.933
REMARK INTRA:                  -1.053
REMARK UNBOUND:                -0.715
REMARK  Name = 
REMARK  8 active torsions:
REMARK  status: ('A' for Active; 'I' for Inactive)
REMARK    1  A    between atoms: C_1  and  O_2
REMARK    2  A    between atoms: O_2  and  C_3
REMARK    3  A    between atoms: C_3  and  C_4
REMARK    4  A    between atoms: C_3  and  C_18
REMARK    5  A    between atoms: C_4  and  N_5
REMARK    6  A    between atoms: C_6  and  C_8
REMARK    7  A    between atoms: C_21  and  C_22
REMARK    8  A    between atoms: C_22  and  N_23
REMARK                            x       y       z     vdW  Elec       q    Type
REMARK                         _______ _______ _______ _____ _____    ______ ____
ROOT
ATOM      1  C   UNL     1      44.410   5.247  12.427  0.00  0.00    +0.000 C 
ENDROOT
BRANCH   1   2
ATOM      2  C   UNL     1      44.898   4.640  11.105  0.00  0.00    +0.000 A 
ATOM      3  C   UNL     1      45.565   5.446  10.168  0.00  0.00    +0.000 A 
ATOM      4  C   UNL     1      45.881   4.966   8.890  0.00  0.00    +0.000 A 
ATOM      5  C   UNL     1      45.544   3.661   8.520  0.00  0.00    +0.000 A 
ATOM      6  C   UNL     1      44.997   2.814   9.492  0.00  0.00    +0.000 A 
ATOM      7  C   UNL     1      44.687   3.294  10.771  0.00  0.00    +0.000 A 
BRANCH   5   8
ATOM      8  C   UNL     1      45.593   3.232   7.072  0.00  0.00    +0.000 C 
BRANCH   8   9
ATOM      9  N   UNL     1      46.845   2.757   6.509  0.00  0.00    +0.000 NA
ATOM     10  C   UNL     1      47.012   2.850   5.060  0.00  0.00    +0.000 C 
ATOM     11  C   UNL     1      46.829   1.525   4.307  0.00  0.00    +0.000 C 
ATOM     12  O   UNL     1      47.621   0.481   4.887  0.00  0.00    +0.000 OA
ATOM     13  C   UNL     1      47.229   0.274   6.248  0.00  0.00    +0.000 C 
ATOM     14  C   UNL     1      47.424   1.546   7.086  0.00  0.00    +0.000 C 
ENDBRANCH   8   9
ENDBRANCH   5   8
ENDBRANCH   1   2
BRANCH   1  16
ATOM     15  C   UNL     1      42.131   5.685  11.749  0.00  0.00    +0.000 C 
ATOM     16  O   UNL     1      43.010   4.914  12.554  0.00  0.00    +0.000 OA
ENDBRANCH   1  16
BRANCH   1  17
ATOM     17  C   UNL     1      45.198   4.784  13.682  0.00  0.00    +0.000 C 
BRANCH  17  18
ATOM     18  N   UNL     1      46.269   5.697  14.053  0.00  0.00    +0.000 N 
ATOM     19  C   UNL     1      47.432   5.255  14.624  0.00  0.00    +0.000 C 
ATOM     20  O   UNL     1      47.587   4.077  14.940  0.00  0.00    +0.000 OA
ATOM     21  H   UNL     1      46.203   6.644  13.683  0.00  0.00    +0.000 HD
BRANCH  19  22
ATOM     22  C   UNL     1      48.482   6.254  14.865  0.00  0.00    +0.000 A 
ATOM     23  C   UNL     1      49.012   6.397  16.141  0.00  0.00    +0.000 A 
ATOM     24  S   UNL     1      50.259   7.555  16.238  0.00  0.00    +0.000 S 
ATOM     25  C   UNL     1      50.160   7.882  14.572  0.00  0.00    +0.000 A 
ATOM     26  N   UNL     1      51.017   8.756  13.980  0.00  0.00    +0.000 NA
ATOM     27  C   UNL     1      50.855   8.881  12.705  0.00  0.00    +0.000 A 
ATOM     28  N   UNL     1      49.898   8.229  11.974  0.00  0.00    +0.000 N 
ATOM     29  C   UNL     1      48.971   7.387  12.539  0.00  0.00    +0.000 A 
ATOM     30  O   UNL     1      48.063   6.903  11.873  0.00  0.00    +0.000 OA
ATOM     31  C   UNL     1      49.150   7.158  13.960  0.00  0.00    +0.000 A 
ATOM     32  H   UNL     1      49.795   8.399  10.984  0.00  0.00    +0.000 HD
ENDBRANCH  19  22
ENDBRANCH  17  18
ENDBRANCH   1  17
TORSDOF 7
ENDMDL
MODEL 3
REMARK VINA RESULT:    -7.175      3.321      5.513
REMARK INTER + INTRA:         -10.827
REMARK INTER:                  -9.869
REMARK INTRA:                  -0.958
REMARK UNBOUND:                -0.715
REMARK  Name = 
REMARK  8 active torsions:
REMARK  status: ('A' for Active; 'I' for Inactive)
REMARK    1  A    between atoms: C_1  and  O_2
REMARK    2  A    between atoms: O_2  and  C_3
REMARK    3  A    between atoms: C_3  and  C_4
REMARK    4  A    between atoms: C_3  and  C_18
REMARK    5  A    between atoms: C_4  and  N_5
REMARK    6  A    between atoms: C_6  and  C_8
REMARK    7  A    between atoms: C_21  and  C_22
REMARK    8  A    between atoms: C_22  and  N_23
REMARK                            x       y       z     vdW  Elec       q    Type
REMARK                         _______ _______ _______ _____ _____    ______ ____
ROOT
ATOM      1  C   UNL     1      48.937   7.026  14.214  0.00  0.00    +0.000 C 
ENDROOT
BRANCH   1   2
ATOM      2  C   UNL     1      47.606   6.427  13.739  0.00  0.00    +0.000 A 
ATOM      3  C   UNL     1      46.702   7.219  13.012  0.00  0.00    +0.000 A 
ATOM      4  C   UNL     1      45.416   6.756  12.701  0.00  0.00    +0.000 A 
ATOM      5  C   UNL     1      45.005   5.483  13.104  0.00  0.00    +0.000 A 
ATOM      6  C   UNL     1      45.945   4.642  13.714  0.00  0.00    +0.000 A 
ATOM      7  C   UNL     1      47.232   5.105  14.019  0.00  0.00    +0.000 A 
BRANCH   5   8
ATOM      8  C   UNL     1      43.547   5.089  13.054  0.00  0.00    +0.000 C 
BRANCH   8   9
ATOM      9  N   UNL     1      43.029   4.413  11.879  0.00  0.00    +0.000 NA
ATOM     10  C   UNL     1      43.246   2.971  11.778  0.00  0.00    +0.000 C 
ATOM     11  C   UNL     1      44.371   2.557  10.819  0.00  0.00    +0.000 C 
ATOM     12  O   UNL     1      44.223   3.183   9.538  0.00  0.00    +0.000 OA
ATOM     13  C   UNL     1      44.268   4.606   9.685  0.00  0.00    +0.000 C 
ATOM     14  C   UNL     1      43.142   5.110  10.599  0.00  0.00    +0.000 C 
ENDBRANCH   8   9
ENDBRANCH   5   8
ENDBRANCH   1   2
BRANCH   1  16
ATOM     15  C   UNL     1      50.413   8.653  13.207  0.00  0.00    +0.000 C 
ATOM     16  O   UNL     1      49.083   8.303  13.558  0.00  0.00    +0.000 OA
ENDBRANCH   1  16
BRANCH   1  17
ATOM     17  C   UNL     1      49.062   7.184  15.754  0.00  0.00    +0.000 C 
BRANCH  17  18
ATOM     18  N   UNL     1      50.160   6.416  16.320  0.00  0.00    +0.000 N 
ATOM     19  C   UNL     1      49.948   5.385  17.196  0.00  0.00    +0.000 C 
ATOM     20  O   UNL     1      48.825   5.124  17.622  0.00  0.00    +0.000 OA
ATOM     21  H   UNL     1      51.071   6.540  15.880  0.00  0.00    +0.000 HD
BRANCH  19  22
ATOM     22  C   UNL     1      51.124   4.618  17.626  0.00  0.00    +0.000 A 
ATOM     23  C   UNL     1      52.180   5.272  18.248  0.00  0.00    +0.000 A 
ATOM     24  S   UNL     1      53.438   4.230  18.736  0.00  0.00    +0.000 S 
ATOM     25  C   UNL     1      52.602   2.864  18.165  0.00  0.00    +0.000 A 
ATOM     26  N   UNL     1      53.111   1.613  18.333  0.00  0.00    +0.000 NA
ATOM     27  C   UNL     1      52.355   0.667  17.886  0.00  0.00    +0.000 A 
ATOM     28  N   UNL     1      51.150   0.859  17.265  0.00  0.00    +0.000 N 
ATOM     29  C   UNL     1      50.628   2.105  17.016  0.00  0.00    +0.000 A 
ATOM     30  O   UNL     1      49.599   2.244  16.365  0.00  0.00    +0.000 OA
ATOM     31  C   UNL     1      51.404   3.204  17.558  0.00  0.00    +0.000 A 
ATOM     32  H   UNL     1      50.623   0.078  16.901  0.00  0.00    +0.000 HD
ENDBRANCH  19  22
ENDBRANCH  17  18
ENDBRANCH   1  17
TORSDOF 7
ENDMDL
MODEL 4
REMARK VINA RESULT:    -6.969      4.138      5.769
REMARK INTER + INTRA:         -10.536
REMARK INTER:                  -8.854
REMARK INTRA:                  -1.682
REMARK UNBOUND:                -0.715
REMARK  Name = 
REMARK  8 active torsions:
REMARK  status: ('A' for Active; 'I' for Inactive)
REMARK    1  A    between atoms: C_1  and  O_2
REMARK    2  A    between atoms: O_2  and  C_3
REMARK    3  A    between atoms: C_3  and  C_4
REMARK    4  A    between atoms: C_3  and  C_18
REMARK    5  A    between atoms: C_4  and  N_5
REMARK    6  A    between atoms: C_6  and  C_8
REMARK    7  A    between atoms: C_21  and  C_22
REMARK    8  A    between atoms: C_22  and  N_23
REMARK                            x       y       z     vdW  Elec       q    Type
REMARK                         _______ _______ _______ _____ _____    ______ ____
ROOT
ATOM      1  C   UNL     1      44.992   6.286  12.664  0.00  0.00    +0.000 C 
ENDROOT
BRANCH   1   2
ATOM      2  C   UNL     1      46.180   7.241  12.485  0.00  0.00    +0.000 A 
ATOM      3  C   UNL     1      46.095   8.562  12.955  0.00  0.00    +0.000 A 
ATOM      4  C   UNL     1      47.093   9.502  12.669  0.00  0.00    +0.000 A 
ATOM      5  C   UNL     1      48.209   9.141  11.908  0.00  0.00    +0.000 A 
ATOM      6  C   UNL     1      48.361   7.796  11.548  0.00  0.00    +0.000 A 
ATOM      7  C   UNL     1      47.365   6.856  11.841  0.00  0.00    +0.000 A 
BRANCH   5   8
ATOM      8  C   UNL     1      49.125  10.196  11.333  0.00  0.00    +0.000 C 
BRANCH   8   9
ATOM      9  N   UNL     1      50.490  10.297  11.817  0.00  0.00    +0.000 NA
ATOM     10  C   UNL     1      51.545   9.708  10.994  0.00  0.00    +0.000 C 
ATOM     11  C   UNL     1      52.071   8.356  11.497  0.00  0.00    +0.000 C 
ATOM     12  O   UNL     1      52.424   8.416  12.885  0.00  0.00    +0.000 OA
ATOM     13  C   UNL     1      51.273   8.760  13.663  0.00  0.00    +0.000 C 
ATOM     14  C   UNL     1      50.708  10.128  13.252  0.00  0.00    +0.000 C 
ENDBRANCH   8   9
ENDBRANCH   5   8
ENDBRANCH   1   2
BRANCH   1  16
ATOM     15  C   UNL     1      42.962   5.801  11.444  0.00  0.00    +0.000 C 
ATOM     16  O   UNL     1      44.323   6.200  11.388  0.00  0.00    +0.000 OA
ENDBRANCH   1  16
BRANCH   1  17
ATOM     17  C   UNL     1      45.371   4.871  13.180  0.00  0.00    +0.000 C 
BRANCH  17  18
ATOM     18  N   UNL     1      46.010   4.893  14.487  0.00  0.00    +0.000 N 
ATOM     19  C   UNL     1      47.017   4.025  14.815  0.00  0.00    +0.000 C 
ATOM     20  O   UNL     1      47.362   3.122  14.055  0.00  0.00    +0.000 OA
ATOM     21  H   UNL     1      45.821   5.708  15.068  0.00  0.00    +0.000 HD
BRANCH  19  22
ATOM     22  C   UNL     1      47.655   4.202  16.126  0.00  0.00    +0.000 A 
ATOM     23  C   UNL     1      47.537   3.206  17.087  0.00  0.00    +0.000 A 
ATOM     24  S   UNL     1      48.382   3.541  18.528  0.00  0.00    +0.000 S 
ATOM     25  C   UNL     1      48.964   5.014  17.909  0.00  0.00    +0.000 A 
ATOM     26  N   UNL     1      49.819   5.787  18.632  0.00  0.00    +0.000 NA
ATOM     27  C   UNL     1      50.211   6.858  18.026  0.00  0.00    +0.000 A 
ATOM     28  N   UNL     1      49.806   7.238  16.774  0.00  0.00    +0.000 N 
ATOM     29  C   UNL     1      48.896   6.523  16.035  0.00  0.00    +0.000 A 
ATOM     30  O   UNL     1      48.476   6.946  14.964  0.00  0.00    +0.000 OA
ATOM     31  C   UNL     1      48.474   5.274  16.640  0.00  0.00    +0.000 A 
ATOM     32  H   UNL     1      50.118   8.109  16.370  0.00  0.00    +0.000 HD
ENDBRANCH  19  22
ENDBRANCH  17  18
ENDBRANCH   1  17
TORSDOF 7
ENDMDL
MODEL 5
REMARK VINA RESULT:    -6.934      3.446      5.504
REMARK INTER + INTRA:         -10.486
REMARK INTER:                  -8.916
REMARK INTRA:                  -1.571
REMARK UNBOUND:                -0.715
REMARK  Name = 
REMARK  8 active torsions:
REMARK  status: ('A' for Active; 'I' for Inactive)
REMARK    1  A    between atoms: C_1  and  O_2
REMARK    2  A    between atoms: O_2  and  C_3
REMARK    3  A    between atoms: C_3  and  C_4
REMARK    4  A    between atoms: C_3  and  C_18
REMARK    5  A    between atoms: C_4  and  N_5
REMARK    6  A    between atoms: C_6  and  C_8
REMARK    7  A    between atoms: C_21  and  C_22
REMARK    8  A    between atoms: C_22  and  N_23
REMARK                            x       y       z     vdW  Elec       q    Type
REMARK                         _______ _______ _______ _____ _____    ______ ____
ROOT
ATOM      1  C   UNL     1      49.279   8.462  13.039  0.00  0.00    +0.000 C 
ENDROOT
BRANCH   1   2
ATOM      2  C   UNL     1      47.882   7.915  12.717  0.00  0.00    +0.000 A 
ATOM      3  C   UNL     1      47.739   6.847  11.816  0.00  0.00    +0.000 A 
ATOM      4  C   UNL     1      46.476   6.428  11.378  0.00  0.00    +0.000 A 
ATOM      5  C   UNL     1      45.320   7.065  11.839  0.00  0.00    +0.000 A 
ATOM      6  C   UNL     1      45.450   8.042  12.835  0.00  0.00    +0.000 A 
ATOM      7  C   UNL     1      46.714   8.455  13.275  0.00  0.00    +0.000 A 
BRANCH   5   8
ATOM      8  C   UNL     1      43.990   6.842  11.156  0.00  0.00    +0.000 C 
BRANCH   8   9
ATOM      9  N   UNL     1      43.268   5.604  11.385  0.00  0.00    +0.000 NA
ATOM     10  C   UNL     1      42.965   5.244  12.769  0.00  0.00    +0.000 C 
ATOM     11  C   UNL     1      43.873   4.159  13.363  0.00  0.00    +0.000 C 
ATOM     12  O   UNL     1      43.954   3.016  12.502  0.00  0.00    +0.000 OA
ATOM     13  C   UNL     1      44.497   3.401  11.235  0.00  0.00    +0.000 C 
ATOM     14  C   UNL     1      43.619   4.458  10.549  0.00  0.00    +0.000 C 
ENDBRANCH   8   9
ENDBRANCH   5   8
ENDBRANCH   1   2
BRANCH   1  16
ATOM     15  C   UNL     1      50.748   9.415  11.373  0.00  0.00    +0.000 C 
ATOM     16  O   UNL     1      49.539   9.533  12.106  0.00  0.00    +0.000 OA
ENDBRANCH   1  16
BRANCH   1  17
ATOM     17  C   UNL     1      49.460   8.954  14.501  0.00  0.00    +0.000 C 
BRANCH  17  18
ATOM     18  N   UNL     1      49.503   7.868  15.468  0.00  0.00    +0.000 N 
ATOM     19  C   UNL     1      48.803   7.917  16.643  0.00  0.00    +0.000 C 
ATOM     20  O   UNL     1      48.182   8.923  16.981  0.00  0.00    +0.000 OA
ATOM     21  H   UNL     1      49.906   6.991  15.143  0.00  0.00    +0.000 HD
BRANCH  19  22
ATOM     22  C   UNL     1      48.842   6.723  17.497  0.00  0.00    +0.000 A 
ATOM     23  C   UNL     1      49.328   6.823  18.795  0.00  0.00    +0.000 A 
ATOM     24  S   UNL     1      49.252   5.363  19.670  0.00  0.00    +0.000 S 
ATOM     25  C   UNL     1      48.535   4.551  18.358  0.00  0.00    +0.000 A 
ATOM     26  N   UNL     1      48.147   3.252  18.469  0.00  0.00    +0.000 NA
ATOM     27  C   UNL     1      47.584   2.773  17.410  0.00  0.00    +0.000 A 
ATOM     28  N   UNL     1      47.395   3.467  16.245  0.00  0.00    +0.000 N 
ATOM     29  C   UNL     1      47.827   4.759  16.067  0.00  0.00    +0.000 A 
ATOM     30  O   UNL     1      47.737   5.314  14.979  0.00  0.00    +0.000 OA
ATOM     31  C   UNL     1      48.408   5.369  17.248  0.00  0.00    +0.000 A 
ATOM     32  H   UNL     1      46.982   3.023  15.437  0.00  0.00    +0.000 HD
ENDBRANCH  19  22
ENDBRANCH  17  18
ENDBRANCH   1  17
TORSDOF 7
ENDMDL
MODEL 6
REMARK VINA RESULT:    -6.890      3.405      6.671
REMARK INTER + INTRA:         -10.425
REMARK INTER:                  -9.007
REMARK INTRA:                  -1.418
REMARK UNBOUND:                -0.715
REMARK  Name = 
REMARK  8 active torsions:
REMARK  status: ('A' for Active; 'I' for Inactive)
REMARK    1  A    between atoms: C_1  and  O_2
REMARK    2  A    between atoms: O_2  and  C_3
REMARK    3  A    between atoms: C_3  and  C_4
REMARK    4  A    between atoms: C_3  and  C_18
REMARK    5  A    between atoms: C_4  and  N_5
REMARK    6  A    between atoms: C_6  and  C_8
REMARK    7  A    between atoms: C_21  and  C_22
REMARK    8  A    between atoms: C_22  and  N_23
REMARK                            x       y       z     vdW  Elec       q    Type
REMARK                         _______ _______ _______ _____ _____    ______ ____
ROOT
ATOM      1  C   UNL     1      44.748   5.377  11.886  0.00  0.00    +0.000 C 
ENDROOT
BRANCH   1   2
ATOM      2  C   UNL     1      45.653   6.616  11.906  0.00  0.00    +0.000 A 
ATOM      3  C   UNL     1      46.976   6.524  11.443  0.00  0.00    +0.000 A 
ATOM      4  C   UNL     1      47.876   7.588  11.593  0.00  0.00    +0.000 A 
ATOM      5  C   UNL     1      47.470   8.777  12.206  0.00  0.00    +0.000 A 
ATOM      6  C   UNL     1      46.120   8.920  12.551  0.00  0.00    +0.000 A 
ATOM      7  C   UNL     1      45.221   7.858  12.394  0.00  0.00    +0.000 A 
BRANCH   5   8
ATOM      8  C   UNL     1      48.486   9.802  12.653  0.00  0.00    +0.000 C 
BRANCH   8   9
ATOM      9  N   UNL     1      49.307   9.533  13.820  0.00  0.00    +0.000 NA
ATOM     10  C   UNL     1      49.115  10.386  14.991  0.00  0.00    +0.000 C 
ATOM     11  C   UNL     1      50.194  11.461  15.186  0.00  0.00    +0.000 C 
ATOM     12  O   UNL     1      51.510  10.897  15.124  0.00  0.00    +0.000 OA
ATOM     13  C   UNL     1      51.717  10.289  13.845  0.00  0.00    +0.000 C 
ATOM     14  C   UNL     1      50.702   9.166  13.589  0.00  0.00    +0.000 C 
ENDBRANCH   8   9
ENDBRANCH   5   8
ENDBRANCH   1   2
BRANCH   1  16
ATOM     15  C   UNL     1      43.946   4.324   9.863  0.00  0.00    +0.000 C 
ATOM     16  O   UNL     1      45.060   4.645  10.682  0.00  0.00    +0.000 OA
ENDBRANCH   1  16
BRANCH   1  17
ATOM     17  C   UNL     1      44.877   4.461  13.133  0.00  0.00    +0.000 C 
BRANCH  17  18
ATOM     18  N   UNL     1      45.750   5.012  14.158  0.00  0.00    +0.000 N 
ATOM     19  C   UNL     1      46.911   4.390  14.532  0.00  0.00    +0.000 C 
ATOM     20  O   UNL     1      47.221   3.286  14.088  0.00  0.00    +0.000 OA
ATOM     21  H   UNL     1      45.568   5.975  14.435  0.00  0.00    +0.000 HD
BRANCH  19  22
ATOM     22  C   UNL     1      47.762   5.087  15.506  0.00  0.00    +0.000 A 
ATOM     23  C   UNL     1      48.456   6.226  15.118  0.00  0.00    +0.000 A 
ATOM     24  S   UNL     1      49.348   6.946  16.380  0.00  0.00    +0.000 S 
ATOM     25  C   UNL     1      48.812   5.781  17.497  0.00  0.00    +0.000 A 
ATOM     26  N   UNL     1      49.165   5.858  18.809  0.00  0.00    +0.000 NA
ATOM     27  C   UNL     1      48.657   4.932  19.552  0.00  0.00    +0.000 A 
ATOM     28  N   UNL     1      47.849   3.923  19.098  0.00  0.00    +0.000 N 
ATOM     29  C   UNL     1      47.519   3.770  17.773  0.00  0.00    +0.000 A 
ATOM     30  O   UNL     1      46.882   2.797  17.386  0.00  0.00    +0.000 OA
ATOM     31  C   UNL     1      48.008   4.823  16.903  0.00  0.00    +0.000 A 
ATOM     32  H   UNL     1      47.515   3.204  19.723  0.00  0.00    +0.000 HD
ENDBRANCH  19  22
ENDBRANCH  17  18
ENDBRANCH   1  17
TORSDOF 7
ENDMDL
MODEL 7
REMARK VINA RESULT:    -6.755      4.192      8.971
REMARK INTER + INTRA:         -10.233
REMARK INTER:                  -9.379
REMARK INTRA:                  -0.855
REMARK UNBOUND:                -0.715
REMARK  Name = 
REMARK  8 active torsions:
REMARK  status: ('A' for Active; 'I' for Inactive)
REMARK    1  A    between atoms: C_1  and  O_2
REMARK    2  A    between atoms: O_2  and  C_3
REMARK    3  A    between atoms: C_3  and  C_4
REMARK    4  A    between atoms: C_3  and  C_18
REMARK    5  A    between atoms: C_4  and  N_5
REMARK    6  A    between atoms: C_6  and  C_8
REMARK    7  A    between atoms: C_21  and  C_22
REMARK    8  A    between atoms: C_22  and  N_23
REMARK                            x       y       z     vdW  Elec       q    Type
REMARK                         _______ _______ _______ _____ _____    ______ ____
ROOT
ATOM      1  C   UNL     1      49.429   8.711  13.801  0.00  0.00    +0.000 C 
ENDROOT
BRANCH   1   2
ATOM      2  C   UNL     1      49.485   8.153  15.230  0.00  0.00    +0.000 A 
ATOM      3  C   UNL     1      50.316   7.058  15.522  0.00  0.00    +0.000 A 
ATOM      4  C   UNL     1      50.274   6.425  16.770  0.00  0.00    +0.000 A 
ATOM      5  C   UNL     1      49.402   6.877  17.765  0.00  0.00    +0.000 A 
ATOM      6  C   UNL     1      48.668   8.046  17.524  0.00  0.00    +0.000 A 
ATOM      7  C   UNL     1      48.716   8.681  16.277  0.00  0.00    +0.000 A 
BRANCH   5   8
ATOM      8  C   UNL     1      49.118   6.034  18.986  0.00  0.00    +0.000 C 
BRANCH   8   9
ATOM      9  N   UNL     1      48.309   4.836  18.855  0.00  0.00    +0.000 NA
ATOM     10  C   UNL     1      49.009   3.555  18.771  0.00  0.00    +0.000 C 
ATOM     11  C   UNL     1      49.096   2.963  17.357  0.00  0.00    +0.000 C 
ATOM     12  O   UNL     1      47.811   2.932  16.723  0.00  0.00    +0.000 OA
ATOM     13  C   UNL     1      47.292   4.261  16.615  0.00  0.00    +0.000 C 
ATOM     14  C   UNL     1      47.129   4.912  17.996  0.00  0.00    +0.000 C 
ENDBRANCH   8   9
ENDBRANCH   5   8
ENDBRANCH   1   2
BRANCH   1  16
ATOM     15  C   UNL     1      51.661   9.079  12.952  0.00  0.00    +0.000 C 
ATOM     16  O   UNL     1      50.549   9.610  13.655  0.00  0.00    +0.000 OA
ENDBRANCH   1  16
BRANCH   1  17
ATOM     17  C   UNL     1      49.441   7.633  12.684  0.00  0.00    +0.000 C 
BRANCH  17  18
ATOM     18  N   UNL     1      48.110   7.270  12.226  0.00  0.00    +0.000 N 
ATOM     19  C   UNL     1      47.428   6.204  12.750  0.00  0.00    +0.000 C 
ATOM     20  O   UNL     1      47.950   5.445  13.564  0.00  0.00    +0.000 OA
ATOM     21  H   UNL     1      47.627   7.959  11.652  0.00  0.00    +0.000 HD
BRANCH  19  22
ATOM     22  C   UNL     1      46.053   5.991  12.280  0.00  0.00    +0.000 A 
ATOM     23  C   UNL     1      45.348   7.049  11.720  0.00  0.00    +0.000 A 
ATOM     24  S   UNL     1      43.791   6.621  11.174  0.00  0.00    +0.000 S 
ATOM     25  C   UNL     1      44.016   4.999  11.635  0.00  0.00    +0.000 A 
ATOM     26  N   UNL     1      43.062   4.063  11.383  0.00  0.00    +0.000 NA
ATOM     27  C   UNL     1      43.379   2.866  11.750  0.00  0.00    +0.000 A 
ATOM     28  N   UNL     1      44.553   2.526  12.368  0.00  0.00    +0.000 N 
ATOM     29  C   UNL     1      45.516   3.447  12.700  0.00  0.00    +0.000 A 
ATOM     30  O   UNL     1      46.506   3.126  13.346  0.00  0.00    +0.000 OA
ATOM     31  C   UNL     1      45.241   4.798  12.249  0.00  0.00    +0.000 A 
ATOM     32  H   UNL     1      44.726   1.577  12.668  0.00  0.00    +0.000 HD
ENDBRANCH  19  22
ENDBRANCH  17  18
ENDBRANCH   1  17
TORSDOF 7
ENDMDL
MODEL 8
REMARK VINA RESULT:    -6.467      4.473      6.246
REMARK INTER + INTRA:          -9.828
REMARK INTER:                  -8.658
REMARK INTRA:                  -1.170
REMARK UNBOUND:                -0.715
REMARK  Name = 
REMARK  8 active torsions:
REMARK  status: ('A' for Active; 'I' for Inactive)
REMARK    1  A    between atoms: C_1  and  O_2
REMARK    2  A    between atoms: O_2  and  C_3
REMARK    3  A    between atoms: C_3  and  C_4
REMARK    4  A    between atoms: C_3  and  C_18
REMARK    5  A    between atoms: C_4  and  N_5
REMARK    6  A    between atoms: C_6  and  C_8
REMARK    7  A    between atoms: C_21  and  C_22
REMARK    8  A    between atoms: C_22  and  N_23
REMARK                            x       y       z     vdW  Elec       q    Type
REMARK                         _______ _______ _______ _____ _____    ______ ____
ROOT
ATOM      1  C   UNL     1      45.817   5.228  13.678  0.00  0.00    +0.000 C 
ENDROOT
BRANCH   1   2
ATOM      2  C   UNL     1      46.512   6.420  13.005  0.00  0.00    +0.000 A 
ATOM      3  C   UNL     1      47.822   6.283  12.517  0.00  0.00    +0.000 A 
ATOM      4  C   UNL     1      48.542   7.388  12.043  0.00  0.00    +0.000 A 
ATOM      5  C   UNL     1      47.963   8.660  12.038  0.00  0.00    +0.000 A 
ATOM      6  C   UNL     1      46.616   8.780  12.401  0.00  0.00    +0.000 A 
ATOM      7  C   UNL     1      45.896   7.673  12.869  0.00  0.00    +0.000 A 
BRANCH   5   8
ATOM      8  C   UNL     1      48.811   9.894  11.829  0.00  0.00    +0.000 C 
BRANCH   8   9
ATOM      9  N   UNL     1      49.698  10.339  12.888  0.00  0.00    +0.000 NA
ATOM     10  C   UNL     1      51.107   9.964  12.791  0.00  0.00    +0.000 C 
ATOM     11  C   UNL     1      51.527   8.805  13.706  0.00  0.00    +0.000 C 
ATOM     12  O   UNL     1      51.107   9.028  15.058  0.00  0.00    +0.000 OA
ATOM     13  C   UNL     1      49.681   9.140  15.111  0.00  0.00    +0.000 C 
ATOM     14  C   UNL     1      49.179  10.310  14.254  0.00  0.00    +0.000 C 
ENDBRANCH   8   9
ENDBRANCH   5   8
ENDBRANCH   1   2
BRANCH   1  16
ATOM     15  C   UNL     1      43.758   4.230  12.900  0.00  0.00    +0.000 C 
ATOM     16  O   UNL     1      45.127   4.501  12.639  0.00  0.00    +0.000 OA
ENDBRANCH   1  16
BRANCH   1  17
ATOM     17  C   UNL     1      46.767   4.287  14.467  0.00  0.00    +0.000 C 
BRANCH  17  18
ATOM     18  N   UNL     1      47.278   4.886  15.690  0.00  0.00    +0.000 N 
ATOM     19  C   UNL     1      47.180   4.254  16.901  0.00  0.00    +0.000 C 
ATOM     20  O   UNL     1      46.569   3.195  17.027  0.00  0.00    +0.000 OA
ATOM     21  H   UNL     1      47.889   5.692  15.577  0.00  0.00    +0.000 HD
BRANCH  19  22
ATOM     22  C   UNL     1      47.817   4.908  18.052  0.00  0.00    +0.000 A 
ATOM     23  C   UNL     1      47.071   5.760  18.857  0.00  0.00    +0.000 A 
ATOM     24  S   UNL     1      47.942   6.389  20.180  0.00  0.00    +0.000 S 
ATOM     25  C   UNL     1      49.337   5.520  19.745  0.00  0.00    +0.000 A 
ATOM     26  N   UNL     1      50.457   5.564  20.517  0.00  0.00    +0.000 NA
ATOM     27  C   UNL     1      51.427   4.827  20.091  0.00  0.00    +0.000 A 
ATOM     28  N   UNL     1      51.388   4.069  18.950  0.00  0.00    +0.000 N 
ATOM     29  C   UNL     1      50.304   4.045  18.107  0.00  0.00    +0.000 A 
ATOM     30  O   UNL     1      50.343   3.440  17.042  0.00  0.00    +0.000 OA
ATOM     31  C   UNL     1      49.159   4.803  18.573  0.00  0.00    +0.000 A 
ATOM     32  H   UNL     1      52.196   3.544  18.648  0.00  0.00    +0.000 HD
ENDBRANCH  19  22
ENDBRANCH  17  18
ENDBRANCH   1  17
TORSDOF 7
ENDMDL
MODEL 9
REMARK VINA RESULT:    -6.454      3.215      9.082
REMARK INTER + INTRA:          -9.810
REMARK INTER:                  -8.852
REMARK INTRA:                  -0.958
REMARK UNBOUND:                -0.715
REMARK  Name = 
REMARK  8 active torsions:
REMARK  status: ('A' for Active; 'I' for Inactive)
REMARK    1  A    between atoms: C_1  and  O_2
REMARK    2  A    between atoms: O_2  and  C_3
REMARK    3  A    between atoms: C_3  and  C_4
REMARK    4  A    between atoms: C_3  and  C_18
REMARK    5  A    between atoms: C_4  and  N_5
REMARK    6  A    between atoms: C_6  and  C_8
REMARK    7  A    between atoms: C_21  and  C_22
REMARK    8  A    between atoms: C_22  and  N_23
REMARK                            x       y       z     vdW  Elec       q    Type
REMARK                         _______ _______ _______ _____ _____    ______ ____
ROOT
ATOM      1  C   UNL     1      48.218   9.201  12.821  0.00  0.00    +0.000 C 
ENDROOT
BRANCH   1   2
ATOM      2  C   UNL     1      48.382   8.424  14.134  0.00  0.00    +0.000 A 
ATOM      3  C   UNL     1      48.125   9.059  15.361  0.00  0.00    +0.000 A 
ATOM      4  C   UNL     1      48.416   8.432  16.579  0.00  0.00    +0.000 A 
ATOM      5  C   UNL     1      48.966   7.147  16.601  0.00  0.00    +0.000 A 
ATOM      6  C   UNL     1      49.102   6.461  15.388  0.00  0.00    +0.000 A 
ATOM      7  C   UNL     1      48.806   7.088  14.171  0.00  0.00    +0.000 A 
BRANCH   5   8
ATOM      8  C   UNL     1      49.568   6.586  17.869  0.00  0.00    +0.000 C 
BRANCH   8   9
ATOM      9  N   UNL     1      48.942   5.445  18.512  0.00  0.00    +0.000 NA
ATOM     10  C   UNL     1      49.671   4.178  18.500  0.00  0.00    +0.000 C 
ATOM     11  C   UNL     1      49.164   3.155  17.474  0.00  0.00    +0.000 C 
ATOM     12  O   UNL     1      47.746   2.973  17.574  0.00  0.00    +0.000 OA
ATOM     13  C   UNL     1      47.079   4.216  17.328  0.00  0.00    +0.000 C 
ATOM     14  C   UNL     1      47.498   5.287  18.344  0.00  0.00    +0.000 C 
ENDBRANCH   8   9
ENDBRANCH   5   8
ENDBRANCH   1   2
BRANCH   1  16
ATOM     15  C   UNL     1      50.407   9.476  11.833  0.00  0.00    +0.000 C 
ATOM     16  O   UNL     1      49.220   8.703  11.907  0.00  0.00    +0.000 OA
ENDBRANCH   1  16
BRANCH   1  17
ATOM     17  C   UNL     1      46.804   9.109  12.186  0.00  0.00    +0.000 C 
BRANCH  17  18
ATOM     18  N   UNL     1      46.210   7.787  12.305  0.00  0.00    +0.000 N 
ATOM     19  C   UNL     1      45.038   7.460  11.677  0.00  0.00    +0.000 C 
ATOM     20  O   UNL     1      44.381   8.299  11.064  0.00  0.00    +0.000 OA
ATOM     21  H   UNL     1      46.804   7.059  12.700  0.00  0.00    +0.000 HD
BRANCH  19  22
ATOM     22  C   UNL     1      44.584   6.068  11.787  0.00  0.00    +0.000 A 
ATOM     23  C   UNL     1      43.878   5.663  12.913  0.00  0.00    +0.000 A 
ATOM     24  S   UNL     1      43.375   4.036  12.858  0.00  0.00    +0.000 S 
ATOM     25  C   UNL     1      44.051   3.822  11.312  0.00  0.00    +0.000 A 
ATOM     26  N   UNL     1      43.915   2.644  10.646  0.00  0.00    +0.000 NA
ATOM     27  C   UNL     1      44.443   2.633   9.469  0.00  0.00    +0.000 A 
ATOM     28  N   UNL     1      45.116   3.685   8.906  0.00  0.00    +0.000 N 
ATOM     29  C   UNL     1      45.333   4.870   9.565  0.00  0.00    +0.000 A 
ATOM     30  O   UNL     1      46.029   5.751   9.074  0.00  0.00    +0.000 OA
ATOM     31  C   UNL     1      44.702   4.961  10.868  0.00  0.00    +0.000 A 
ATOM     32  H   UNL     1      45.542   3.601   7.994  0.00  0.00    +0.000 HD
ENDBRANCH  19  22
ENDBRANCH  17  18
ENDBRANCH   1  17
TORSDOF 7
ENDMDL
