MODEL 1
REMARK VINA RESULT:    -8.107      0.000      0.000
REMARK INTER + INTRA:         -11.176
REMARK INTER:                 -10.713
REMARK INTRA:                  -0.462
REMARK UNBOUND:                -0.462
REMARK  Name = 
REMARK  6 active torsions:
REMARK  status: ('A' for Active; 'I' for Inactive)
REMARK    1  A    between atoms: C_2  and  O_3
REMARK    2  A    between atoms: C_2  and  C_4
REMARK    3  A    between atoms: C_8  and  O_9
REMARK    4  A    between atoms: O_9  and  C_10
REMARK    5  A    between atoms: C_10  and  C_11
REMARK    6  A    between atoms: C_16  and  N_17
REMARK                            x       y       z     vdW  Elec       q    Type
REMARK                         _______ _______ _______ _____ _____    ______ ____
ROOT
ATOM      1  C   UNL     1      44.384   4.335  12.064  0.00  0.00    +0.000 A 
ATOM      2  C   UNL     1      43.729   5.544  11.868  0.00  0.00    +0.000 A 
ATOM      3  F   UNL     1      42.530   5.561  11.267  0.00  0.00    +0.000 F 
ATOM      4  C   UNL     1      44.275   6.745  12.295  0.00  0.00    +0.000 A 
ATOM      5  C   UNL     1      45.511   6.749  12.940  0.00  0.00    +0.000 A 
ATOM      6  C   UNL     1      46.227   5.561  13.147  0.00  0.00    +0.000 A 
ATOM      7  C   UNL     1      45.634   4.366  12.686  0.00  0.00    +0.000 A 
ATOM      8  F   UNL     1      46.260   3.195  12.890  0.00  0.00    +0.000 F 
ENDROOT
BRANCH   6   9
ATOM      9  N   UNL     1      47.463   5.578  13.760  0.00  0.00    +0.000 N 
ATOM     10  C   UNL     1      47.728   4.921  15.042  0.00  0.00    +0.000 C 
ATOM     11  C   UNL     1      48.365   5.915  16.035  0.00  0.00    +0.000 C 
ATOM     12  N   UNL     1      49.549   6.621  15.495  0.00  0.00    +0.000 NA
ATOM     13  C   UNL     1      49.177   7.281  14.223  0.00  0.00    +0.000 C 
ATOM     14  C   UNL     1      48.585   6.314  13.172  0.00  0.00    +0.000 C 
ATOM     15  H   UNL     1      50.262   5.923  15.285  0.00  0.00    +0.000 HD
ENDBRANCH   6   9
BRANCH   1  16
ATOM     16  C   UNL     1      43.773   3.040  11.627  0.00  0.00    +0.000 C 
BRANCH  16  17
ATOM     17  O   UNL     1      43.422   3.131  10.246  0.00  0.00    +0.000 OA
BRANCH  17  22
ATOM     18  C   UNL     1      46.222   2.123   8.038  0.00  0.00    +0.000 A 
ATOM     19  C   UNL     1      46.473   3.379   7.501  0.00  0.00    +0.000 A 
ATOM     20  N   UNL     1      45.790   4.488   7.858  0.00  0.00    +0.000 NA
ATOM     21  C   UNL     1      44.794   4.319   8.764  0.00  0.00    +0.000 A 
ATOM     22  C   UNL     1      44.453   3.103   9.351  0.00  0.00    +0.000 A 
ATOM     23  C   UNL     1      45.189   1.984   8.971  0.00  0.00    +0.000 A 
BRANCH  18  25
ATOM     24  O   UNL     1      46.640  -0.200   7.940  0.00  0.00    +0.000 OA
ATOM     25  C   UNL     1      46.972   0.933   7.609  0.00  0.00    +0.000 C 
BRANCH  25  26
ATOM     26  O   UNL     1      48.063   1.198   6.871  0.00  0.00    +0.000 OA
ATOM     27  H   UNL     1      48.759   0.513   6.871  0.00  0.00    +0.000 HD
ENDBRANCH  25  26
ENDBRANCH  18  25
ENDBRANCH  17  22
ENDBRANCH  16  17
ENDBRANCH   1  16
TORSDOF 6
ENDMDL
MODEL 2
REMARK VINA RESULT:    -7.862      2.080      2.883
REMARK INTER + INTRA:         -10.852
REMARK INTER:                 -10.201
REMARK INTRA:                  -0.652
REMARK UNBOUND:                -0.462
REMARK  Name = 
REMARK  6 active torsions:
REMARK  status: ('A' for Active; 'I' for Inactive)
REMARK    1  A    between atoms: C_2  and  O_3
REMARK    2  A    between atoms: C_2  and  C_4
REMARK    3  A    between atoms: C_8  and  O_9
REMARK    4  A    between atoms: O_9  and  C_10
REMARK    5  A    between atoms: C_10  and  C_11
REMARK    6  A    between atoms: C_16  and  N_17
REMARK                            x       y       z     vdW  Elec       q    Type
REMARK                         _______ _______ _______ _____ _____    ______ ____
ROOT
ATOM      1  C   UNL     1      44.993   4.683  11.399  0.00  0.00    +0.000 A 
ATOM      2  C   UNL     1      45.131   3.710  12.379  0.00  0.00    +0.000 A 
ATOM      3  F   UNL     1      44.450   2.558  12.275  0.00  0.00    +0.000 F 
ATOM      4  C   UNL     1      45.974   3.887  13.466  0.00  0.00    +0.000 A 
ATOM      5  C   UNL     1      46.706   5.067  13.585  0.00  0.00    +0.000 A 
ATOM      6  C   UNL     1      46.590   6.093  12.635  0.00  0.00    +0.000 A 
ATOM      7  C   UNL     1      45.713   5.869  11.552  0.00  0.00    +0.000 A 
ATOM      8  F   UNL     1      45.591   6.804  10.595  0.00  0.00    +0.000 F 
ENDROOT
BRANCH   6   9
ATOM      9  N   UNL     1      47.297   7.270  12.776  0.00  0.00    +0.000 N 
ATOM     10  C   UNL     1      46.669   8.540  13.146  0.00  0.00    +0.000 C 
ATOM     11  C   UNL     1      47.038   9.640  12.131  0.00  0.00    +0.000 C 
ATOM     12  N   UNL     1      48.493   9.767  11.892  0.00  0.00    +0.000 NA
ATOM     13  C   UNL     1      49.032   8.448  11.489  0.00  0.00    +0.000 C 
ATOM     14  C   UNL     1      48.736   7.320  12.505  0.00  0.00    +0.000 C 
ATOM     15  H   UNL     1      48.935  10.026  12.774  0.00  0.00    +0.000 HD
ENDBRANCH   6   9
BRANCH   1  16
ATOM     16  C   UNL     1      44.104   4.470  10.212  0.00  0.00    +0.000 C 
BRANCH  16  17
ATOM     17  O   UNL     1      44.878   4.596   9.019  0.00  0.00    +0.000 OA
BRANCH  17  22
ATOM     18  C   UNL     1      46.938   2.117   7.191  0.00  0.00    +0.000 A 
ATOM     19  C   UNL     1      46.398   0.983   7.782  0.00  0.00    +0.000 A 
ATOM     20  N   UNL     1      45.407   1.023   8.698  0.00  0.00    +0.000 NA
ATOM     21  C   UNL     1      44.966   2.255   9.057  0.00  0.00    +0.000 A 
ATOM     22  C   UNL     1      45.449   3.454   8.537  0.00  0.00    +0.000 A 
ATOM     23  C   UNL     1      46.460   3.372   7.583  0.00  0.00    +0.000 A 
BRANCH  18  25
ATOM     24  O   UNL     1      48.075   1.162   5.353  0.00  0.00    +0.000 OA
ATOM     25  C   UNL     1      48.033   2.036   6.213  0.00  0.00    +0.000 C 
BRANCH  25  26
ATOM     26  O   UNL     1      48.993   2.963   6.372  0.00  0.00    +0.000 OA
ATOM     27  H   UNL     1      49.903   2.680   6.162  0.00  0.00    +0.000 HD
ENDBRANCH  25  26
ENDBRANCH  18  25
ENDBRANCH  17  22
ENDBRANCH  16  17
ENDBRANCH   1  16
TORSDOF 6
ENDMDL
MODEL 3
REMARK VINA RESULT:    -7.237      3.781      7.161
REMARK INTER + INTRA:         -10.027
REMARK INTER:                  -9.008
REMARK INTRA:                  -1.019
REMARK UNBOUND:                -0.462
REMARK  Name = 
REMARK  6 active torsions:
REMARK  status: ('A' for Active; 'I' for Inactive)
REMARK    1  A    between atoms: C_2  and  O_3
REMARK    2  A    between atoms: C_2  and  C_4
REMARK    3  A    between atoms: C_8  and  O_9
REMARK    4  A    between atoms: O_9  and  C_10
REMARK    5  A    between atoms: C_10  and  C_11
REMARK    6  A    between atoms: C_16  and  N_17
REMARK                            x       y       z     vdW  Elec       q    Type
REMARK                         _______ _______ _______ _____ _____    ______ ____
ROOT
ATOM      1  C   UNL     1      47.112   7.166  12.643  0.00  0.00    +0.000 A 
ATOM      2  C   UNL     1      46.670   8.452  12.360  0.00  0.00    +0.000 A 
ATOM      3  F   UNL     1      47.473   9.500  12.597  0.00  0.00    +0.000 F 
ATOM      4  C   UNL     1      45.415   8.686  11.817  0.00  0.00    +0.000 A 
ATOM      5  C   UNL     1      44.571   7.611  11.543  0.00  0.00    +0.000 A 
ATOM      6  C   UNL     1      44.957   6.293  11.828  0.00  0.00    +0.000 A 
ATOM      7  C   UNL     1      46.239   6.106  12.388  0.00  0.00    +0.000 A 
ATOM      8  F   UNL     1      46.674   4.862  12.648  0.00  0.00    +0.000 F 
ENDROOT
BRANCH   6   9
ATOM      9  N   UNL     1      44.104   5.237  11.581  0.00  0.00    +0.000 N 
ATOM     10  C   UNL     1      43.319   4.581  12.630  0.00  0.00    +0.000 C 
ATOM     11  C   UNL     1      43.555   3.057  12.606  0.00  0.00    +0.000 C 
ATOM     12  N   UNL     1      43.360   2.443  11.274  0.00  0.00    +0.000 NA
ATOM     13  C   UNL     1      44.217   3.145  10.291  0.00  0.00    +0.000 C 
ATOM     14  C   UNL     1      43.976   4.671  10.235  0.00  0.00    +0.000 C 
ATOM     15  H   UNL     1      42.389   2.591  10.999  0.00  0.00    +0.000 HD
ENDBRANCH   6   9
BRANCH   1  16
ATOM     16  C   UNL     1      48.480   6.921  13.200  0.00  0.00    +0.000 C 
BRANCH  16  17
ATOM     17  O   UNL     1      48.591   7.566  14.469  0.00  0.00    +0.000 OA
BRANCH  17  22
ATOM     18  C   UNL     1      48.137   4.738  16.819  0.00  0.00    +0.000 A 
ATOM     19  C   UNL     1      48.532   5.410  17.969  0.00  0.00    +0.000 A 
ATOM     20  N   UNL     1      48.897   6.710  17.979  0.00  0.00    +0.000 NA
ATOM     21  C   UNL     1      48.897   7.348  16.781  0.00  0.00    +0.000 A 
ATOM     22  C   UNL     1      48.532   6.763  15.571  0.00  0.00    +0.000 A 
ATOM     23  C   UNL     1      48.146   5.426  15.601  0.00  0.00    +0.000 A 
BRANCH  18  25
ATOM     24  O   UNL     1      48.417   2.463  16.246  0.00  0.00    +0.000 OA
ATOM     25  C   UNL     1      47.767   3.316  16.842  0.00  0.00    +0.000 C 
BRANCH  25  26
ATOM     26  O   UNL     1      46.644   3.041  17.527  0.00  0.00    +0.000 OA
ATOM     27  H   UNL     1      46.350   2.111  17.517  0.00  0.00    +0.000 HD
ENDBRANCH  25  26
ENDBRANCH  18  25
ENDBRANCH  17  22
ENDBRANCH  16  17
ENDBRANCH   1  16
TORSDOF 6
ENDMDL
MODEL 4
REMARK VINA RESULT:    -6.753      4.011      7.080
REMARK INTER + INTRA:          -9.386
REMARK INTER:                  -8.379
REMARK INTRA:                  -1.007
REMARK UNBOUND:                -0.462
REMARK  Name = 
REMARK  6 active torsions:
REMARK  status: ('A' for Active; 'I' for Inactive)
REMARK    1  A    between atoms: C_2  and  O_3
REMARK    2  A    between atoms: C_2  and  C_4
REMARK    3  A    between atoms: C_8  and  O_9
REMARK    4  A    between atoms: O_9  and  C_10
REMARK    5  A    between atoms: C_10  and  C_11
REMARK    6  A    between atoms: C_16  and  N_17
REMARK                            x       y       z     vdW  Elec       q    Type
REMARK                         _______ _______ _______ _____ _____    ______ ____
ROOT
ATOM      1  C   UNL     1      47.479   7.257  12.793  0.00  0.00    +0.000 A 
ATOM      2  C   UNL     1      48.254   6.916  13.893  0.00  0.00    +0.000 A 
ATOM      3  F   UNL     1      49.292   7.690  14.243  0.00  0.00    +0.000 F 
ATOM      4  C   UNL     1      47.972   5.795  14.660  0.00  0.00    +0.000 A 
ATOM      5  C   UNL     1      46.886   4.986  14.327  0.00  0.00    +0.000 A 
ATOM      6  C   UNL     1      46.082   5.272  13.214  0.00  0.00    +0.000 A 
ATOM      7  C   UNL     1      46.414   6.418  12.459  0.00  0.00    +0.000 A 
ATOM      8  F   UNL     1      45.656   6.758  11.404  0.00  0.00    +0.000 F 
ENDROOT
BRANCH   6   9
ATOM      9  N   UNL     1      45.027   4.450  12.874  0.00  0.00    +0.000 N 
ATOM     10  C   UNL     1      45.199   3.182  12.163  0.00  0.00    +0.000 C 
ATOM     11  C   UNL     1      44.296   3.138  10.913  0.00  0.00    +0.000 C 
ATOM     12  N   UNL     1      42.876   3.453  11.192  0.00  0.00    +0.000 NA
ATOM     13  C   UNL     1      42.800   4.764  11.877  0.00  0.00    +0.000 C 
ATOM     14  C   UNL     1      43.646   4.839  13.169  0.00  0.00    +0.000 C 
ATOM     15  H   UNL     1      42.518   2.747  11.834  0.00  0.00    +0.000 HD
ENDBRANCH   6   9
BRANCH   1  16
ATOM     16  C   UNL     1      47.772   8.486  11.989  0.00  0.00    +0.000 C 
BRANCH  16  17
ATOM     17  O   UNL     1      47.128   9.607  12.597  0.00  0.00    +0.000 OA
BRANCH  17  22
ATOM     18  C   UNL     1      43.935  10.361  10.874  0.00  0.00    +0.000 A 
ATOM     19  C   UNL     1      44.278  11.633  10.435  0.00  0.00    +0.000 A 
ATOM     20  N   UNL     1      45.484  12.197  10.663  0.00  0.00    +0.000 NA
ATOM     21  C   UNL     1      46.365  11.465  11.391  0.00  0.00    +0.000 A 
ATOM     22  C   UNL     1      46.116  10.189  11.889  0.00  0.00    +0.000 A 
ATOM     23  C   UNL     1      44.868   9.633  11.620  0.00  0.00    +0.000 A 
BRANCH  18  25
ATOM     24  O   UNL     1      41.663  10.471  10.236  0.00  0.00    +0.000 OA
ATOM     25  C   UNL     1      42.604   9.789  10.626  0.00  0.00    +0.000 C 
BRANCH  25  26
ATOM     26  O   UNL     1      42.500   8.478  10.905  0.00  0.00    +0.000 OA
ATOM     27  H   UNL     1      42.147   8.253  11.787  0.00  0.00    +0.000 HD
ENDBRANCH  25  26
ENDBRANCH  18  25
ENDBRANCH  17  22
ENDBRANCH  16  17
ENDBRANCH   1  16
TORSDOF 6
ENDMDL
MODEL 5
REMARK VINA RESULT:    -6.751      2.640      4.406
REMARK INTER + INTRA:          -9.384
REMARK INTER:                  -8.218
REMARK INTRA:                  -1.166
REMARK UNBOUND:                -0.462
REMARK  Name = 
REMARK  6 active torsions:
REMARK  status: ('A' for Active; 'I' for Inactive)
REMARK    1  A    between atoms: C_2  and  O_3
REMARK    2  A    between atoms: C_2  and  C_4
REMARK    3  A    between atoms: C_8  and  O_9
REMARK    4  A    between atoms: O_9  and  C_10
REMARK    5  A    between atoms: C_10  and  C_11
REMARK    6  A    between atoms: C_16  and  N_17
REMARK                            x       y       z     vdW  Elec       q    Type
REMARK                         _______ _______ _______ _____ _____    ______ ____
ROOT
ATOM      1  C   UNL     1      47.429   4.779  14.565  0.00  0.00    +0.000 A 
ATOM      2  C   UNL     1      47.730   4.676  15.916  0.00  0.00    +0.000 A 
ATOM      3  F   UNL     1      47.336   3.595  16.607  0.00  0.00    +0.000 F 
ATOM      4  C   UNL     1      48.451   5.660  16.577  0.00  0.00    +0.000 A 
ATOM      5  C   UNL     1      48.889   6.782  15.876  0.00  0.00    +0.000 A 
ATOM      6  C   UNL     1      48.595   6.949  14.514  0.00  0.00    +0.000 A 
ATOM      7  C   UNL     1      47.851   5.925  13.889  0.00  0.00    +0.000 A 
ATOM      8  F   UNL     1      47.573   6.017  12.577  0.00  0.00    +0.000 F 
ENDROOT
BRANCH   6   9
ATOM      9  N   UNL     1      49.007   8.077  13.835  0.00  0.00    +0.000 N 
ATOM     10  C   UNL     1      48.191   9.288  13.728  0.00  0.00    +0.000 C 
ATOM     11  C   UNL     1      48.040   9.706  12.251  0.00  0.00    +0.000 C 
ATOM     12  N   UNL     1      49.326   9.813  11.526  0.00  0.00    +0.000 NA
ATOM     13  C   UNL     1      50.062   8.536  11.660  0.00  0.00    +0.000 C 
ATOM     14  C   UNL     1      50.290   8.101  13.126  0.00  0.00    +0.000 C 
ATOM     15  H   UNL     1      49.881  10.540  11.978  0.00  0.00    +0.000 HD
ENDBRANCH   6   9
BRANCH   1  16
ATOM     16  C   UNL     1      46.677   3.697  13.853  0.00  0.00    +0.000 C 
BRANCH  16  17
ATOM     17  O   UNL     1      45.278   3.975  13.925  0.00  0.00    +0.000 OA
BRANCH  17  22
ATOM     18  C   UNL     1      44.357   4.522  10.377  0.00  0.00    +0.000 A 
ATOM     19  C   UNL     1      43.200   5.252  10.615  0.00  0.00    +0.000 A 
ATOM     20  N   UNL     1      42.763   5.568  11.854  0.00  0.00    +0.000 NA
ATOM     21  C   UNL     1      43.503   5.102  12.892  0.00  0.00    +0.000 A 
ATOM     22  C   UNL     1      44.668   4.351  12.763  0.00  0.00    +0.000 A 
ATOM     23  C   UNL     1      45.097   4.058  11.471  0.00  0.00    +0.000 A 
BRANCH  18  25
ATOM     24  O   UNL     1      44.513   3.101   8.496  0.00  0.00    +0.000 OA
ATOM     25  C   UNL     1      44.790   4.177   9.016  0.00  0.00    +0.000 C 
BRANCH  25  26
ATOM     26  O   UNL     1      45.544   5.114   8.415  0.00  0.00    +0.000 OA
ATOM     27  H   UNL     1      45.741   5.911   8.943  0.00  0.00    +0.000 HD
ENDBRANCH  25  26
ENDBRANCH  18  25
ENDBRANCH  17  22
ENDBRANCH  16  17
ENDBRANCH   1  16
TORSDOF 6
ENDMDL
MODEL 6
REMARK VINA RESULT:    -6.707      4.308      7.382
REMARK INTER + INTRA:          -9.325
REMARK INTER:                  -8.425
REMARK INTRA:                  -0.900
REMARK UNBOUND:                -0.462
REMARK  Name = 
REMARK  6 active torsions:
REMARK  status: ('A' for Active; 'I' for Inactive)
REMARK    1  A    between atoms: C_2  and  O_3
REMARK    2  A    between atoms: C_2  and  C_4
REMARK    3  A    between atoms: C_8  and  O_9
REMARK    4  A    between atoms: O_9  and  C_10
REMARK    5  A    between atoms: C_10  and  C_11
REMARK    6  A    between atoms: C_16  and  N_17
REMARK                            x       y       z     vdW  Elec       q    Type
REMARK                         _______ _______ _______ _____ _____    ______ ____
ROOT
ATOM      1  C   UNL     1      47.107   6.893  13.275  0.00  0.00    +0.000 A 
ATOM      2  C   UNL     1      46.707   8.207  13.074  0.00  0.00    +0.000 A 
ATOM      3  F   UNL     1      47.445   9.211  13.573  0.00  0.00    +0.000 F 
ATOM      4  C   UNL     1      45.565   8.517  12.351  0.00  0.00    +0.000 A 
ATOM      5  C   UNL     1      44.794   7.491  11.807  0.00  0.00    +0.000 A 
ATOM      6  C   UNL     1      45.139   6.145  11.996  0.00  0.00    +0.000 A 
ATOM      7  C   UNL     1      46.305   5.880  12.746  0.00  0.00    +0.000 A 
ATOM      8  F   UNL     1      46.701   4.609  12.927  0.00  0.00    +0.000 F 
ENDROOT
BRANCH   6   9
ATOM      9  N   UNL     1      44.354   5.134  11.478  0.00  0.00    +0.000 N 
ATOM     10  C   UNL     1      43.316   4.453  12.253  0.00  0.00    +0.000 C 
ATOM     11  C   UNL     1      43.518   2.925  12.198  0.00  0.00    +0.000 C 
ATOM     12  N   UNL     1      43.655   2.390  10.825  0.00  0.00    +0.000 NA
ATOM     13  C   UNL     1      44.747   3.111  10.134  0.00  0.00    +0.000 C 
ATOM     14  C   UNL     1      44.561   4.646  10.112  0.00  0.00    +0.000 C 
ATOM     15  H   UNL     1      42.788   2.586  10.324  0.00  0.00    +0.000 HD
ENDBRANCH   6   9
BRANCH   1  16
ATOM     16  C   UNL     1      48.359   6.569  14.030  0.00  0.00    +0.000 C 
BRANCH  16  17
ATOM     17  O   UNL     1      48.069   6.546  15.428  0.00  0.00    +0.000 OA
BRANCH  17  22
ATOM     18  C   UNL     1      49.541   3.768  17.389  0.00  0.00    +0.000 A 
ATOM     19  C   UNL     1      48.450   2.912  17.311  0.00  0.00    +0.000 A 
ATOM     20  N   UNL     1      47.318   3.212  16.639  0.00  0.00    +0.000 NA
ATOM     21  C   UNL     1      47.270   4.434  16.051  0.00  0.00    +0.000 A 
ATOM     22  C   UNL     1      48.300   5.370  16.082  0.00  0.00    +0.000 A 
ATOM     23  C   UNL     1      49.458   5.020  16.770  0.00  0.00    +0.000 A 
BRANCH  18  25
ATOM     24  O   UNL     1      51.538   2.561  17.761  0.00  0.00    +0.000 OA
ATOM     25  C   UNL     1      50.749   3.417  18.149  0.00  0.00    +0.000 C 
BRANCH  25  26
ATOM     26  O   UNL     1      50.888   4.075  19.312  0.00  0.00    +0.000 OA
ATOM     27  H   UNL     1      50.503   4.971  19.348  0.00  0.00    +0.000 HD
ENDBRANCH  25  26
ENDBRANCH  18  25
ENDBRANCH  17  22
ENDBRANCH  16  17
ENDBRANCH   1  16
TORSDOF 6
ENDMDL
MODEL 7
REMARK VINA RESULT:    -6.389      4.512      8.576
REMARK INTER + INTRA:          -8.905
REMARK INTER:                  -8.150
REMARK INTRA:                  -0.755
REMARK UNBOUND:                -0.462
REMARK  Name = 
REMARK  6 active torsions:
REMARK  status: ('A' for Active; 'I' for Inactive)
REMARK    1  A    between atoms: C_2  and  O_3
REMARK    2  A    between atoms: C_2  and  C_4
REMARK    3  A    between atoms: C_8  and  O_9
REMARK    4  A    between atoms: O_9  and  C_10
REMARK    5  A    between atoms: C_10  and  C_11
REMARK    6  A    between atoms: C_16  and  N_17
REMARK                            x       y       z     vdW  Elec       q    Type
REMARK                         _______ _______ _______ _____ _____    ______ ____
ROOT
ATOM      1  C   UNL     1      48.228   6.553  13.839  0.00  0.00    +0.000 A 
ATOM      2  C   UNL     1      48.465   7.373  12.743  0.00  0.00    +0.000 A 
ATOM      3  F   UNL     1      49.521   8.200  12.747  0.00  0.00    +0.000 F 
ATOM      4  C   UNL     1      47.644   7.348  11.626  0.00  0.00    +0.000 A 
ATOM      5  C   UNL     1      46.553   6.481  11.591  0.00  0.00    +0.000 A 
ATOM      6  C   UNL     1      46.253   5.646  12.677  0.00  0.00    +0.000 A 
ATOM      7  C   UNL     1      47.113   5.714  13.795  0.00  0.00    +0.000 A 
ATOM      8  F   UNL     1      46.893   4.909  14.848  0.00  0.00    +0.000 F 
ENDROOT
BRANCH   6   9
ATOM      9  N   UNL     1      45.154   4.812  12.646  0.00  0.00    +0.000 N 
ATOM     10  C   UNL     1      45.231   3.404  12.253  0.00  0.00    +0.000 C 
ATOM     11  C   UNL     1      44.208   3.099  11.140  0.00  0.00    +0.000 C 
ATOM     12  N   UNL     1      42.829   3.532  11.461  0.00  0.00    +0.000 NA
ATOM     13  C   UNL     1      42.846   4.971  11.810  0.00  0.00    +0.000 C 
ATOM     14  C   UNL     1      43.816   5.320  12.962  0.00  0.00    +0.000 C 
ATOM     15  H   UNL     1      42.523   3.017  12.286  0.00  0.00    +0.000 HD
ENDBRANCH   6   9
BRANCH   1  16
ATOM     16  C   UNL     1      49.137   6.564  15.028  0.00  0.00    +0.000 C 
BRANCH  16  17
ATOM     17  O   UNL     1      48.458   7.167  16.130  0.00  0.00    +0.000 OA
BRANCH  17  22
ATOM     18  C   UNL     1      49.024   5.559  19.421  0.00  0.00    +0.000 A 
ATOM     19  C   UNL     1      50.012   6.428  19.864  0.00  0.00    +0.000 A 
ATOM     20  N   UNL     1      50.446   7.487  19.147  0.00  0.00    +0.000 NA
ATOM     21  C   UNL     1      49.887   7.656  17.922  0.00  0.00    +0.000 A 
ATOM     22  C   UNL     1      48.902   6.835  17.378  0.00  0.00    +0.000 A 
ATOM     23  C   UNL     1      48.468   5.763  18.153  0.00  0.00    +0.000 A 
BRANCH  18  25
ATOM     24  O   UNL     1      48.428   4.474  21.433  0.00  0.00    +0.000 OA
ATOM     25  C   UNL     1      48.593   4.403  20.220  0.00  0.00    +0.000 C 
BRANCH  25  26
ATOM     26  O   UNL     1      48.441   3.265  19.520  0.00  0.00    +0.000 OA
ATOM     27  H   UNL     1      48.734   2.446  19.962  0.00  0.00    +0.000 HD
ENDBRANCH  25  26
ENDBRANCH  18  25
ENDBRANCH  17  22
ENDBRANCH  16  17
ENDBRANCH   1  16
TORSDOF 6
ENDMDL
MODEL 8
REMARK VINA RESULT:    -6.334      3.801      6.090
REMARK INTER + INTRA:          -8.832
REMARK INTER:                  -7.910
REMARK INTRA:                  -0.923
REMARK UNBOUND:                -0.462
REMARK  Name = 
REMARK  6 active torsions:
REMARK  status: ('A' for Active; 'I' for Inactive)
REMARK    1  A    between atoms: C_2  and  O_3
REMARK    2  A    between atoms: C_2  and  C_4
REMARK    3  A    between atoms: C_8  and  O_9
REMARK    4  A    between atoms: O_9  and  C_10
REMARK    5  A    between atoms: C_10  and  C_11
REMARK    6  A    between atoms: C_16  and  N_17
REMARK                            x       y       z     vdW  Elec       q    Type
REMARK                         _______ _______ _______ _____ _____    ______ ____
ROOT
ATOM      1  C   UNL     1      49.085   7.194  14.842  0.00  0.00    +0.000 A 
ATOM      2  C   UNL     1      50.319   7.787  14.609  0.00  0.00    +0.000 A 
ATOM      3  F   UNL     1      50.472   8.619  13.568  0.00  0.00    +0.000 F 
ATOM      4  C   UNL     1      51.405   7.556  15.440  0.00  0.00    +0.000 A 
ATOM      5  C   UNL     1      51.264   6.710  16.540  0.00  0.00    +0.000 A 
ATOM      6  C   UNL     1      50.047   6.068  16.811  0.00  0.00    +0.000 A 
ATOM      7  C   UNL     1      48.974   6.328  15.932  0.00  0.00    +0.000 A 
ATOM      8  F   UNL     1      47.776   5.766  16.166  0.00  0.00    +0.000 F 
ENDROOT
BRANCH   6   9
ATOM      9  N   UNL     1      49.925   5.210  17.885  0.00  0.00    +0.000 N 
ATOM     10  C   UNL     1      49.880   3.753  17.743  0.00  0.00    +0.000 C 
ATOM     11  C   UNL     1      48.640   3.180  18.460  0.00  0.00    +0.000 C 
ATOM     12  N   UNL     1      48.505   3.625  19.865  0.00  0.00    +0.000 NA
ATOM     13  C   UNL     1      48.525   5.105  19.906  0.00  0.00    +0.000 C 
ATOM     14  C   UNL     1      49.779   5.727  19.248  0.00  0.00    +0.000 C 
ATOM     15  H   UNL     1      49.319   3.290  20.380  0.00  0.00    +0.000 HD
ENDBRANCH   6   9
BRANCH   1  16
ATOM     16  C   UNL     1      47.909   7.473  13.958  0.00  0.00    +0.000 C 
BRANCH  16  17
ATOM     17  O   UNL     1      47.915   6.551  12.867  0.00  0.00    +0.000 OA
BRANCH  17  22
ATOM     18  C   UNL     1      44.604   5.089  12.072  0.00  0.00    +0.000 A 
ATOM     19  C   UNL     1      44.814   3.859  12.681  0.00  0.00    +0.000 A 
ATOM     20  N   UNL     1      45.953   3.537  13.332  0.00  0.00    +0.000 NA
ATOM     21  C   UNL     1      46.930   4.479  13.341  0.00  0.00    +0.000 A 
ATOM     22  C   UNL     1      46.827   5.736  12.750  0.00  0.00    +0.000 A 
ATOM     23  C   UNL     1      45.632   6.038  12.102  0.00  0.00    +0.000 A 
BRANCH  18  25
ATOM     24  O   UNL     1      43.167   5.030  10.198  0.00  0.00    +0.000 OA
ATOM     25  C   UNL     1      43.360   5.396  11.352  0.00  0.00    +0.000 C 
BRANCH  25  26
ATOM     26  O   UNL     1      42.483   6.141  12.047  0.00  0.00    +0.000 OA
ATOM     27  H   UNL     1      41.870   5.653  12.629  0.00  0.00    +0.000 HD
ENDBRANCH  25  26
ENDBRANCH  18  25
ENDBRANCH  17  22
ENDBRANCH  16  17
ENDBRANCH   1  16
TORSDOF 6
ENDMDL
MODEL 9
REMARK VINA RESULT:    -6.325      4.480      6.806
REMARK INTER + INTRA:          -8.821
REMARK INTER:                  -7.782
REMARK INTRA:                  -1.040
REMARK UNBOUND:                -0.462
REMARK  Name = 
REMARK  6 active torsions:
REMARK  status: ('A' for Active; 'I' for Inactive)
REMARK    1  A    between atoms: C_2  and  O_3
REMARK    2  A    between atoms: C_2  and  C_4
REMARK    3  A    between atoms: C_8  and  O_9
REMARK    4  A    between atoms: O_9  and  C_10
REMARK    5  A    between atoms: C_10  and  C_11
REMARK    6  A    between atoms: C_16  and  N_17
REMARK                            x       y       z     vdW  Elec       q    Type
REMARK                         _______ _______ _______ _____ _____    ______ ____
ROOT
ATOM      1  C   UNL     1      46.963   9.570  12.156  0.00  0.00    +0.000 A 
ATOM      2  C   UNL     1      48.001  10.396  11.745  0.00  0.00    +0.000 A 
ATOM      3  F   UNL     1      49.264  10.098  12.083  0.00  0.00    +0.000 F 
ATOM      4  C   UNL     1      47.769  11.524  10.970  0.00  0.00    +0.000 A 
ATOM      5  C   UNL     1      46.466  11.842  10.589  0.00  0.00    +0.000 A 
ATOM      6  C   UNL     1      45.377  11.055  10.994  0.00  0.00    +0.000 A 
ATOM      7  C   UNL     1      45.663   9.924  11.788  0.00  0.00    +0.000 A 
ATOM      8  F   UNL     1      44.662   9.116  12.173  0.00  0.00    +0.000 F 
ENDROOT
BRANCH   6   9
ATOM      9  N   UNL     1      44.088  11.394  10.636  0.00  0.00    +0.000 N 
ATOM     10  C   UNL     1      43.366  12.523  11.226  0.00  0.00    +0.000 C 
ATOM     11  C   UNL     1      41.998  12.062  11.769  0.00  0.00    +0.000 C 
ATOM     12  N   UNL     1      41.187  11.312  10.784  0.00  0.00    +0.000 NA
ATOM     13  C   UNL     1      41.983  10.174  10.271  0.00  0.00    +0.000 C 
ATOM     14  C   UNL     1      43.342  10.592   9.663  0.00  0.00    +0.000 C 
ATOM     15  H   UNL     1      40.993  11.934   9.999  0.00  0.00    +0.000 HD
ENDBRANCH   6   9
BRANCH   1  16
ATOM     16  C   UNL     1      47.226   8.338  12.966  0.00  0.00    +0.000 C 
BRANCH  16  17
ATOM     17  O   UNL     1      47.445   7.237  12.084  0.00  0.00    +0.000 OA
BRANCH  17  22
ATOM     18  C   UNL     1      44.769   4.695  11.754  0.00  0.00    +0.000 A 
ATOM     19  C   UNL     1      45.178   3.885  12.806  0.00  0.00    +0.000 A 
ATOM     20  N   UNL     1      46.242   4.165  13.588  0.00  0.00    +0.000 NA
ATOM     21  C   UNL     1      46.941   5.286  13.279  0.00  0.00    +0.000 A 
ATOM     22  C   UNL     1      46.625   6.157  12.239  0.00  0.00    +0.000 A 
ATOM     23  C   UNL     1      45.512   5.844  11.463  0.00  0.00    +0.000 A 
BRANCH  18  25
ATOM     24  O   UNL     1      42.921   3.362  11.131  0.00  0.00    +0.000 OA
ATOM     25  C   UNL     1      43.619   4.346  10.909  0.00  0.00    +0.000 C 
BRANCH  25  26
ATOM     26  O   UNL     1      43.428   5.164   9.860  0.00  0.00    +0.000 OA
ATOM     27  H   UNL     1      44.045   5.056   9.112  0.00  0.00    +0.000 HD
ENDBRANCH  25  26
ENDBRANCH  18  25
ENDBRANCH  17  22
ENDBRANCH  16  17
ENDBRANCH   1  16
TORSDOF 6
ENDMDL
