MODEL 1
REMARK VINA RESULT:    -7.795      0.000      0.000
REMARK INTER + INTRA:         -10.075
REMARK INTER:                  -9.162
REMARK INTRA:                  -0.912
REMARK UNBOUND:                -0.912
REMARK  Name = 
REMARK  3 active torsions:
REMARK  status: ('A' for Active; 'I' for Inactive)
REMARK    1  A    between atoms: C_4  and  N_5
REMARK    2  A    between atoms: C_12  and  C_13
REMARK    3  A    between atoms: C_13  and  N_14
REMARK                            x       y       z     vdW  Elec       q    Type
REMARK                         _______ _______ _______ _____ _____    ______ ____
ROOT
ATOM      1  F   UNL     1      47.362   3.214  14.765  0.00  0.00    +0.000 F 
ATOM      2  C   UNL     1      46.928   4.024  13.790  0.00  0.00    +0.000 A 
ATOM      3  C   UNL     1      47.495   5.283  13.646  0.00  0.00    +0.000 A 
ATOM      4  C   UNL     1      47.073   6.123  12.617  0.00  0.00    +0.000 A 
ATOM      5  C   UNL     1      46.021   5.671  11.786  0.00  0.00    +0.000 A 
ATOM      6  C   UNL     1      45.406   4.415  11.935  0.00  0.00    +0.000 A 
ATOM      7  C   UNL     1      45.918   3.583  12.943  0.00  0.00    +0.000 A 
ENDROOT
BRANCH   4   8
ATOM      8  N   UNL     1      47.627   7.384  12.375  0.00  0.00    +0.000 N 
ATOM      9  C   UNL     1      46.984   8.579  12.933  0.00  0.00    +0.000 C 
ATOM     10  C   UNL     1      47.439   9.792  12.116  0.00  0.00    +0.000 C 
ATOM     11  C   UNL     1      48.964   9.895  12.032  0.00  0.00    +0.000 C 
ATOM     12  C   UNL     1      49.603   8.569  11.622  0.00  0.00    +0.000 C 
ATOM     13  C   UNL     1      49.094   7.417  12.485  0.00  0.00    +0.000 C 
ENDBRANCH   4   8
BRANCH   6  14
ATOM     14  C   UNL     1      44.237   3.968  11.050  0.00  0.00    +0.000 C 
ATOM     15  C   UNL     1      43.153   4.968  10.692  0.00  0.00    +0.000 C 
ATOM     16  C   UNL     1      42.865   3.939  11.730  0.00  0.00    +0.000 C 
BRANCH  14  17
ATOM     17  N   UNL     1      44.537   2.803  10.214  0.00  0.00    +0.000 N 
ATOM     18  C   UNL     1      45.376   2.739   9.103  0.00  0.00    +0.000 A 
ATOM     19  C   UNL     1      45.700   3.824   8.297  0.00  0.00    +0.000 A 
ATOM     20  C   UNL     1      46.448   3.617   7.134  0.00  0.00    +0.000 A 
ATOM     21  C   UNL     1      46.872   2.336   6.815  0.00  0.00    +0.000 A 
ATOM     22  C   UNL     1      46.533   1.315   7.681  0.00  0.00    +0.000 A 
ATOM     23  N   UNL     1      45.795   1.492   8.800  0.00  0.00    +0.000 NA
ATOM     24  H   UNL     1      44.544   1.886  10.647  0.00  0.00    +0.000 HD
ENDBRANCH  14  17
ENDBRANCH   6  14
TORSDOF 3
ENDMDL
MODEL 2
REMARK VINA RESULT:    -7.684      2.252      3.695
REMARK INTER + INTRA:          -9.944
REMARK INTER:                  -9.233
REMARK INTRA:                  -0.711
REMARK UNBOUND:                -0.912
REMARK  Name = 
REMARK  3 active torsions:
REMARK  status: ('A' for Active; 'I' for Inactive)
REMARK    1  A    between atoms: C_4  and  N_5
REMARK    2  A    between atoms: C_12  and  C_13
REMARK    3  A    between atoms: C_13  and  N_14
REMARK                            x       y       z     vdW  Elec       q    Type
REMARK                         _______ _______ _______ _____ _____    ______ ____
ROOT
ATOM      1  F   UNL     1      48.051   7.701  11.411  0.00  0.00    +0.000 F 
ATOM      2  C   UNL     1      47.322   6.802  12.087  0.00  0.00    +0.000 A 
ATOM      3  C   UNL     1      47.787   6.323  13.304  0.00  0.00    +0.000 A 
ATOM      4  C   UNL     1      47.024   5.410  14.031  0.00  0.00    +0.000 A 
ATOM      5  C   UNL     1      45.815   4.955  13.454  0.00  0.00    +0.000 A 
ATOM      6  C   UNL     1      45.341   5.399  12.206  0.00  0.00    +0.000 A 
ATOM      7  C   UNL     1      46.115   6.370  11.552  0.00  0.00    +0.000 A 
ENDROOT
BRANCH   4   8
ATOM      8  N   UNL     1      47.399   4.917  15.284  0.00  0.00    +0.000 N 
ATOM      9  C   UNL     1      47.579   3.474  15.475  0.00  0.00    +0.000 C 
ATOM     10  C   UNL     1      47.455   3.169  16.970  0.00  0.00    +0.000 C 
ATOM     11  C   UNL     1      48.400   4.025  17.817  0.00  0.00    +0.000 C 
ATOM     12  C   UNL     1      48.306   5.506  17.454  0.00  0.00    +0.000 C 
ATOM     13  C   UNL     1      48.439   5.718  15.948  0.00  0.00    +0.000 C 
ENDBRANCH   4   8
BRANCH   6  14
ATOM     14  C   UNL     1      44.050   4.856  11.583  0.00  0.00    +0.000 C 
ATOM     15  C   UNL     1      42.914   5.815  11.277  0.00  0.00    +0.000 C 
ATOM     16  C   UNL     1      42.804   4.932  12.470  0.00  0.00    +0.000 C 
BRANCH  14  17
ATOM     17  N   UNL     1      44.223   3.591  10.867  0.00  0.00    +0.000 N 
ATOM     18  C   UNL     1      44.976   3.351   9.719  0.00  0.00    +0.000 A 
ATOM     19  C   UNL     1      45.304   4.319   8.776  0.00  0.00    +0.000 A 
ATOM     20  C   UNL     1      45.955   3.938   7.599  0.00  0.00    +0.000 A 
ATOM     21  C   UNL     1      46.282   2.605   7.401  0.00  0.00    +0.000 A 
ATOM     22  C   UNL     1      45.946   1.708   8.397  0.00  0.00    +0.000 A 
ATOM     23  N   UNL     1      45.301   2.054   9.534  0.00  0.00    +0.000 NA
ATOM     24  H   UNL     1      44.207   2.728  11.400  0.00  0.00    +0.000 HD
ENDBRANCH  14  17
ENDBRANCH   6  14
TORSDOF 3
ENDMDL
MODEL 3
REMARK VINA RESULT:    -6.568      2.764      7.366
REMARK INTER + INTRA:          -8.632
REMARK INTER:                  -7.773
REMARK INTRA:                  -0.859
REMARK UNBOUND:                -0.912
REMARK  Name = 
REMARK  3 active torsions:
REMARK  status: ('A' for Active; 'I' for Inactive)
REMARK    1  A    between atoms: C_4  and  N_5
REMARK    2  A    between atoms: C_12  and  C_13
REMARK    3  A    between atoms: C_13  and  N_14
REMARK                            x       y       z     vdW  Elec       q    Type
REMARK                         _______ _______ _______ _____ _____    ______ ____
ROOT
ATOM      1  F   UNL     1      44.471   9.694  12.324  0.00  0.00    +0.000 F 
ATOM      2  C   UNL     1      45.280   8.659  12.059  0.00  0.00    +0.000 A 
ATOM      3  C   UNL     1      44.750   7.506  11.495  0.00  0.00    +0.000 A 
ATOM      4  C   UNL     1      45.586   6.434  11.187  0.00  0.00    +0.000 A 
ATOM      5  C   UNL     1      46.955   6.545  11.528  0.00  0.00    +0.000 A 
ATOM      6  C   UNL     1      47.508   7.689  12.133  0.00  0.00    +0.000 A 
ATOM      7  C   UNL     1      46.634   8.764  12.356  0.00  0.00    +0.000 A 
ENDROOT
BRANCH   4   8
ATOM      8  N   UNL     1      45.139   5.259  10.575  0.00  0.00    +0.000 N 
ATOM      9  C   UNL     1      45.621   4.908   9.235  0.00  0.00    +0.000 C 
ATOM     10  C   UNL     1      44.623   3.931   8.607  0.00  0.00    +0.000 C 
ATOM     11  C   UNL     1      44.359   2.719   9.503  0.00  0.00    +0.000 C 
ATOM     12  C   UNL     1      44.037   3.130  10.939  0.00  0.00    +0.000 C 
ATOM     13  C   UNL     1      45.080   4.103  11.484  0.00  0.00    +0.000 C 
ENDBRANCH   4   8
BRANCH   6  14
ATOM     14  C   UNL     1      48.986   7.767  12.533  0.00  0.00    +0.000 C 
ATOM     15  C   UNL     1      49.784   9.009  12.183  0.00  0.00    +0.000 C 
ATOM     16  C   UNL     1      49.987   7.775  11.374  0.00  0.00    +0.000 C 
BRANCH  14  17
ATOM     17  N   UNL     1      49.344   6.894  13.653  0.00  0.00    +0.000 N 
ATOM     18  C   UNL     1      49.033   7.058  15.002  0.00  0.00    +0.000 A 
ATOM     19  C   UNL     1      48.758   8.280  15.603  0.00  0.00    +0.000 A 
ATOM     20  C   UNL     1      48.585   8.340  16.989  0.00  0.00    +0.000 A 
ATOM     21  C   UNL     1      48.670   7.176  17.738  0.00  0.00    +0.000 A 
ATOM     22  C   UNL     1      48.920   5.997  17.063  0.00  0.00    +0.000 A 
ATOM     23  N   UNL     1      49.107   5.921  15.727  0.00  0.00    +0.000 NA
ATOM     24  H   UNL     1      49.421   5.897  13.483  0.00  0.00    +0.000 HD
ENDBRANCH  14  17
ENDBRANCH   6  14
TORSDOF 3
ENDMDL
MODEL 4
REMARK VINA RESULT:    -6.307      1.122      1.540
REMARK INTER + INTRA:          -8.325
REMARK INTER:                  -7.530
REMARK INTRA:                  -0.795
REMARK UNBOUND:                -0.912
REMARK  Name = 
REMARK  3 active torsions:
REMARK  status: ('A' for Active; 'I' for Inactive)
REMARK    1  A    between atoms: C_4  and  N_5
REMARK    2  A    between atoms: C_12  and  C_13
REMARK    3  A    between atoms: C_13  and  N_14
REMARK                            x       y       z     vdW  Elec       q    Type
REMARK                         _______ _______ _______ _____ _____    ______ ____
ROOT
ATOM      1  F   UNL     1      47.374   4.401  15.752  0.00  0.00    +0.000 F 
ATOM      2  C   UNL     1      47.097   5.064  14.620  0.00  0.00    +0.000 A 
ATOM      3  C   UNL     1      47.896   6.135  14.243  0.00  0.00    +0.000 A 
ATOM      4  C   UNL     1      47.635   6.814  13.054  0.00  0.00    +0.000 A 
ATOM      5  C   UNL     1      46.507   6.414  12.300  0.00  0.00    +0.000 A 
ATOM      6  C   UNL     1      45.662   5.356  12.681  0.00  0.00    +0.000 A 
ATOM      7  C   UNL     1      46.012   4.664  13.850  0.00  0.00    +0.000 A 
ENDROOT
BRANCH   4   8
ATOM      8  N   UNL     1      48.421   7.869  12.581  0.00  0.00    +0.000 N 
ATOM      9  C   UNL     1      49.131   7.732  11.305  0.00  0.00    +0.000 C 
ATOM     10  C   UNL     1      50.282   8.742  11.287  0.00  0.00    +0.000 C 
ATOM     11  C   UNL     1      49.807  10.168  11.577  0.00  0.00    +0.000 C 
ATOM     12  C   UNL     1      48.918  10.231  12.818  0.00  0.00    +0.000 C 
ATOM     13  C   UNL     1      47.800   9.193  12.753  0.00  0.00    +0.000 C 
ENDBRANCH   4   8
BRANCH   6  14
ATOM     14  C   UNL     1      44.419   4.972  11.869  0.00  0.00    +0.000 C 
ATOM     15  C   UNL     1      43.477   6.063  11.394  0.00  0.00    +0.000 C 
ATOM     16  C   UNL     1      43.074   5.224  12.557  0.00  0.00    +0.000 C 
BRANCH  14  17
ATOM     17  N   UNL     1      44.531   3.680  11.187  0.00  0.00    +0.000 N 
ATOM     18  C   UNL     1      45.168   3.401   9.979  0.00  0.00    +0.000 A 
ATOM     19  C   UNL     1      45.390   4.334   8.972  0.00  0.00    +0.000 A 
ATOM     20  C   UNL     1      45.923   3.911   7.751  0.00  0.00    +0.000 A 
ATOM     21  C   UNL     1      46.241   2.574   7.572  0.00  0.00    +0.000 A 
ATOM     22  C   UNL     1      46.016   1.714   8.629  0.00  0.00    +0.000 A 
ATOM     23  N   UNL     1      45.485   2.100   9.811  0.00  0.00    +0.000 NA
ATOM     24  H   UNL     1      44.578   2.839  11.751  0.00  0.00    +0.000 HD
ENDBRANCH  14  17
ENDBRANCH   6  14
TORSDOF 3
ENDMDL
MODEL 5
REMARK VINA RESULT:    -6.214      4.206      7.546
REMARK INTER + INTRA:          -8.216
REMARK INTER:                  -7.559
REMARK INTRA:                  -0.658
REMARK UNBOUND:                -0.912
REMARK  Name = 
REMARK  3 active torsions:
REMARK  status: ('A' for Active; 'I' for Inactive)
REMARK    1  A    between atoms: C_4  and  N_5
REMARK    2  A    between atoms: C_12  and  C_13
REMARK    3  A    between atoms: C_13  and  N_14
REMARK                            x       y       z     vdW  Elec       q    Type
REMARK                         _______ _______ _______ _____ _____    ______ ____
ROOT
ATOM      1  F   UNL     1      49.555   8.263  14.151  0.00  0.00    +0.000 F 
ATOM      2  C   UNL     1      48.805   7.169  14.345  0.00  0.00    +0.000 A 
ATOM      3  C   UNL     1      47.909   6.774  13.360  0.00  0.00    +0.000 A 
ATOM      4  C   UNL     1      47.144   5.622  13.537  0.00  0.00    +0.000 A 
ATOM      5  C   UNL     1      47.272   4.927  14.763  0.00  0.00    +0.000 A 
ATOM      6  C   UNL     1      48.146   5.329  15.789  0.00  0.00    +0.000 A 
ATOM      7  C   UNL     1      48.941   6.455  15.529  0.00  0.00    +0.000 A 
ENDROOT
BRANCH   4   8
ATOM      8  N   UNL     1      46.256   5.131  12.575  0.00  0.00    +0.000 N 
ATOM      9  C   UNL     1      45.153   4.255  12.983  0.00  0.00    +0.000 C 
ATOM     10  C   UNL     1      44.692   3.463  11.756  0.00  0.00    +0.000 C 
ATOM     11  C   UNL     1      44.351   4.372  10.573  0.00  0.00    +0.000 C 
ATOM     12  C   UNL     1      45.457   5.391  10.300  0.00  0.00    +0.000 C 
ATOM     13  C   UNL     1      45.855   6.132  11.574  0.00  0.00    +0.000 C 
ENDBRANCH   4   8
BRANCH   6  14
ATOM     14  C   UNL     1      48.232   4.584  17.126  0.00  0.00    +0.000 C 
ATOM     15  C   UNL     1      47.215   3.502  17.440  0.00  0.00    +0.000 C 
ATOM     16  C   UNL     1      47.074   4.830  18.098  0.00  0.00    +0.000 C 
BRANCH  14  17
ATOM     17  N   UNL     1      49.564   4.608  17.734  0.00  0.00    +0.000 N 
ATOM     18  C   UNL     1      50.570   3.648  17.632  0.00  0.00    +0.000 A 
ATOM     19  C   UNL     1      50.351   2.304  17.355  0.00  0.00    +0.000 A 
ATOM     20  C   UNL     1      51.424   1.409  17.404  0.00  0.00    +0.000 A 
ATOM     21  C   UNL     1      52.692   1.881  17.707  0.00  0.00    +0.000 A 
ATOM     22  C   UNL     1      52.833   3.234  17.944  0.00  0.00    +0.000 A 
ATOM     23  N   UNL     1      51.805   4.112  17.920  0.00  0.00    +0.000 NA
ATOM     24  H   UNL     1      50.018   5.504  17.867  0.00  0.00    +0.000 HD
ENDBRANCH  14  17
ENDBRANCH   6  14
TORSDOF 3
ENDMDL
MODEL 6
REMARK VINA RESULT:    -5.503      3.782      6.316
REMARK INTER + INTRA:          -7.380
REMARK INTER:                  -7.245
REMARK INTRA:                  -0.134
REMARK UNBOUND:                -0.912
REMARK  Name = 
REMARK  3 active torsions:
REMARK  status: ('A' for Active; 'I' for Inactive)
REMARK    1  A    between atoms: C_4  and  N_5
REMARK    2  A    between atoms: C_12  and  C_13
REMARK    3  A    between atoms: C_13  and  N_14
REMARK                            x       y       z     vdW  Elec       q    Type
REMARK                         _______ _______ _______ _____ _____    ______ ____
ROOT
ATOM      1  F   UNL     1      42.960   4.538  11.835  0.00  0.00    +0.000 F 
ATOM      2  C   UNL     1      43.839   5.538  11.988  0.00  0.00    +0.000 A 
ATOM      3  C   UNL     1      43.585   6.766  11.392  0.00  0.00    +0.000 A 
ATOM      4  C   UNL     1      44.476   7.823  11.567  0.00  0.00    +0.000 A 
ATOM      5  C   UNL     1      45.656   7.575  12.308  0.00  0.00    +0.000 A 
ATOM      6  C   UNL     1      45.952   6.329  12.891  0.00  0.00    +0.000 A 
ATOM      7  C   UNL     1      44.987   5.322  12.741  0.00  0.00    +0.000 A 
ENDROOT
BRANCH   4   8
ATOM      8  N   UNL     1      44.269   9.102  11.041  0.00  0.00    +0.000 N 
ATOM      9  C   UNL     1      42.920   9.513  10.638  0.00  0.00    +0.000 C 
ATOM     10  C   UNL     1      43.050  10.674   9.647  0.00  0.00    +0.000 C 
ATOM     11  C   UNL     1      43.901  11.817  10.203  0.00  0.00    +0.000 C 
ATOM     12  C   UNL     1      45.225  11.315  10.779  0.00  0.00    +0.000 C 
ATOM     13  C   UNL     1      45.003  10.160  11.753  0.00  0.00    +0.000 C 
ENDBRANCH   4   8
BRANCH   6  14
ATOM     14  C   UNL     1      47.259   6.074  13.651  0.00  0.00    +0.000 C 
ATOM     15  C   UNL     1      48.129   7.252  14.047  0.00  0.00    +0.000 C 
ATOM     16  C   UNL     1      48.545   6.411  12.891  0.00  0.00    +0.000 C 
BRANCH  14  17
ATOM     17  N   UNL     1      47.285   4.801  14.375  0.00  0.00    +0.000 N 
ATOM     18  C   UNL     1      47.551   4.589  15.727  0.00  0.00    +0.000 A 
ATOM     19  C   UNL     1      48.297   5.446  16.527  0.00  0.00    +0.000 A 
ATOM     20  C   UNL     1      48.606   5.067  17.836  0.00  0.00    +0.000 A 
ATOM     21  C   UNL     1      48.146   3.854  18.322  0.00  0.00    +0.000 A 
ATOM     22  C   UNL     1      47.388   3.070  17.475  0.00  0.00    +0.000 A 
ATOM     23  N   UNL     1      47.093   3.410  16.199  0.00  0.00    +0.000 NA
ATOM     24  H   UNL     1      46.662   4.060  14.073  0.00  0.00    +0.000 HD
ENDBRANCH  14  17
ENDBRANCH   6  14
TORSDOF 3
ENDMDL
MODEL 7
REMARK VINA RESULT:    -5.407      3.458      6.206
REMARK INTER + INTRA:          -7.268
REMARK INTER:                  -6.675
REMARK INTRA:                  -0.593
REMARK UNBOUND:                -0.912
REMARK  Name = 
REMARK  3 active torsions:
REMARK  status: ('A' for Active; 'I' for Inactive)
REMARK    1  A    between atoms: C_4  and  N_5
REMARK    2  A    between atoms: C_12  and  C_13
REMARK    3  A    between atoms: C_13  and  N_14
REMARK                            x       y       z     vdW  Elec       q    Type
REMARK                         _______ _______ _______ _____ _____    ______ ____
ROOT
ATOM      1  F   UNL     1      48.802  10.028  16.887  0.00  0.00    +0.000 F 
ATOM      2  C   UNL     1      48.677   8.888  16.193  0.00  0.00    +0.000 A 
ATOM      3  C   UNL     1      49.055   7.688  16.780  0.00  0.00    +0.000 A 
ATOM      4  C   UNL     1      48.902   6.492  16.080  0.00  0.00    +0.000 A 
ATOM      5  C   UNL     1      48.418   6.562  14.753  0.00  0.00    +0.000 A 
ATOM      6  C   UNL     1      48.063   7.770  14.125  0.00  0.00    +0.000 A 
ATOM      7  C   UNL     1      48.171   8.934  14.900  0.00  0.00    +0.000 A 
ENDROOT
BRANCH   4   8
ATOM      8  N   UNL     1      49.213   5.240  16.618  0.00  0.00    +0.000 N 
ATOM      9  C   UNL     1      50.342   5.105  17.545  0.00  0.00    +0.000 C 
ATOM     10  C   UNL     1      50.784   3.639  17.552  0.00  0.00    +0.000 C 
ATOM     11  C   UNL     1      49.624   2.686  17.853  0.00  0.00    +0.000 C 
ATOM     12  C   UNL     1      48.402   2.984  16.984  0.00  0.00    +0.000 C 
ATOM     13  C   UNL     1      48.033   4.465  17.034  0.00  0.00    +0.000 C 
ENDBRANCH   4   8
BRANCH   6  14
ATOM     14  C   UNL     1      47.583   7.822  12.670  0.00  0.00    +0.000 C 
ATOM     15  C   UNL     1      48.591   7.640  11.550  0.00  0.00    +0.000 C 
ATOM     16  C   UNL     1      48.091   9.011  11.847  0.00  0.00    +0.000 C 
BRANCH  14  17
ATOM     17  N   UNL     1      46.160   7.518  12.502  0.00  0.00    +0.000 N 
ATOM     18  C   UNL     1      45.526   6.285  12.640  0.00  0.00    +0.000 A 
ATOM     19  C   UNL     1      46.153   5.055  12.485  0.00  0.00    +0.000 A 
ATOM     20  C   UNL     1      45.389   3.885  12.520  0.00  0.00    +0.000 A 
ATOM     21  C   UNL     1      44.021   3.970  12.729  0.00  0.00    +0.000 A 
ATOM     22  C   UNL     1      43.476   5.227  12.901  0.00  0.00    +0.000 A 
ATOM     23  N   UNL     1      44.195   6.371  12.853  0.00  0.00    +0.000 NA
ATOM     24  H   UNL     1      45.482   8.232  12.743  0.00  0.00    +0.000 HD
ENDBRANCH  14  17
ENDBRANCH   6  14
TORSDOF 3
ENDMDL
MODEL 8
REMARK VINA RESULT:    -5.386      3.489      7.465
REMARK INTER + INTRA:          -7.243
REMARK INTER:                  -6.594
REMARK INTRA:                  -0.649
REMARK UNBOUND:                -0.912
REMARK  Name = 
REMARK  3 active torsions:
REMARK  status: ('A' for Active; 'I' for Inactive)
REMARK    1  A    between atoms: C_4  and  N_5
REMARK    2  A    between atoms: C_12  and  C_13
REMARK    3  A    between atoms: C_13  and  N_14
REMARK                            x       y       z     vdW  Elec       q    Type
REMARK                         _______ _______ _______ _____ _____    ______ ____
ROOT
ATOM      1  F   UNL     1      50.384   8.524  11.271  0.00  0.00    +0.000 F 
ATOM      2  C   UNL     1      49.595   7.947  12.188  0.00  0.00    +0.000 A 
ATOM      3  C   UNL     1      48.483   7.226  11.775  0.00  0.00    +0.000 A 
ATOM      4  C   UNL     1      47.671   6.596  12.717  0.00  0.00    +0.000 A 
ATOM      5  C   UNL     1      47.988   6.775  14.084  0.00  0.00    +0.000 A 
ATOM      6  C   UNL     1      49.088   7.530  14.528  0.00  0.00    +0.000 A 
ATOM      7  C   UNL     1      49.910   8.083  13.535  0.00  0.00    +0.000 A 
ENDROOT
BRANCH   4   8
ATOM      8  N   UNL     1      46.563   5.814  12.380  0.00  0.00    +0.000 N 
ATOM      9  C   UNL     1      46.066   4.809  13.326  0.00  0.00    +0.000 C 
ATOM     10  C   UNL     1      45.247   3.778  12.545  0.00  0.00    +0.000 C 
ATOM     11  C   UNL     1      44.146   4.430  11.704  0.00  0.00    +0.000 C 
ATOM     12  C   UNL     1      44.679   5.593  10.869  0.00  0.00    +0.000 C 
ATOM     13  C   UNL     1      45.482   6.569  11.725  0.00  0.00    +0.000 C 
ENDBRANCH   4   8
BRANCH   6  14
ATOM     14  C   UNL     1      49.383   7.745  16.017  0.00  0.00    +0.000 C 
ATOM     15  C   UNL     1      48.476   8.651  16.830  0.00  0.00    +0.000 C 
ATOM     16  C   UNL     1      49.810   9.163  16.410  0.00  0.00    +0.000 C 
BRANCH  14  17
ATOM     17  N   UNL     1      50.170   6.672  16.628  0.00  0.00    +0.000 N 
ATOM     18  C   UNL     1      49.760   5.375  16.933  0.00  0.00    +0.000 A 
ATOM     19  C   UNL     1      48.442   5.001  17.167  0.00  0.00    +0.000 A 
ATOM     20  C   UNL     1      48.163   3.698  17.591  0.00  0.00    +0.000 A 
ATOM     21  C   UNL     1      49.203   2.796  17.750  0.00  0.00    +0.000 A 
ATOM     22  C   UNL     1      50.482   3.236  17.472  0.00  0.00    +0.000 A 
ATOM     23  N   UNL     1      50.774   4.496  17.079  0.00  0.00    +0.000 NA
ATOM     24  H   UNL     1      51.165   6.634  16.437  0.00  0.00    +0.000 HD
ENDBRANCH  14  17
ENDBRANCH   6  14
TORSDOF 3
ENDMDL
MODEL 9
REMARK VINA RESULT:    -5.227      5.039      8.000
REMARK INTER + INTRA:          -7.056
REMARK INTER:                  -6.194
REMARK INTRA:                  -0.861
REMARK UNBOUND:                -0.912
REMARK  Name = 
REMARK  3 active torsions:
REMARK  status: ('A' for Active; 'I' for Inactive)
REMARK    1  A    between atoms: C_4  and  N_5
REMARK    2  A    between atoms: C_12  and  C_13
REMARK    3  A    between atoms: C_13  and  N_14
REMARK                            x       y       z     vdW  Elec       q    Type
REMARK                         _______ _______ _______ _____ _____    ______ ____
ROOT
ATOM      1  F   UNL     1      46.916   2.539  17.411  0.00  0.00    +0.000 F 
ATOM      2  C   UNL     1      48.033   3.279  17.371  0.00  0.00    +0.000 A 
ATOM      3  C   UNL     1      49.263   2.669  17.580  0.00  0.00    +0.000 A 
ATOM      4  C   UNL     1      50.434   3.423  17.513  0.00  0.00    +0.000 A 
ATOM      5  C   UNL     1      50.311   4.815  17.292  0.00  0.00    +0.000 A 
ATOM      6  C   UNL     1      49.074   5.460  17.113  0.00  0.00    +0.000 A 
ATOM      7  C   UNL     1      47.933   4.642  17.122  0.00  0.00    +0.000 A 
ENDROOT
BRANCH   4   8
ATOM      8  N   UNL     1      51.712   2.876  17.663  0.00  0.00    +0.000 N 
ATOM      9  C   UNL     1      52.682   3.528  18.550  0.00  0.00    +0.000 C 
ATOM     10  C   UNL     1      54.086   3.077  18.136  0.00  0.00    +0.000 C 
ATOM     11  C   UNL     1      54.217   1.553  18.095  0.00  0.00    +0.000 C 
ATOM     12  C   UNL     1      53.078   0.904  17.310  0.00  0.00    +0.000 C 
ATOM     13  C   UNL     1      51.718   1.409  17.785  0.00  0.00    +0.000 C 
ENDBRANCH   4   8
BRANCH   6  14
ATOM     14  C   UNL     1      48.965   6.977  16.920  0.00  0.00    +0.000 C 
ATOM     15  C   UNL     1      50.065   7.874  17.458  0.00  0.00    +0.000 C 
ATOM     16  C   UNL     1      48.776   7.796  18.201  0.00  0.00    +0.000 C 
BRANCH  14  17
ATOM     17  N   UNL     1      48.106   7.373  15.802  0.00  0.00    +0.000 N 
ATOM     18  C   UNL     1      48.423   7.396  14.445  0.00  0.00    +0.000 A 
ATOM     19  C   UNL     1      49.712   7.517  13.939  0.00  0.00    +0.000 A 
ATOM     20  C   UNL     1      49.897   7.658  12.560  0.00  0.00    +0.000 A 
ATOM     21  C   UNL     1      48.795   7.653  11.719  0.00  0.00    +0.000 A 
ATOM     22  C   UNL     1      47.550   7.502  12.297  0.00  0.00    +0.000 A 
ATOM     23  N   UNL     1      47.348   7.382  13.628  0.00  0.00    +0.000 NA
ATOM     24  H   UNL     1      47.110   7.202  15.874  0.00  0.00    +0.000 HD
ENDBRANCH  14  17
ENDBRANCH   6  14
TORSDOF 3
ENDMDL
