MODEL 1
REMARK VINA RESULT:    -7.743      0.000      0.000
REMARK INTER + INTRA:         -11.725
REMARK INTER:                 -10.458
REMARK INTRA:                  -1.266
REMARK UNBOUND:                -1.266
REMARK  Name = 
REMARK  7 active torsions:
REMARK  status: ('A' for Active; 'I' for Inactive)
REMARK    1  A    between atoms: C_1  and  N_2
REMARK    2  A    between atoms: N_2  and  C_3
REMARK    3  A    between atoms: C_3  and  C_4
REMARK    4  A    between atoms: C_7  and  C_8
REMARK    5  A    between atoms: C_8  and  C_9
REMARK    6  A    between atoms: C_9  and  C_10
REMARK    7  A    between atoms: C_18  and  C_20
REMARK                            x       y       z     vdW  Elec       q    Type
REMARK                         _______ _______ _______ _____ _____    ______ ____
ROOT
ATOM      1  C   UNL     1      46.289   8.512  12.134  0.00  0.00    +0.000 C 
ATOM      2  N   UNL     1      46.137   7.071  11.943  0.00  0.00    +0.000 N 
ATOM      3  C   UNL     1      44.827   6.649  11.626  0.00  0.00    +0.000 C 
ATOM      4  O   UNL     1      43.910   7.459  11.481  0.00  0.00    +0.000 OA
ENDROOT
BRANCH   3   5
ATOM      5  C   UNL     1      44.530   5.214  11.503  0.00  0.00    +0.000 A 
ATOM      6  C   UNL     1      43.779   4.476  12.406  0.00  0.00    +0.000 A 
ATOM      7  S   UNL     1      43.565   2.846  11.956  0.00  0.00    +0.000 S 
ATOM      8  C   UNL     1      44.321   3.112  10.456  0.00  0.00    +0.000 A 
ATOM      9  N   UNL     1      44.371   2.126   9.521  0.00  0.00    +0.000 NA
ATOM     10  C   UNL     1      44.900   2.495   8.401  0.00  0.00    +0.000 A 
ATOM     11  N   UNL     1      45.419   3.741   8.149  0.00  0.00    +0.000 N 
ATOM     12  C   UNL     1      45.511   4.724   9.112  0.00  0.00    +0.000 A 
ATOM     13  O   UNL     1      46.183   5.731   8.923  0.00  0.00    +0.000 OA
ATOM     14  C   UNL     1      44.820   4.396  10.350  0.00  0.00    +0.000 A 
ATOM     15  H   UNL     1      45.876   3.943   7.272  0.00  0.00    +0.000 HD
ENDBRANCH   3   5
BRANCH   2  16
ATOM     16  C   UNL     1      47.238   6.154  12.267  0.00  0.00    +0.000 C 
BRANCH  16  17
ATOM     17  C   UNL     1      47.445   5.822  13.720  0.00  0.00    +0.000 A 
ATOM     18  C   UNL     1      48.286   6.620  14.507  0.00  0.00    +0.000 A 
ATOM     19  C   UNL     1      48.600   6.247  15.813  0.00  0.00    +0.000 A 
ATOM     20  C   UNL     1      48.062   5.078  16.368  0.00  0.00    +0.000 A 
ATOM     21  C   UNL     1      47.178   4.311  15.592  0.00  0.00    +0.000 A 
ATOM     22  C   UNL     1      46.870   4.679  14.281  0.00  0.00    +0.000 A 
BRANCH  20  23
ATOM     23  C   UNL     1      48.488   4.555  17.721  0.00  0.00    +0.000 C 
BRANCH  23  24
ATOM     24  C   UNL     1      49.965   4.770  18.069  0.00  0.00    +0.000 C 
BRANCH  24  25
ATOM     25  C   UNL     1      50.781   3.524  17.865  0.00  0.00    +0.000 A 
ATOM     26  C   UNL     1      52.136   3.487  18.198  0.00  0.00    +0.000 A 
ATOM     27  C   UNL     1      52.863   2.319  17.990  0.00  0.00    +0.000 A 
ATOM     28  C   UNL     1      52.203   1.221  17.462  0.00  0.00    +0.000 A 
ATOM     29  N   UNL     1      50.889   1.214  17.146  0.00  0.00    +0.000 NA
ATOM     30  C   UNL     1      50.211   2.362  17.356  0.00  0.00    +0.000 A 
ENDBRANCH  24  25
ENDBRANCH  23  24
ENDBRANCH  20  23
ENDBRANCH  16  17
ENDBRANCH   2  16
TORSDOF 6
ENDMDL
MODEL 2
REMARK VINA RESULT:    -7.490      3.771      8.401
REMARK INTER + INTRA:         -11.384
REMARK INTER:                 -10.287
REMARK INTRA:                  -1.097
REMARK UNBOUND:                -1.266
REMARK  Name = 
REMARK  7 active torsions:
REMARK  status: ('A' for Active; 'I' for Inactive)
REMARK    1  A    between atoms: C_1  and  N_2
REMARK    2  A    between atoms: N_2  and  C_3
REMARK    3  A    between atoms: C_3  and  C_4
REMARK    4  A    between atoms: C_7  and  C_8
REMARK    5  A    between atoms: C_8  and  C_9
REMARK    6  A    between atoms: C_9  and  C_10
REMARK    7  A    between atoms: C_18  and  C_20
REMARK                            x       y       z     vdW  Elec       q    Type
REMARK                         _______ _______ _______ _____ _____    ______ ____
ROOT
ATOM      1  C   UNL     1      49.551   7.169  12.470  0.00  0.00    +0.000 C 
ATOM      2  N   UNL     1      48.866   7.565  13.699  0.00  0.00    +0.000 N 
ATOM      3  C   UNL     1      49.719   7.872  14.782  0.00  0.00    +0.000 C 
ATOM      4  O   UNL     1      50.945   7.847  14.660  0.00  0.00    +0.000 OA
ENDROOT
BRANCH   3   5
ATOM      5  C   UNL     1      49.144   8.192  16.097  0.00  0.00    +0.000 A 
ATOM      6  C   UNL     1      48.821   9.468  16.535  0.00  0.00    +0.000 A 
ATOM      7  S   UNL     1      48.120   9.507  18.089  0.00  0.00    +0.000 S 
ATOM      8  C   UNL     1      48.066   7.808  18.158  0.00  0.00    +0.000 A 
ATOM      9  N   UNL     1      47.466   7.177  19.203  0.00  0.00    +0.000 NA
ATOM     10  C   UNL     1      47.427   5.890  19.082  0.00  0.00    +0.000 A 
ATOM     11  N   UNL     1      47.969   5.182  18.038  0.00  0.00    +0.000 N 
ATOM     12  C   UNL     1      48.703   5.773  17.031  0.00  0.00    +0.000 A 
ATOM     13  O   UNL     1      49.363   5.097  16.251  0.00  0.00    +0.000 OA
ATOM     14  C   UNL     1      48.671   7.228  17.061  0.00  0.00    +0.000 A 
ATOM     15  H   UNL     1      47.960   4.172  18.037  0.00  0.00    +0.000 HD
ENDBRANCH   3   5
BRANCH   2  16
ATOM     16  C   UNL     1      47.407   7.439  13.814  0.00  0.00    +0.000 C 
BRANCH  16  17
ATOM     17  C   UNL     1      46.730   6.463  12.890  0.00  0.00    +0.000 A 
ATOM     18  C   UNL     1      46.316   6.878  11.617  0.00  0.00    +0.000 A 
ATOM     19  C   UNL     1      45.564   6.030  10.805  0.00  0.00    +0.000 A 
ATOM     20  C   UNL     1      45.229   4.741  11.239  0.00  0.00    +0.000 A 
ATOM     21  C   UNL     1      45.693   4.313  12.494  0.00  0.00    +0.000 A 
ATOM     22  C   UNL     1      46.438   5.164  13.312  0.00  0.00    +0.000 A 
BRANCH  20  23
ATOM     23  C   UNL     1      44.294   3.843  10.461  0.00  0.00    +0.000 C 
BRANCH  23  24
ATOM     24  C   UNL     1      44.363   3.993   8.937  0.00  0.00    +0.000 C 
BRANCH  24  25
ATOM     25  C   UNL     1      45.412   3.106   8.327  0.00  0.00    +0.000 A 
ATOM     26  C   UNL     1      46.357   3.614   7.435  0.00  0.00    +0.000 A 
ATOM     27  C   UNL     1      47.309   2.762   6.884  0.00  0.00    +0.000 A 
ATOM     28  C   UNL     1      47.287   1.427   7.255  0.00  0.00    +0.000 A 
ATOM     29  N   UNL     1      46.401   0.904   8.129  0.00  0.00    +0.000 NA
ATOM     30  C   UNL     1      45.487   1.753   8.645  0.00  0.00    +0.000 A 
ENDBRANCH  24  25
ENDBRANCH  23  24
ENDBRANCH  20  23
ENDBRANCH  16  17
ENDBRANCH   2  16
TORSDOF 6
ENDMDL
MODEL 3
REMARK VINA RESULT:    -7.391      1.457      2.209
REMARK INTER + INTRA:         -11.251
REMARK INTER:                  -9.825
REMARK INTRA:                  -1.426
REMARK UNBOUND:                -1.266
REMARK  Name = 
REMARK  7 active torsions:
REMARK  status: ('A' for Active; 'I' for Inactive)
REMARK    1  A    between atoms: C_1  and  N_2
REMARK    2  A    between atoms: N_2  and  C_3
REMARK    3  A    between atoms: C_3  and  C_4
REMARK    4  A    between atoms: C_7  and  C_8
REMARK    5  A    between atoms: C_8  and  C_9
REMARK    6  A    between atoms: C_9  and  C_10
REMARK    7  A    between atoms: C_18  and  C_20
REMARK                            x       y       z     vdW  Elec       q    Type
REMARK                         _______ _______ _______ _____ _____    ______ ____
ROOT
ATOM      1  C   UNL     1      46.452   8.885  12.906  0.00  0.00    +0.000 C 
ATOM      2  N   UNL     1      46.427   7.611  12.188  0.00  0.00    +0.000 N 
ATOM      3  C   UNL     1      45.234   7.352  11.480  0.00  0.00    +0.000 C 
ATOM      4  O   UNL     1      44.316   8.174  11.447  0.00  0.00    +0.000 OA
ENDROOT
BRANCH   3   5
ATOM      5  C   UNL     1      45.054   6.062  10.796  0.00  0.00    +0.000 A 
ATOM      6  C   UNL     1      45.630   5.717   9.583  0.00  0.00    +0.000 A 
ATOM      7  S   UNL     1      45.275   4.128   9.077  0.00  0.00    +0.000 S 
ATOM      8  C   UNL     1      44.484   3.789  10.544  0.00  0.00    +0.000 A 
ATOM      9  N   UNL     1      44.029   2.535  10.811  0.00  0.00    +0.000 NA
ATOM     10  C   UNL     1      43.524   2.404  11.994  0.00  0.00    +0.000 A 
ATOM     11  N   UNL     1      43.395   3.418  12.911  0.00  0.00    +0.000 N 
ATOM     12  C   UNL     1      43.718   4.729  12.629  0.00  0.00    +0.000 A 
ATOM     13  O   UNL     1      43.378   5.638  13.378  0.00  0.00    +0.000 OA
ATOM     14  C   UNL     1      44.401   4.903  11.356  0.00  0.00    +0.000 A 
ATOM     15  H   UNL     1      42.932   3.262  13.794  0.00  0.00    +0.000 HD
ENDBRANCH   3   5
BRANCH   2  16
ATOM     16  C   UNL     1      47.496   6.622  12.385  0.00  0.00    +0.000 C 
BRANCH  16  17
ATOM     17  C   UNL     1      47.570   5.955  13.731  0.00  0.00    +0.000 A 
ATOM     18  C   UNL     1      48.347   6.522  14.751  0.00  0.00    +0.000 A 
ATOM     19  C   UNL     1      48.539   5.845  15.954  0.00  0.00    +0.000 A 
ATOM     20  C   UNL     1      47.942   4.597  16.173  0.00  0.00    +0.000 A 
ATOM     21  C   UNL     1      47.122   4.060  15.168  0.00  0.00    +0.000 A 
ATOM     22  C   UNL     1      46.935   4.732  13.959  0.00  0.00    +0.000 A 
BRANCH  20  23
ATOM     23  C   UNL     1      48.240   3.761  17.397  0.00  0.00    +0.000 C 
BRANCH  23  24
ATOM     24  C   UNL     1      48.971   2.442  17.123  0.00  0.00    +0.000 C 
BRANCH  24  25
ATOM     25  C   UNL     1      50.440   2.534  17.427  0.00  0.00    +0.000 A 
ATOM     26  C   UNL     1      51.034   3.755  17.755  0.00  0.00    +0.000 A 
ATOM     27  C   UNL     1      52.398   3.804  18.022  0.00  0.00    +0.000 A 
ATOM     28  C   UNL     1      53.122   2.624  17.962  0.00  0.00    +0.000 A 
ATOM     29  N   UNL     1      52.579   1.423  17.666  0.00  0.00    +0.000 NA
ATOM     30  C   UNL     1      51.254   1.406  17.408  0.00  0.00    +0.000 A 
ENDBRANCH  24  25
ENDBRANCH  23  24
ENDBRANCH  20  23
ENDBRANCH  16  17
ENDBRANCH   2  16
TORSDOF 6
ENDMDL
MODEL 4
REMARK VINA RESULT:    -7.349      3.728      8.523
REMARK INTER + INTRA:         -11.193
REMARK INTER:                  -9.781
REMARK INTRA:                  -1.412
REMARK UNBOUND:                -1.266
REMARK  Name = 
REMARK  7 active torsions:
REMARK  status: ('A' for Active; 'I' for Inactive)
REMARK    1  A    between atoms: C_1  and  N_2
REMARK    2  A    between atoms: N_2  and  C_3
REMARK    3  A    between atoms: C_3  and  C_4
REMARK    4  A    between atoms: C_7  and  C_8
REMARK    5  A    between atoms: C_8  and  C_9
REMARK    6  A    between atoms: C_9  and  C_10
REMARK    7  A    between atoms: C_18  and  C_20
REMARK                            x       y       z     vdW  Elec       q    Type
REMARK                         _______ _______ _______ _____ _____    ______ ____
ROOT
ATOM      1  C   UNL     1      49.902   7.687  13.025  0.00  0.00    +0.000 C 
ATOM      2  N   UNL     1      49.015   7.422  14.157  0.00  0.00    +0.000 N 
ATOM      3  C   UNL     1      49.654   6.900  15.302  0.00  0.00    +0.000 C 
ATOM      4  O   UNL     1      50.874   6.733  15.336  0.00  0.00    +0.000 OA
ENDROOT
BRANCH   3   5
ATOM      5  C   UNL     1      48.852   6.507  16.472  0.00  0.00    +0.000 A 
ATOM      6  C   UNL     1      48.480   5.207  16.780  0.00  0.00    +0.000 A 
ATOM      7  S   UNL     1      47.599   5.068  18.234  0.00  0.00    +0.000 S 
ATOM      8  C   UNL     1      47.834   6.715  18.587  0.00  0.00    +0.000 A 
ATOM      9  N   UNL     1      47.415   7.235  19.772  0.00  0.00    +0.000 NA
ATOM     10  C   UNL     1      47.733   8.477  19.939  0.00  0.00    +0.000 A 
ATOM     11  N   UNL     1      48.390   9.251  19.014  0.00  0.00    +0.000 N 
ATOM     12  C   UNL     1      48.710   8.801  17.750  0.00  0.00    +0.000 A 
ATOM     13  O   UNL     1      49.081   9.579  16.879  0.00  0.00    +0.000 OA
ATOM     14  C   UNL     1      48.480   7.377  17.561  0.00  0.00    +0.000 A 
ATOM     15  H   UNL     1      48.550  10.234  19.182  0.00  0.00    +0.000 HD
ENDBRANCH   3   5
BRANCH   2  16
ATOM     16  C   UNL     1      47.557   7.513  14.000  0.00  0.00    +0.000 C 
BRANCH  16  17
ATOM     17  C   UNL     1      46.895   6.464  13.149  0.00  0.00    +0.000 A 
ATOM     18  C   UNL     1      46.536   6.760  11.826  0.00  0.00    +0.000 A 
ATOM     19  C   UNL     1      45.798   5.851  11.072  0.00  0.00    +0.000 A 
ATOM     20  C   UNL     1      45.420   4.616  11.615  0.00  0.00    +0.000 A 
ATOM     21  C   UNL     1      45.828   4.304  12.922  0.00  0.00    +0.000 A 
ATOM     22  C   UNL     1      46.560   5.217  13.682  0.00  0.00    +0.000 A 
BRANCH  20  23
ATOM     23  C   UNL     1      44.496   3.663  10.891  0.00  0.00    +0.000 C 
BRANCH  23  24
ATOM     24  C   UNL     1      44.366   3.898   9.383  0.00  0.00    +0.000 C 
BRANCH  24  25
ATOM     25  C   UNL     1      45.371   3.103   8.597  0.00  0.00    +0.000 A 
ATOM     26  C   UNL     1      46.217   3.720   7.674  0.00  0.00    +0.000 A 
ATOM     27  C   UNL     1      47.130   2.952   6.958  0.00  0.00    +0.000 A 
ATOM     28  C   UNL     1      47.172   1.588   7.201  0.00  0.00    +0.000 A 
ATOM     29  N   UNL     1      46.383   0.959   8.099  0.00  0.00    +0.000 NA
ATOM     30  C   UNL     1      45.504   1.730   8.776  0.00  0.00    +0.000 A 
ENDBRANCH  24  25
ENDBRANCH  23  24
ENDBRANCH  20  23
ENDBRANCH  16  17
ENDBRANCH   2  16
TORSDOF 6
ENDMDL
MODEL 5
REMARK VINA RESULT:    -7.275      3.213      8.342
REMARK INTER + INTRA:         -11.093
REMARK INTER:                  -9.913
REMARK INTRA:                  -1.180
REMARK UNBOUND:                -1.266
REMARK  Name = 
REMARK  7 active torsions:
REMARK  status: ('A' for Active; 'I' for Inactive)
REMARK    1  A    between atoms: C_1  and  N_2
REMARK    2  A    between atoms: N_2  and  C_3
REMARK    3  A    between atoms: C_3  and  C_4
REMARK    4  A    between atoms: C_7  and  C_8
REMARK    5  A    between atoms: C_8  and  C_9
REMARK    6  A    between atoms: C_9  and  C_10
REMARK    7  A    between atoms: C_18  and  C_20
REMARK                            x       y       z     vdW  Elec       q    Type
REMARK                         _______ _______ _______ _____ _____    ______ ____
ROOT
ATOM      1  C   UNL     1      48.021   9.007  13.859  0.00  0.00    +0.000 C 
ATOM      2  N   UNL     1      48.305   7.694  14.436  0.00  0.00    +0.000 N 
ATOM      3  C   UNL     1      48.535   7.694  15.829  0.00  0.00    +0.000 C 
ATOM      4  O   UNL     1      48.451   8.729  16.492  0.00  0.00    +0.000 OA
ENDROOT
BRANCH   3   5
ATOM      5  C   UNL     1      48.923   6.448  16.507  0.00  0.00    +0.000 A 
ATOM      6  C   UNL     1      48.059   5.408  16.816  0.00  0.00    +0.000 A 
ATOM      7  S   UNL     1      48.822   4.074  17.554  0.00  0.00    +0.000 S 
ATOM      8  C   UNL     1      50.358   4.768  17.329  0.00  0.00    +0.000 A 
ATOM      9  N   UNL     1      51.484   4.075  17.649  0.00  0.00    +0.000 NA
ATOM     10  C   UNL     1      52.579   4.693  17.348  0.00  0.00    +0.000 A 
ATOM     11  N   UNL     1      52.649   5.950  16.800  0.00  0.00    +0.000 N 
ATOM     12  C   UNL     1      51.537   6.738  16.588  0.00  0.00    +0.000 A 
ATOM     13  O   UNL     1      51.649   7.928  16.319  0.00  0.00    +0.000 OA
ATOM     14  C   UNL     1      50.277   6.041  16.798  0.00  0.00    +0.000 A 
ATOM     15  H   UNL     1      53.539   6.400  16.649  0.00  0.00    +0.000 HD
ENDBRANCH   3   5
BRANCH   2  16
ATOM     16  C   UNL     1      48.527   6.529  13.568  0.00  0.00    +0.000 C 
BRANCH  16  17
ATOM     17  C   UNL     1      47.325   5.963  12.864  0.00  0.00    +0.000 A 
ATOM     18  C   UNL     1      46.692   4.819  13.371  0.00  0.00    +0.000 A 
ATOM     19  C   UNL     1      45.667   4.201  12.656  0.00  0.00    +0.000 A 
ATOM     20  C   UNL     1      45.237   4.724  11.430  0.00  0.00    +0.000 A 
ATOM     21  C   UNL     1      45.839   5.901  10.954  0.00  0.00    +0.000 A 
ATOM     22  C   UNL     1      46.872   6.517  11.664  0.00  0.00    +0.000 A 
BRANCH  20  23
ATOM     23  C   UNL     1      44.237   4.009  10.551  0.00  0.00    +0.000 C 
BRANCH  23  24
ATOM     24  C   UNL     1      44.403   4.247   9.046  0.00  0.00    +0.000 C 
BRANCH  24  25
ATOM     25  C   UNL     1      45.377   3.287   8.424  0.00  0.00    +0.000 A 
ATOM     26  C   UNL     1      46.307   3.715   7.475  0.00  0.00    +0.000 A 
ATOM     27  C   UNL     1      47.189   2.796   6.915  0.00  0.00    +0.000 A 
ATOM     28  C   UNL     1      47.116   1.477   7.333  0.00  0.00    +0.000 A 
ATOM     29  N   UNL     1      46.243   1.030   8.262  0.00  0.00    +0.000 NA
ATOM     30  C   UNL     1      45.398   1.943   8.786  0.00  0.00    +0.000 A 
ENDBRANCH  24  25
ENDBRANCH  23  24
ENDBRANCH  20  23
ENDBRANCH  16  17
ENDBRANCH   2  16
TORSDOF 6
ENDMDL
MODEL 6
REMARK VINA RESULT:    -7.132      2.364      3.514
REMARK INTER + INTRA:         -10.900
REMARK INTER:                  -9.512
REMARK INTRA:                  -1.388
REMARK UNBOUND:                -1.266
REMARK  Name = 
REMARK  7 active torsions:
REMARK  status: ('A' for Active; 'I' for Inactive)
REMARK    1  A    between atoms: C_1  and  N_2
REMARK    2  A    between atoms: N_2  and  C_3
REMARK    3  A    between atoms: C_3  and  C_4
REMARK    4  A    between atoms: C_7  and  C_8
REMARK    5  A    between atoms: C_8  and  C_9
REMARK    6  A    between atoms: C_9  and  C_10
REMARK    7  A    between atoms: C_18  and  C_20
REMARK                            x       y       z     vdW  Elec       q    Type
REMARK                         _______ _______ _______ _____ _____    ______ ____
ROOT
ATOM      1  C   UNL     1      46.562   8.764  13.071  0.00  0.00    +0.000 C 
ATOM      2  N   UNL     1      46.495   7.510  12.323  0.00  0.00    +0.000 N 
ATOM      3  C   UNL     1      45.324   7.339  11.554  0.00  0.00    +0.000 C 
ATOM      4  O   UNL     1      44.460   8.216  11.498  0.00  0.00    +0.000 OA
ENDROOT
BRANCH   3   5
ATOM      5  C   UNL     1      45.099   6.077  10.833  0.00  0.00    +0.000 A 
ATOM      6  C   UNL     1      45.677   5.742   9.617  0.00  0.00    +0.000 A 
ATOM      7  S   UNL     1      45.263   4.183   9.063  0.00  0.00    +0.000 S 
ATOM      8  C   UNL     1      44.438   3.838  10.510  0.00  0.00    +0.000 A 
ATOM      9  N   UNL     1      43.928   2.597  10.735  0.00  0.00    +0.000 NA
ATOM     10  C   UNL     1      43.402   2.455  11.908  0.00  0.00    +0.000 A 
ATOM     11  N   UNL     1      43.303   3.448  12.851  0.00  0.00    +0.000 N 
ATOM     12  C   UNL     1      43.684   4.752  12.611  0.00  0.00    +0.000 A 
ATOM     13  O   UNL     1      43.372   5.653  13.380  0.00  0.00    +0.000 OA
ATOM     14  C   UNL     1      44.391   4.931  11.351  0.00  0.00    +0.000 A 
ATOM     15  H   UNL     1      42.822   3.287  13.724  0.00  0.00    +0.000 HD
ENDBRANCH   3   5
BRANCH   2  16
ATOM     16  C   UNL     1      47.492   6.454  12.546  0.00  0.00    +0.000 C 
BRANCH  16  17
ATOM     17  C   UNL     1      47.577   5.876  13.933  0.00  0.00    +0.000 A 
ATOM     18  C   UNL     1      48.426   6.461  14.882  0.00  0.00    +0.000 A 
ATOM     19  C   UNL     1      48.624   5.857  16.123  0.00  0.00    +0.000 A 
ATOM     20  C   UNL     1      47.960   4.667  16.450  0.00  0.00    +0.000 A 
ATOM     21  C   UNL     1      47.070   4.116  15.514  0.00  0.00    +0.000 A 
ATOM     22  C   UNL     1      46.878   4.714  14.268  0.00  0.00    +0.000 A 
BRANCH  20  23
ATOM     23  C   UNL     1      48.255   3.899  17.719  0.00  0.00    +0.000 C 
BRANCH  23  24
ATOM     24  C   UNL     1      49.278   4.551  18.654  0.00  0.00    +0.000 C 
BRANCH  24  25
ATOM     25  C   UNL     1      48.634   5.136  19.880  0.00  0.00    +0.000 A 
ATOM     26  C   UNL     1      47.919   6.333  19.818  0.00  0.00    +0.000 A 
ATOM     27  C   UNL     1      47.342   6.848  20.974  0.00  0.00    +0.000 A 
ATOM     28  C   UNL     1      47.494   6.140  22.155  0.00  0.00    +0.000 A 
ATOM     29  N   UNL     1      48.163   4.970  22.250  0.00  0.00    +0.000 NA
ATOM     30  C   UNL     1      48.714   4.496  21.112  0.00  0.00    +0.000 A 
ENDBRANCH  24  25
ENDBRANCH  23  24
ENDBRANCH  20  23
ENDBRANCH  16  17
ENDBRANCH   2  16
TORSDOF 6
ENDMDL
MODEL 7
REMARK VINA RESULT:    -6.945      3.124      8.177
REMARK INTER + INTRA:         -10.647
REMARK INTER:                  -9.384
REMARK INTRA:                  -1.263
REMARK UNBOUND:                -1.266
REMARK  Name = 
REMARK  7 active torsions:
REMARK  status: ('A' for Active; 'I' for Inactive)
REMARK    1  A    between atoms: C_1  and  N_2
REMARK    2  A    between atoms: N_2  and  C_3
REMARK    3  A    between atoms: C_3  and  C_4
REMARK    4  A    between atoms: C_7  and  C_8
REMARK    5  A    between atoms: C_8  and  C_9
REMARK    6  A    between atoms: C_9  and  C_10
REMARK    7  A    between atoms: C_18  and  C_20
REMARK                            x       y       z     vdW  Elec       q    Type
REMARK                         _______ _______ _______ _____ _____    ______ ____
ROOT
ATOM      1  C   UNL     1      48.846   8.908  16.558  0.00  0.00    +0.000 C 
ATOM      2  N   UNL     1      48.758   7.457  16.408  0.00  0.00    +0.000 N 
ATOM      3  C   UNL     1      48.434   6.757  17.590  0.00  0.00    +0.000 C 
ATOM      4  O   UNL     1      48.203   7.351  18.645  0.00  0.00    +0.000 OA
ENDROOT
BRANCH   3   5
ATOM      5  C   UNL     1      48.409   5.286  17.586  0.00  0.00    +0.000 A 
ATOM      6  C   UNL     1      47.278   4.510  17.379  0.00  0.00    +0.000 A 
ATOM      7  S   UNL     1      47.582   2.833  17.378  0.00  0.00    +0.000 S 
ATOM      8  C   UNL     1      49.260   3.090  17.481  0.00  0.00    +0.000 A 
ATOM      9  N   UNL     1      50.126   2.044  17.411  0.00  0.00    +0.000 NA
ATOM     10  C   UNL     1      51.371   2.396  17.419  0.00  0.00    +0.000 A 
ATOM     11  N   UNL     1      51.822   3.687  17.534  0.00  0.00    +0.000 N 
ATOM     12  C   UNL     1      50.981   4.760  17.745  0.00  0.00    +0.000 A 
ATOM     13  O   UNL     1      51.424   5.854  18.073  0.00  0.00    +0.000 OA
ATOM     14  C   UNL     1      49.569   4.429  17.622  0.00  0.00    +0.000 A 
ATOM     15  H   UNL     1      52.810   3.886  17.600  0.00  0.00    +0.000 HD
ENDBRANCH   3   5
BRANCH   2  16
ATOM     16  C   UNL     1      49.181   6.808  15.159  0.00  0.00    +0.000 C 
BRANCH  16  17
ATOM     17  C   UNL     1      48.136   6.634  14.092  0.00  0.00    +0.000 A 
ATOM     18  C   UNL     1      47.881   7.673  13.186  0.00  0.00    +0.000 A 
ATOM     19  C   UNL     1      46.823   7.582  12.283  0.00  0.00    +0.000 A 
ATOM     20  C   UNL     1      46.009   6.442  12.251  0.00  0.00    +0.000 A 
ATOM     21  C   UNL     1      46.303   5.383  13.125  0.00  0.00    +0.000 A 
ATOM     22  C   UNL     1      47.357   5.475  14.036  0.00  0.00    +0.000 A 
BRANCH  20  23
ATOM     23  C   UNL     1      44.764   6.360  11.397  0.00  0.00    +0.000 C 
BRANCH  23  24
ATOM     24  C   UNL     1      44.151   4.962  11.271  0.00  0.00    +0.000 C 
BRANCH  24  25
ATOM     25  C   UNL     1      44.708   4.202  10.100  0.00  0.00    +0.000 A 
ATOM     26  C   UNL     1      44.480   2.833   9.953  0.00  0.00    +0.000 A 
ATOM     27  C   UNL     1      45.018   2.160   8.860  0.00  0.00    +0.000 A 
ATOM     28  C   UNL     1      45.761   2.887   7.943  0.00  0.00    +0.000 A 
ATOM     29  N   UNL     1      45.987   4.215   8.043  0.00  0.00    +0.000 NA
ATOM     30  C   UNL     1      45.455   4.840   9.114  0.00  0.00    +0.000 A 
ENDBRANCH  24  25
ENDBRANCH  23  24
ENDBRANCH  20  23
ENDBRANCH  16  17
ENDBRANCH   2  16
TORSDOF 6
ENDMDL
MODEL 8
REMARK VINA RESULT:    -6.906      2.319      3.348
REMARK INTER + INTRA:         -10.595
REMARK INTER:                  -9.387
REMARK INTRA:                  -1.208
REMARK UNBOUND:                -1.266
REMARK  Name = 
REMARK  7 active torsions:
REMARK  status: ('A' for Active; 'I' for Inactive)
REMARK    1  A    between atoms: C_1  and  N_2
REMARK    2  A    between atoms: N_2  and  C_3
REMARK    3  A    between atoms: C_3  and  C_4
REMARK    4  A    between atoms: C_7  and  C_8
REMARK    5  A    between atoms: C_8  and  C_9
REMARK    6  A    between atoms: C_9  and  C_10
REMARK    7  A    between atoms: C_18  and  C_20
REMARK                            x       y       z     vdW  Elec       q    Type
REMARK                         _______ _______ _______ _____ _____    ______ ____
ROOT
ATOM      1  C   UNL     1      46.317   8.551  12.086  0.00  0.00    +0.000 C 
ATOM      2  N   UNL     1      46.158   7.107  11.923  0.00  0.00    +0.000 N 
ATOM      3  C   UNL     1      44.848   6.685  11.612  0.00  0.00    +0.000 C 
ATOM      4  O   UNL     1      43.934   7.496  11.450  0.00  0.00    +0.000 OA
ENDROOT
BRANCH   3   5
ATOM      5  C   UNL     1      44.544   5.249  11.517  0.00  0.00    +0.000 A 
ATOM      6  C   UNL     1      43.799   4.530  12.439  0.00  0.00    +0.000 A 
ATOM      7  S   UNL     1      43.576   2.892  12.019  0.00  0.00    +0.000 S 
ATOM      8  C   UNL     1      44.318   3.130  10.508  0.00  0.00    +0.000 A 
ATOM      9  N   UNL     1      44.356   2.127   9.590  0.00  0.00    +0.000 NA
ATOM     10  C   UNL     1      44.876   2.475   8.459  0.00  0.00    +0.000 A 
ATOM     11  N   UNL     1      45.397   3.714   8.180  0.00  0.00    +0.000 N 
ATOM     12  C   UNL     1      45.501   4.714   9.126  0.00  0.00    +0.000 A 
ATOM     13  O   UNL     1      46.175   5.715   8.913  0.00  0.00    +0.000 OA
ATOM     14  C   UNL     1      44.821   4.410  10.375  0.00  0.00    +0.000 A 
ATOM     15  H   UNL     1      45.847   3.900   7.296  0.00  0.00    +0.000 HD
ENDBRANCH   3   5
BRANCH   2  16
ATOM     16  C   UNL     1      47.255   6.192  12.267  0.00  0.00    +0.000 C 
BRANCH  16  17
ATOM     17  C   UNL     1      47.527   5.970  13.730  0.00  0.00    +0.000 A 
ATOM     18  C   UNL     1      48.420   6.811  14.410  0.00  0.00    +0.000 A 
ATOM     19  C   UNL     1      48.790   6.535  15.725  0.00  0.00    +0.000 A 
ATOM     20  C   UNL     1      48.260   5.426  16.396  0.00  0.00    +0.000 A 
ATOM     21  C   UNL     1      47.326   4.619  15.727  0.00  0.00    +0.000 A 
ATOM     22  C   UNL     1      46.960   4.888  14.407  0.00  0.00    +0.000 A 
BRANCH  20  23
ATOM     23  C   UNL     1      48.743   5.002  17.765  0.00  0.00    +0.000 C 
BRANCH  23  24
ATOM     24  C   UNL     1      47.650   4.874  18.832  0.00  0.00    +0.000 C 
BRANCH  24  25
ATOM     25  C   UNL     1      47.582   6.083  19.721  0.00  0.00    +0.000 A 
ATOM     26  C   UNL     1      47.569   5.957  21.112  0.00  0.00    +0.000 A 
ATOM     27  C   UNL     1      47.498   7.098  21.904  0.00  0.00    +0.000 A 
ATOM     28  C   UNL     1      47.451   8.332  21.275  0.00  0.00    +0.000 A 
ATOM     29  N   UNL     1      47.480   8.494  19.934  0.00  0.00    +0.000 NA
ATOM     30  C   UNL     1      47.546   7.369  19.191  0.00  0.00    +0.000 A 
ENDBRANCH  24  25
ENDBRANCH  23  24
ENDBRANCH  20  23
ENDBRANCH  16  17
ENDBRANCH   2  16
TORSDOF 6
ENDMDL
MODEL 9
REMARK VINA RESULT:    -6.633      3.502      8.124
REMARK INTER + INTRA:         -10.226
REMARK INTER:                  -8.550
REMARK INTRA:                  -1.675
REMARK UNBOUND:                -1.266
REMARK  Name = 
REMARK  7 active torsions:
REMARK  status: ('A' for Active; 'I' for Inactive)
REMARK    1  A    between atoms: C_1  and  N_2
REMARK    2  A    between atoms: N_2  and  C_3
REMARK    3  A    between atoms: C_3  and  C_4
REMARK    4  A    between atoms: C_7  and  C_8
REMARK    5  A    between atoms: C_8  and  C_9
REMARK    6  A    between atoms: C_9  and  C_10
REMARK    7  A    between atoms: C_18  and  C_20
REMARK                            x       y       z     vdW  Elec       q    Type
REMARK                         _______ _______ _______ _____ _____    ______ ____
ROOT
ATOM      1  C   UNL     1      47.714   9.033  18.380  0.00  0.00    +0.000 C 
ATOM      2  N   UNL     1      48.576   8.014  17.782  0.00  0.00    +0.000 N 
ATOM      3  C   UNL     1      48.892   6.932  18.632  0.00  0.00    +0.000 C 
ATOM      4  O   UNL     1      48.426   6.852  19.770  0.00  0.00    +0.000 OA
ENDROOT
BRANCH   3   5
ATOM      5  C   UNL     1      49.826   5.892  18.175  0.00  0.00    +0.000 A 
ATOM      6  C   UNL     1      51.203   5.933  18.336  0.00  0.00    +0.000 A 
ATOM      7  S   UNL     1      52.008   4.549  17.748  0.00  0.00    +0.000 S 
ATOM      8  C   UNL     1      50.531   3.774  17.416  0.00  0.00    +0.000 A 
ATOM      9  N   UNL     1      50.508   2.484  16.987  0.00  0.00    +0.000 NA
ATOM     10  C   UNL     1      49.316   1.999  16.854  0.00  0.00    +0.000 A 
ATOM     11  N   UNL     1      48.154   2.698  17.071  0.00  0.00    +0.000 N 
ATOM     12  C   UNL     1      48.134   4.044  17.374  0.00  0.00    +0.000 A 
ATOM     13  O   UNL     1      47.090   4.684  17.332  0.00  0.00    +0.000 OA
ATOM     14  C   UNL     1      49.450   4.601  17.651  0.00  0.00    +0.000 A 
ATOM     15  H   UNL     1      47.255   2.278  16.886  0.00  0.00    +0.000 HD
ENDBRANCH   3   5
BRANCH   2  16
ATOM     16  C   UNL     1      49.205   8.241  16.474  0.00  0.00    +0.000 C 
BRANCH  16  17
ATOM     17  C   UNL     1      48.406   7.862  15.257  0.00  0.00    +0.000 A 
ATOM     18  C   UNL     1      48.447   6.546  14.776  0.00  0.00    +0.000 A 
ATOM     19  C   UNL     1      47.828   6.212  13.573  0.00  0.00    +0.000 A 
ATOM     20  C   UNL     1      47.136   7.180  12.834  0.00  0.00    +0.000 A 
ATOM     21  C   UNL     1      47.054   8.485  13.348  0.00  0.00    +0.000 A 
ATOM     22  C   UNL     1      47.681   8.824  14.549  0.00  0.00    +0.000 A 
BRANCH  20  23
ATOM     23  C   UNL     1      46.579   6.902  11.457  0.00  0.00    +0.000 C 
BRANCH  23  24
ATOM     24  C   UNL     1      45.051   6.936  11.352  0.00  0.00    +0.000 C 
BRANCH  24  25
ATOM     25  C   UNL     1      44.440   5.575  11.540  0.00  0.00    +0.000 A 
ATOM     26  C   UNL     1      44.092   5.109  12.810  0.00  0.00    +0.000 A 
ATOM     27  C   UNL     1      43.536   3.841  12.947  0.00  0.00    +0.000 A 
ATOM     28  C   UNL     1      43.337   3.084  11.803  0.00  0.00    +0.000 A 
ATOM     29  N   UNL     1      43.643   3.509  10.558  0.00  0.00    +0.000 NA
ATOM     30  C   UNL     1      44.184   4.742  10.456  0.00  0.00    +0.000 A 
ENDBRANCH  24  25
ENDBRANCH  23  24
ENDBRANCH  20  23
ENDBRANCH  16  17
ENDBRANCH   2  16
TORSDOF 6
ENDMDL
