MODEL 1
REMARK VINA RESULT:    -8.912      0.000      0.000
REMARK INTER + INTRA:         -13.945
REMARK INTER:                 -12.820
REMARK INTRA:                  -1.125
REMARK UNBOUND:                -1.125
REMARK  Name = 
REMARK  10 active torsions:
REMARK  status: ('A' for Active; 'I' for Inactive)
REMARK    1  A    between atoms: C_1  and  C_2
REMARK    2  A    between atoms: C_4  and  C_5
REMARK    3  A    between atoms: C_5  and  C_6
REMARK    4  A    between atoms: C_5  and  C_7
REMARK    5  A    between atoms: C_7  and  N_8
REMARK    6  A    between atoms: N_8  and  C_9
REMARK    7  A    between atoms: C_12  and  C_13
REMARK    8  A    between atoms: C_19  and  N_20
REMARK    9  A    between atoms: C_23  and  C_24
REMARK   10  A    between atoms: C_24  and  O_25
REMARK                            x       y       z     vdW  Elec       q    Type
REMARK                         _______ _______ _______ _____ _____    ______ ____
ROOT
ATOM      1  C   UNL     1      48.402   7.655  11.836  0.00  0.00    +0.000 C 
ATOM      2  C   UNL     1      47.652   6.599  12.591  0.00  0.00    +0.000 A 
ATOM      3  C   UNL     1      46.486   6.043  12.060  0.00  0.00    +0.000 A 
ATOM      4  C   UNL     1      45.767   5.059  12.748  0.00  0.00    +0.000 A 
ATOM      5  C   UNL     1      46.256   4.650  14.004  0.00  0.00    +0.000 A 
ATOM      6  C   UNL     1      47.399   5.215  14.593  0.00  0.00    +0.000 A 
ATOM      7  C   UNL     1      48.097   6.176  13.850  0.00  0.00    +0.000 A 
ENDROOT
BRANCH   6   8
ATOM      8  N   UNL     1      47.791   4.903  15.884  0.00  0.00    +0.000 N 
ATOM      9  C   UNL     1      48.766   5.733  16.587  0.00  0.00    +0.000 C 
ATOM     10  C   UNL     1      49.768   4.808  17.277  0.00  0.00    +0.000 C 
ATOM     11  C   UNL     1      49.080   3.790  18.202  0.00  0.00    +0.000 C 
ATOM     12  C   UNL     1      47.977   3.034  17.439  0.00  0.00    +0.000 C 
ATOM     13  C   UNL     1      47.017   3.967  16.695  0.00  0.00    +0.000 C 
BRANCH  11  14
ATOM     14  C   UNL     1      48.534   4.450  19.474  0.00  0.00    +0.000 C 
BRANCH  14  15
ATOM     15  O   UNL     1      48.456   3.503  20.533  0.00  0.00    +0.000 OA
ATOM     16  H   UNL     1      49.277   2.980  20.521  0.00  0.00    +0.000 HD
ENDBRANCH  14  15
ENDBRANCH  11  14
ENDBRANCH   6   8
BRANCH   4  17
ATOM     17  C   UNL     1      44.488   4.427  12.195  0.00  0.00    +0.000 C 
ATOM     18  C   UNL     1      43.339   4.574  13.212  0.00  0.00    +0.000 C 
BRANCH  17  19
ATOM     19  C   UNL     1      43.977   4.999  10.849  0.00  0.00    +0.000 C 
BRANCH  19  20
ATOM     20  N   UNL     1      43.608   3.952   9.890  0.00  0.00    +0.000 N 
ATOM     21  H   UNL     1      42.725   4.129   9.418  0.00  0.00    +0.000 HD
BRANCH  20  22
ATOM     22  C   UNL     1      44.599   3.444   9.043  0.00  0.00    +0.000 A 
ATOM     23  C   UNL     1      45.393   4.260   8.227  0.00  0.00    +0.000 A 
ATOM     24  C   UNL     1      46.407   3.728   7.426  0.00  0.00    +0.000 A 
ATOM     25  C   UNL     1      46.680   2.360   7.455  0.00  0.00    +0.000 A 
ATOM     26  C   UNL     1      45.933   1.533   8.298  0.00  0.00    +0.000 A 
ATOM     27  C   UNL     1      44.916   2.079   9.096  0.00  0.00    +0.000 A 
BRANCH  25  28
ATOM     28  C   UNL     1      47.759   1.854   6.567  0.00  0.00    +0.000 C 
ATOM     29  N   UNL     1      48.848   2.659   6.376  0.00  0.00    +0.000 N 
ATOM     30  O   UNL     1      47.669   0.780   5.990  0.00  0.00    +0.000 OA
ATOM     31  H   UNL     1      48.848   3.638   6.621  0.00  0.00    +0.000 HD
ATOM     32  H   UNL     1      49.505   2.349   5.671  0.00  0.00    +0.000 HD
ENDBRANCH  25  28
ENDBRANCH  20  22
ENDBRANCH  19  20
ENDBRANCH  17  19
ENDBRANCH   4  17
TORSDOF 8
ENDMDL
MODEL 2
REMARK VINA RESULT:    -7.595      2.708      4.529
REMARK INTER + INTRA:         -12.051
REMARK INTER:                 -10.871
REMARK INTRA:                  -1.180
REMARK UNBOUND:                -1.125
REMARK  Name = 
REMARK  10 active torsions:
REMARK  status: ('A' for Active; 'I' for Inactive)
REMARK    1  A    between atoms: C_1  and  C_2
REMARK    2  A    between atoms: C_4  and  C_5
REMARK    3  A    between atoms: C_5  and  C_6
REMARK    4  A    between atoms: C_5  and  C_7
REMARK    5  A    between atoms: C_7  and  N_8
REMARK    6  A    between atoms: N_8  and  C_9
REMARK    7  A    between atoms: C_12  and  C_13
REMARK    8  A    between atoms: C_19  and  N_20
REMARK    9  A    between atoms: C_23  and  C_24
REMARK   10  A    between atoms: C_24  and  O_25
REMARK                            x       y       z     vdW  Elec       q    Type
REMARK                         _______ _______ _______ _____ _____    ______ ____
ROOT
ATOM      1  C   UNL     1      47.598   3.617  15.549  0.00  0.00    +0.000 C 
ATOM      2  C   UNL     1      47.059   4.619  14.573  0.00  0.00    +0.000 A 
ATOM      3  C   UNL     1      45.832   4.403  13.942  0.00  0.00    +0.000 A 
ATOM      4  C   UNL     1      45.311   5.321  13.024  0.00  0.00    +0.000 A 
ATOM      5  C   UNL     1      46.072   6.475  12.750  0.00  0.00    +0.000 A 
ATOM      6  C   UNL     1      47.330   6.708  13.329  0.00  0.00    +0.000 A 
ATOM      7  C   UNL     1      47.792   5.771  14.261  0.00  0.00    +0.000 A 
ENDROOT
BRANCH   6   8
ATOM      8  N   UNL     1      48.127   7.775  12.948  0.00  0.00    +0.000 N 
ATOM      9  C   UNL     1      47.650   9.148  13.091  0.00  0.00    +0.000 C 
ATOM     10  C   UNL     1      47.996   9.906  11.809  0.00  0.00    +0.000 C 
ATOM     11  C   UNL     1      49.496   9.831  11.475  0.00  0.00    +0.000 C 
ATOM     12  C   UNL     1      49.968   8.366  11.463  0.00  0.00    +0.000 C 
ATOM     13  C   UNL     1      49.559   7.595  12.721  0.00  0.00    +0.000 C 
BRANCH  11  14
ATOM     14  C   UNL     1      50.339  10.687  12.428  0.00  0.00    +0.000 C 
BRANCH  14  15
ATOM     15  O   UNL     1      51.721  10.563  12.118  0.00  0.00    +0.000 OA
ATOM     16  H   UNL     1      51.865   9.666  11.768  0.00  0.00    +0.000 HD
ENDBRANCH  14  15
ENDBRANCH  11  14
ENDBRANCH   6   8
BRANCH   4  17
ATOM     17  C   UNL     1      43.969   5.118  12.318  0.00  0.00    +0.000 C 
ATOM     18  C   UNL     1      43.700   6.280  11.341  0.00  0.00    +0.000 C 
BRANCH  17  19
ATOM     19  C   UNL     1      43.821   3.804  11.509  0.00  0.00    +0.000 C 
BRANCH  19  20
ATOM     20  N   UNL     1      43.649   4.038  10.072  0.00  0.00    +0.000 N 
ATOM     21  H   UNL     1      43.388   4.994   9.846  0.00  0.00    +0.000 HD
BRANCH  20  22
ATOM     22  C   UNL     1      44.592   3.496   9.191  0.00  0.00    +0.000 A 
ATOM     23  C   UNL     1      45.347   4.279   8.308  0.00  0.00    +0.000 A 
ATOM     24  C   UNL     1      46.315   3.714   7.475  0.00  0.00    +0.000 A 
ATOM     25  C   UNL     1      46.581   2.346   7.534  0.00  0.00    +0.000 A 
ATOM     26  C   UNL     1      45.874   1.552   8.441  0.00  0.00    +0.000 A 
ATOM     27  C   UNL     1      44.903   2.131   9.272  0.00  0.00    +0.000 A 
BRANCH  25  28
ATOM     28  C   UNL     1      47.610   1.803   6.608  0.00  0.00    +0.000 C 
ATOM     29  N   UNL     1      48.729   2.560   6.395  0.00  0.00    +0.000 N 
ATOM     30  O   UNL     1      47.454   0.743   6.020  0.00  0.00    +0.000 OA
ATOM     31  H   UNL     1      48.782   3.535   6.653  0.00  0.00    +0.000 HD
ATOM     32  H   UNL     1      49.350   2.231   5.667  0.00  0.00    +0.000 HD
ENDBRANCH  25  28
ENDBRANCH  20  22
ENDBRANCH  19  20
ENDBRANCH  17  19
ENDBRANCH   4  17
TORSDOF 8
ENDMDL
MODEL 3
REMARK VINA RESULT:    -7.252      2.318      2.988
REMARK INTER + INTRA:         -11.557
REMARK INTER:                 -10.423
REMARK INTRA:                  -1.134
REMARK UNBOUND:                -1.125
REMARK  Name = 
REMARK  10 active torsions:
REMARK  status: ('A' for Active; 'I' for Inactive)
REMARK    1  A    between atoms: C_1  and  C_2
REMARK    2  A    between atoms: C_4  and  C_5
REMARK    3  A    between atoms: C_5  and  C_6
REMARK    4  A    between atoms: C_5  and  C_7
REMARK    5  A    between atoms: C_7  and  N_8
REMARK    6  A    between atoms: N_8  and  C_9
REMARK    7  A    between atoms: C_12  and  C_13
REMARK    8  A    between atoms: C_19  and  N_20
REMARK    9  A    between atoms: C_23  and  C_24
REMARK   10  A    between atoms: C_24  and  O_25
REMARK                            x       y       z     vdW  Elec       q    Type
REMARK                         _______ _______ _______ _____ _____    ______ ____
ROOT
ATOM      1  C   UNL     1      44.822  10.241  11.905  0.00  0.00    +0.000 C 
ATOM      2  C   UNL     1      45.510   8.975  12.320  0.00  0.00    +0.000 A 
ATOM      3  C   UNL     1      45.090   7.742  11.815  0.00  0.00    +0.000 A 
ATOM      4  C   UNL     1      45.713   6.548  12.191  0.00  0.00    +0.000 A 
ATOM      5  C   UNL     1      46.781   6.628  13.107  0.00  0.00    +0.000 A 
ATOM      6  C   UNL     1      47.205   7.842  13.672  0.00  0.00    +0.000 A 
ATOM      7  C   UNL     1      46.565   9.010  13.241  0.00  0.00    +0.000 A 
ENDROOT
BRANCH   6   8
ATOM      8  N   UNL     1      48.162   7.891  14.672  0.00  0.00    +0.000 N 
ATOM      9  C   UNL     1      48.906   6.693  15.050  0.00  0.00    +0.000 C 
ATOM     10  C   UNL     1      48.957   6.627  16.576  0.00  0.00    +0.000 C 
ATOM     11  C   UNL     1      49.544   7.908  17.195  0.00  0.00    +0.000 C 
ATOM     12  C   UNL     1      48.801   9.147  16.662  0.00  0.00    +0.000 C 
ATOM     13  C   UNL     1      48.695   9.170  15.135  0.00  0.00    +0.000 C 
BRANCH  11  14
ATOM     14  C   UNL     1      51.056   8.015  16.965  0.00  0.00    +0.000 C 
BRANCH  14  15
ATOM     15  O   UNL     1      51.737   6.958  17.629  0.00  0.00    +0.000 OA
ATOM     16  H   UNL     1      51.885   7.235  18.550  0.00  0.00    +0.000 HD
ENDBRANCH  14  15
ENDBRANCH  11  14
ENDBRANCH   6   8
BRANCH   4  17
ATOM     17  C   UNL     1      45.281   5.181  11.655  0.00  0.00    +0.000 C 
ATOM     18  C   UNL     1      45.537   4.090  12.712  0.00  0.00    +0.000 C 
BRANCH  17  19
ATOM     19  C   UNL     1      43.796   5.059  11.229  0.00  0.00    +0.000 C 
BRANCH  19  20
ATOM     20  N   UNL     1      43.634   4.864   9.785  0.00  0.00    +0.000 N 
ATOM     21  H   UNL     1      43.490   5.730   9.273  0.00  0.00    +0.000 HD
BRANCH  20  22
ATOM     22  C   UNL     1      44.489   3.968   9.133  0.00  0.00    +0.000 A 
ATOM     23  C   UNL     1      45.513   4.383   8.273  0.00  0.00    +0.000 A 
ATOM     24  C   UNL     1      46.381   3.467   7.674  0.00  0.00    +0.000 A 
ATOM     25  C   UNL     1      46.269   2.106   7.955  0.00  0.00    +0.000 A 
ATOM     26  C   UNL     1      45.285   1.672   8.848  0.00  0.00    +0.000 A 
ATOM     27  C   UNL     1      44.418   2.602   9.442  0.00  0.00    +0.000 A 
BRANCH  25  28
ATOM     28  C   UNL     1      47.211   1.180   7.272  0.00  0.00    +0.000 C 
ATOM     29  N   UNL     1      46.944  -0.159   7.345  0.00  0.00    +0.000 N 
ATOM     30  O   UNL     1      48.212   1.586   6.700  0.00  0.00    +0.000 OA
ATOM     31  H   UNL     1      46.287  -0.545   8.007  0.00  0.00    +0.000 HD
ATOM     32  H   UNL     1      47.664  -0.771   6.984  0.00  0.00    +0.000 HD
ENDBRANCH  25  28
ENDBRANCH  20  22
ENDBRANCH  19  20
ENDBRANCH  17  19
ENDBRANCH   4  17
TORSDOF 8
ENDMDL
MODEL 4
REMARK VINA RESULT:    -6.999      3.320      8.204
REMARK INTER + INTRA:         -11.194
REMARK INTER:                 -10.136
REMARK INTRA:                  -1.057
REMARK UNBOUND:                -1.125
REMARK  Name = 
REMARK  10 active torsions:
REMARK  status: ('A' for Active; 'I' for Inactive)
REMARK    1  A    between atoms: C_1  and  C_2
REMARK    2  A    between atoms: C_4  and  C_5
REMARK    3  A    between atoms: C_5  and  C_6
REMARK    4  A    between atoms: C_5  and  C_7
REMARK    5  A    between atoms: C_7  and  N_8
REMARK    6  A    between atoms: N_8  and  C_9
REMARK    7  A    between atoms: C_12  and  C_13
REMARK    8  A    between atoms: C_19  and  N_20
REMARK    9  A    between atoms: C_23  and  C_24
REMARK   10  A    between atoms: C_24  and  O_25
REMARK                            x       y       z     vdW  Elec       q    Type
REMARK                         _______ _______ _______ _____ _____    ______ ____
ROOT
ATOM      1  C   UNL     1      47.004  10.393  11.939  0.00  0.00    +0.000 C 
ATOM      2  C   UNL     1      47.097   9.034  12.567  0.00  0.00    +0.000 A 
ATOM      3  C   UNL     1      48.120   8.741  13.471  0.00  0.00    +0.000 A 
ATOM      4  C   UNL     1      48.230   7.479  14.066  0.00  0.00    +0.000 A 
ATOM      5  C   UNL     1      47.274   6.506  13.714  0.00  0.00    +0.000 A 
ATOM      6  C   UNL     1      46.257   6.746  12.775  0.00  0.00    +0.000 A 
ATOM      7  C   UNL     1      46.176   8.034  12.232  0.00  0.00    +0.000 A 
ENDROOT
BRANCH   6   8
ATOM      8  N   UNL     1      45.410   5.742  12.337  0.00  0.00    +0.000 N 
ATOM      9  C   UNL     1      45.218   5.501  10.910  0.00  0.00    +0.000 C 
ATOM     10  C   UNL     1      43.723   5.307  10.658  0.00  0.00    +0.000 C 
ATOM     11  C   UNL     1      43.124   4.192  11.532  0.00  0.00    +0.000 C 
ATOM     12  C   UNL     1      43.467   4.434  13.014  0.00  0.00    +0.000 C 
ATOM     13  C   UNL     1      44.958   4.694  13.248  0.00  0.00    +0.000 C 
BRANCH  11  14
ATOM     14  C   UNL     1      43.570   2.800  11.071  0.00  0.00    +0.000 C 
BRANCH  14  15
ATOM     15  O   UNL     1      42.877   1.790  11.794  0.00  0.00    +0.000 OA
ATOM     16  H   UNL     1      43.007   0.948  11.322  0.00  0.00    +0.000 HD
ENDBRANCH  14  15
ENDBRANCH  11  14
ENDBRANCH   6   8
BRANCH   4  17
ATOM     17  C   UNL     1      49.335   7.125  15.063  0.00  0.00    +0.000 C 
ATOM     18  C   UNL     1      50.495   8.133  14.952  0.00  0.00    +0.000 C 
BRANCH  17  19
ATOM     19  C   UNL     1      48.914   7.081  16.553  0.00  0.00    +0.000 C 
BRANCH  19  20
ATOM     20  N   UNL     1      48.417   5.763  16.965  0.00  0.00    +0.000 N 
ATOM     21  H   UNL     1      47.560   5.489  16.491  0.00  0.00    +0.000 HD
BRANCH  20  22
ATOM     22  C   UNL     1      49.336   4.718  17.103  0.00  0.00    +0.000 A 
ATOM     23  C   UNL     1      50.679   4.924  17.440  0.00  0.00    +0.000 A 
ATOM     24  C   UNL     1      51.562   3.856  17.616  0.00  0.00    +0.000 A 
ATOM     25  C   UNL     1      51.108   2.542  17.498  0.00  0.00    +0.000 A 
ATOM     26  C   UNL     1      49.760   2.310  17.210  0.00  0.00    +0.000 A 
ATOM     27  C   UNL     1      48.883   3.391  17.033  0.00  0.00    +0.000 A 
BRANCH  25  28
ATOM     28  C   UNL     1      52.100   1.451  17.680  0.00  0.00    +0.000 C 
ATOM     29  N   UNL     1      51.632   0.237  18.103  0.00  0.00    +0.000 N 
ATOM     30  O   UNL     1      53.296   1.629  17.502  0.00  0.00    +0.000 OA
ATOM     31  H   UNL     1      50.711   0.120  18.499  0.00  0.00    +0.000 HD
ATOM     32  H   UNL     1      52.338  -0.447  18.341  0.00  0.00    +0.000 HD
ENDBRANCH  25  28
ENDBRANCH  20  22
ENDBRANCH  19  20
ENDBRANCH  17  19
ENDBRANCH   4  17
TORSDOF 8
ENDMDL
MODEL 5
REMARK VINA RESULT:    -6.912      3.203      8.034
REMARK INTER + INTRA:         -11.068
REMARK INTER:                  -9.811
REMARK INTRA:                  -1.258
REMARK UNBOUND:                -1.125
REMARK  Name = 
REMARK  10 active torsions:
REMARK  status: ('A' for Active; 'I' for Inactive)
REMARK    1  A    between atoms: C_1  and  C_2
REMARK    2  A    between atoms: C_4  and  C_5
REMARK    3  A    between atoms: C_5  and  C_6
REMARK    4  A    between atoms: C_5  and  C_7
REMARK    5  A    between atoms: C_7  and  N_8
REMARK    6  A    between atoms: N_8  and  C_9
REMARK    7  A    between atoms: C_12  and  C_13
REMARK    8  A    between atoms: C_19  and  N_20
REMARK    9  A    between atoms: C_23  and  C_24
REMARK   10  A    between atoms: C_24  and  O_25
REMARK                            x       y       z     vdW  Elec       q    Type
REMARK                         _______ _______ _______ _____ _____    ______ ____
ROOT
ATOM      1  C   UNL     1      44.711  11.253  11.385  0.00  0.00    +0.000 C 
ATOM      2  C   UNL     1      45.481  10.005  11.699  0.00  0.00    +0.000 A 
ATOM      3  C   UNL     1      46.858  10.060  11.921  0.00  0.00    +0.000 A 
ATOM      4  C   UNL     1      47.599   8.909  12.210  0.00  0.00    +0.000 A 
ATOM      5  C   UNL     1      46.906   7.683  12.263  0.00  0.00    +0.000 A 
ATOM      6  C   UNL     1      45.530   7.578  12.002  0.00  0.00    +0.000 A 
ATOM      7  C   UNL     1      44.832   8.764  11.745  0.00  0.00    +0.000 A 
ENDROOT
BRANCH   6   8
ATOM      8  N   UNL     1      44.890   6.353  11.922  0.00  0.00    +0.000 N 
ATOM      9  C   UNL     1      45.432   5.282  11.089  0.00  0.00    +0.000 C 
ATOM     10  C   UNL     1      44.276   4.654  10.311  0.00  0.00    +0.000 C 
ATOM     11  C   UNL     1      43.146   4.170  11.235  0.00  0.00    +0.000 C 
ATOM     12  C   UNL     1      42.702   5.306  12.176  0.00  0.00    +0.000 C 
ATOM     13  C   UNL     1      43.873   5.975  12.901  0.00  0.00    +0.000 C 
BRANCH  11  14
ATOM     14  C   UNL     1      43.544   2.914  12.018  0.00  0.00    +0.000 C 
BRANCH  14  15
ATOM     15  O   UNL     1      42.812   1.786  11.555  0.00  0.00    +0.000 OA
ATOM     16  H   UNL     1      43.017   1.669  10.610  0.00  0.00    +0.000 HD
ENDBRANCH  14  15
ENDBRANCH  11  14
ENDBRANCH   6   8
BRANCH   4  17
ATOM     17  C   UNL     1      49.108   8.934  12.462  0.00  0.00    +0.000 C 
ATOM     18  C   UNL     1      49.506  10.237  13.182  0.00  0.00    +0.000 C 
BRANCH  17  19
ATOM     19  C   UNL     1      49.674   7.762  13.303  0.00  0.00    +0.000 C 
BRANCH  19  20
ATOM     20  N   UNL     1      49.454   7.936  14.742  0.00  0.00    +0.000 N 
ATOM     21  H   UNL     1      48.962   8.795  14.975  0.00  0.00    +0.000 HD
BRANCH  20  22
ATOM     22  C   UNL     1      49.030   6.832  15.490  0.00  0.00    +0.000 A 
ATOM     23  C   UNL     1      49.342   6.665  16.845  0.00  0.00    +0.000 A 
ATOM     24  C   UNL     1      48.865   5.575  17.576  0.00  0.00    +0.000 A 
ATOM     25  C   UNL     1      48.024   4.639  16.975  0.00  0.00    +0.000 A 
ATOM     26  C   UNL     1      47.660   4.810  15.636  0.00  0.00    +0.000 A 
ATOM     27  C   UNL     1      48.147   5.908  14.911  0.00  0.00    +0.000 A 
BRANCH  25  28
ATOM     28  C   UNL     1      47.565   3.492  17.802  0.00  0.00    +0.000 C 
ATOM     29  N   UNL     1      48.332   3.145  18.879  0.00  0.00    +0.000 N 
ATOM     30  O   UNL     1      46.565   2.850  17.516  0.00  0.00    +0.000 OA
ATOM     31  H   UNL     1      49.278   3.476  19.000  0.00  0.00    +0.000 HD
ATOM     32  H   UNL     1      48.069   2.287  19.347  0.00  0.00    +0.000 HD
ENDBRANCH  25  28
ENDBRANCH  20  22
ENDBRANCH  19  20
ENDBRANCH  17  19
ENDBRANCH   4  17
TORSDOF 8
ENDMDL
MODEL 6
REMARK VINA RESULT:    -6.791      3.783      7.627
REMARK INTER + INTRA:         -10.894
REMARK INTER:                  -9.257
REMARK INTRA:                  -1.637
REMARK UNBOUND:                -1.125
REMARK  Name = 
REMARK  10 active torsions:
REMARK  status: ('A' for Active; 'I' for Inactive)
REMARK    1  A    between atoms: C_1  and  C_2
REMARK    2  A    between atoms: C_4  and  C_5
REMARK    3  A    between atoms: C_5  and  C_6
REMARK    4  A    between atoms: C_5  and  C_7
REMARK    5  A    between atoms: C_7  and  N_8
REMARK    6  A    between atoms: N_8  and  C_9
REMARK    7  A    between atoms: C_12  and  C_13
REMARK    8  A    between atoms: C_19  and  N_20
REMARK    9  A    between atoms: C_23  and  C_24
REMARK   10  A    between atoms: C_24  and  O_25
REMARK                            x       y       z     vdW  Elec       q    Type
REMARK                         _______ _______ _______ _____ _____    ______ ____
ROOT
ATOM      1  C   UNL     1      47.711   3.777  17.362  0.00  0.00    +0.000 C 
ATOM      2  C   UNL     1      47.698   4.588  16.100  0.00  0.00    +0.000 A 
ATOM      3  C   UNL     1      48.433   5.772  16.012  0.00  0.00    +0.000 A 
ATOM      4  C   UNL     1      48.432   6.547  14.848  0.00  0.00    +0.000 A 
ATOM      5  C   UNL     1      47.656   6.096  13.762  0.00  0.00    +0.000 A 
ATOM      6  C   UNL     1      46.867   4.935  13.825  0.00  0.00    +0.000 A 
ATOM      7  C   UNL     1      46.926   4.182  15.004  0.00  0.00    +0.000 A 
ENDROOT
BRANCH   6   8
ATOM      8  N   UNL     1      46.004   4.577  12.803  0.00  0.00    +0.000 N 
ATOM      9  C   UNL     1      45.726   5.501  11.707  0.00  0.00    +0.000 C 
ATOM     10  C   UNL     1      44.219   5.487  11.446  0.00  0.00    +0.000 C 
ATOM     11  C   UNL     1      43.688   4.069  11.175  0.00  0.00    +0.000 C 
ATOM     12  C   UNL     1      44.121   3.113  12.301  0.00  0.00    +0.000 C 
ATOM     13  C   UNL     1      45.620   3.182  12.602  0.00  0.00    +0.000 C 
BRANCH  11  14
ATOM     14  C   UNL     1      44.118   3.549   9.798  0.00  0.00    +0.000 C 
BRANCH  14  15
ATOM     15  O   UNL     1      43.835   4.513   8.791  0.00  0.00    +0.000 OA
ATOM     16  H   UNL     1      43.736   5.377   9.229  0.00  0.00    +0.000 HD
ENDBRANCH  14  15
ENDBRANCH  11  14
ENDBRANCH   6   8
BRANCH   4  17
ATOM     17  C   UNL     1      49.228   7.848  14.716  0.00  0.00    +0.000 C 
ATOM     18  C   UNL     1      50.141   7.790  13.475  0.00  0.00    +0.000 C 
BRANCH  17  19
ATOM     19  C   UNL     1      48.391   9.146  14.601  0.00  0.00    +0.000 C 
BRANCH  19  20
ATOM     20  N   UNL     1      48.320   9.657  13.228  0.00  0.00    +0.000 N 
ATOM     21  H   UNL     1      49.041   9.280  12.619  0.00  0.00    +0.000 HD
BRANCH  20  22
ATOM     22  C   UNL     1      47.065   9.748  12.615  0.00  0.00    +0.000 A 
ATOM     23  C   UNL     1      45.999   8.898  12.934  0.00  0.00    +0.000 A 
ATOM     24  C   UNL     1      44.744   9.044  12.338  0.00  0.00    +0.000 A 
ATOM     25  C   UNL     1      44.512  10.078  11.431  0.00  0.00    +0.000 A 
ATOM     26  C   UNL     1      45.548  10.968  11.133  0.00  0.00    +0.000 A 
ATOM     27  C   UNL     1      46.805  10.810  11.736  0.00  0.00    +0.000 A 
BRANCH  25  28
ATOM     28  C   UNL     1      43.161  10.168  10.819  0.00  0.00    +0.000 C 
ATOM     29  N   UNL     1      42.433   9.014  10.723  0.00  0.00    +0.000 N 
ATOM     30  O   UNL     1      42.723  11.219  10.375  0.00  0.00    +0.000 OA
ATOM     31  H   UNL     1      42.848   8.101  10.840  0.00  0.00    +0.000 HD
ATOM     32  H   UNL     1      41.576   9.078  10.190  0.00  0.00    +0.000 HD
ENDBRANCH  25  28
ENDBRANCH  20  22
ENDBRANCH  19  20
ENDBRANCH  17  19
ENDBRANCH   4  17
TORSDOF 8
ENDMDL
MODEL 7
REMARK VINA RESULT:    -6.694      1.731      8.798
REMARK INTER + INTRA:         -10.754
REMARK INTER:                  -9.416
REMARK INTRA:                  -1.338
REMARK UNBOUND:                -1.125
REMARK  Name = 
REMARK  10 active torsions:
REMARK  status: ('A' for Active; 'I' for Inactive)
REMARK    1  A    between atoms: C_1  and  C_2
REMARK    2  A    between atoms: C_4  and  C_5
REMARK    3  A    between atoms: C_5  and  C_6
REMARK    4  A    between atoms: C_5  and  C_7
REMARK    5  A    between atoms: C_7  and  N_8
REMARK    6  A    between atoms: N_8  and  C_9
REMARK    7  A    between atoms: C_12  and  C_13
REMARK    8  A    between atoms: C_19  and  N_20
REMARK    9  A    between atoms: C_23  and  C_24
REMARK   10  A    between atoms: C_24  and  O_25
REMARK                            x       y       z     vdW  Elec       q    Type
REMARK                         _______ _______ _______ _____ _____    ______ ____
ROOT
ATOM      1  C   UNL     1      43.257   2.662  12.281  0.00  0.00    +0.000 C 
ATOM      2  C   UNL     1      44.143   3.465  11.377  0.00  0.00    +0.000 A 
ATOM      3  C   UNL     1      44.352   4.825  11.616  0.00  0.00    +0.000 A 
ATOM      4  C   UNL     1      45.170   5.596  10.783  0.00  0.00    +0.000 A 
ATOM      5  C   UNL     1      45.775   4.953   9.685  0.00  0.00    +0.000 A 
ATOM      6  C   UNL     1      45.555   3.599   9.383  0.00  0.00    +0.000 A 
ATOM      7  C   UNL     1      44.750   2.867  10.265  0.00  0.00    +0.000 A 
ENDROOT
BRANCH   6   8
ATOM      8  N   UNL     1      46.043   3.016   8.227  0.00  0.00    +0.000 N 
ATOM      9  C   UNL     1      45.864   1.587   7.982  0.00  0.00    +0.000 C 
ATOM     10  C   UNL     1      47.189   1.024   7.466  0.00  0.00    +0.000 C 
ATOM     11  C   UNL     1      47.699   1.779   6.226  0.00  0.00    +0.000 C 
ATOM     12  C   UNL     1      47.747   3.292   6.504  0.00  0.00    +0.000 C 
ATOM     13  C   UNL     1      46.438   3.835   7.084  0.00  0.00    +0.000 C 
BRANCH  11  14
ATOM     14  C   UNL     1      46.867   1.461   4.979  0.00  0.00    +0.000 C 
BRANCH  14  15
ATOM     15  O   UNL     1      47.695   0.938   3.947  0.00  0.00    +0.000 OA
ATOM     16  H   UNL     1      48.321   1.638   3.689  0.00  0.00    +0.000 HD
ENDBRANCH  14  15
ENDBRANCH  11  14
ENDBRANCH   6   8
BRANCH   4  17
ATOM     17  C   UNL     1      45.423   7.087  11.018  0.00  0.00    +0.000 C 
ATOM     18  C   UNL     1      44.085   7.845  11.117  0.00  0.00    +0.000 C 
BRANCH  17  19
ATOM     19  C   UNL     1      46.241   7.444  12.284  0.00  0.00    +0.000 C 
BRANCH  19  20
ATOM     20  N   UNL     1      47.411   6.579  12.469  0.00  0.00    +0.000 N 
ATOM     21  H   UNL     1      48.268   6.972  12.089  0.00  0.00    +0.000 HD
BRANCH  20  22
ATOM     22  C   UNL     1      47.588   5.953  13.707  0.00  0.00    +0.000 A 
ATOM     23  C   UNL     1      48.340   6.517  14.745  0.00  0.00    +0.000 A 
ATOM     24  C   UNL     1      48.459   5.889  15.987  0.00  0.00    +0.000 A 
ATOM     25  C   UNL     1      47.790   4.691  16.236  0.00  0.00    +0.000 A 
ATOM     26  C   UNL     1      46.995   4.133  15.231  0.00  0.00    +0.000 A 
ATOM     27  C   UNL     1      46.884   4.772  13.987  0.00  0.00    +0.000 A 
BRANCH  25  28
ATOM     28  C   UNL     1      47.972   4.063  17.571  0.00  0.00    +0.000 C 
ATOM     29  N   UNL     1      47.248   2.935  17.842  0.00  0.00    +0.000 N 
ATOM     30  O   UNL     1      48.706   4.551  18.418  0.00  0.00    +0.000 OA
ATOM     31  H   UNL     1      46.458   2.650  17.281  0.00  0.00    +0.000 HD
ATOM     32  H   UNL     1      47.293   2.603  18.796  0.00  0.00    +0.000 HD
ENDBRANCH  25  28
ENDBRANCH  20  22
ENDBRANCH  19  20
ENDBRANCH  17  19
ENDBRANCH   4  17
TORSDOF 8
ENDMDL
MODEL 8
REMARK VINA RESULT:    -6.063      4.452      7.247
REMARK INTER + INTRA:          -9.847
REMARK INTER:                  -8.881
REMARK INTRA:                  -0.966
REMARK UNBOUND:                -1.125
REMARK  Name = 
REMARK  10 active torsions:
REMARK  status: ('A' for Active; 'I' for Inactive)
REMARK    1  A    between atoms: C_1  and  C_2
REMARK    2  A    between atoms: C_4  and  C_5
REMARK    3  A    between atoms: C_5  and  C_6
REMARK    4  A    between atoms: C_5  and  C_7
REMARK    5  A    between atoms: C_7  and  N_8
REMARK    6  A    between atoms: N_8  and  C_9
REMARK    7  A    between atoms: C_12  and  C_13
REMARK    8  A    between atoms: C_19  and  N_20
REMARK    9  A    between atoms: C_23  and  C_24
REMARK   10  A    between atoms: C_24  and  O_25
REMARK                            x       y       z     vdW  Elec       q    Type
REMARK                         _______ _______ _______ _____ _____    ______ ____
ROOT
ATOM      1  C   UNL     1      49.506   6.980  16.187  0.00  0.00    +0.000 C 
ATOM      2  C   UNL     1      49.173   6.996  14.725  0.00  0.00    +0.000 A 
ATOM      3  C   UNL     1      50.021   7.630  13.814  0.00  0.00    +0.000 A 
ATOM      4  C   UNL     1      49.729   7.662  12.446  0.00  0.00    +0.000 A 
ATOM      5  C   UNL     1      48.542   7.038  12.016  0.00  0.00    +0.000 A 
ATOM      6  C   UNL     1      47.640   6.429  12.905  0.00  0.00    +0.000 A 
ATOM      7  C   UNL     1      47.994   6.401  14.259  0.00  0.00    +0.000 A 
ENDROOT
BRANCH   6   8
ATOM      8  N   UNL     1      46.414   5.941  12.487  0.00  0.00    +0.000 N 
ATOM      9  C   UNL     1      45.604   5.109  13.373  0.00  0.00    +0.000 C 
ATOM     10  C   UNL     1      45.068   3.931  12.559  0.00  0.00    +0.000 C 
ATOM     11  C   UNL     1      44.298   4.389  11.309  0.00  0.00    +0.000 C 
ATOM     12  C   UNL     1      45.156   5.363  10.480  0.00  0.00    +0.000 C 
ATOM     13  C   UNL     1      45.744   6.502  11.317  0.00  0.00    +0.000 C 
BRANCH  11  14
ATOM     14  C   UNL     1      42.938   4.999  11.665  0.00  0.00    +0.000 C 
BRANCH  14  15
ATOM     15  O   UNL     1      42.607   6.043  10.757  0.00  0.00    +0.000 OA
ATOM     16  H   UNL     1      43.337   6.687  10.770  0.00  0.00    +0.000 HD
ENDBRANCH  14  15
ENDBRANCH  11  14
ENDBRANCH   6   8
BRANCH   4  17
ATOM     17  C   UNL     1      50.637   8.344  11.420  0.00  0.00    +0.000 C 
ATOM     18  C   UNL     1      50.222   9.817  11.238  0.00  0.00    +0.000 C 
BRANCH  17  19
ATOM     19  C   UNL     1      52.151   8.337  11.745  0.00  0.00    +0.000 C 
BRANCH  19  20
ATOM     20  N   UNL     1      52.984   8.655  10.579  0.00  0.00    +0.000 N 
ATOM     21  H   UNL     1      53.824   9.177  10.813  0.00  0.00    +0.000 HD
BRANCH  20  22
ATOM     22  C   UNL     1      53.198   7.657   9.622  0.00  0.00    +0.000 A 
ATOM     23  C   UNL     1      53.746   6.407   9.934  0.00  0.00    +0.000 A 
ATOM     24  C   UNL     1      53.904   5.415   8.964  0.00  0.00    +0.000 A 
ATOM     25  C   UNL     1      53.476   5.637   7.655  0.00  0.00    +0.000 A 
ATOM     26  C   UNL     1      52.882   6.859   7.331  0.00  0.00    +0.000 A 
ATOM     27  C   UNL     1      52.731   7.849   8.313  0.00  0.00    +0.000 A 
BRANCH  25  28
ATOM     28  C   UNL     1      53.689   4.548   6.666  0.00  0.00    +0.000 C 
ATOM     29  N   UNL     1      53.027   3.369   6.874  0.00  0.00    +0.000 N 
ATOM     30  O   UNL     1      54.456   4.674   5.723  0.00  0.00    +0.000 OA
ATOM     31  H   UNL     1      52.594   3.138   7.756  0.00  0.00    +0.000 HD
ATOM     32  H   UNL     1      53.286   2.606   6.262  0.00  0.00    +0.000 HD
ENDBRANCH  25  28
ENDBRANCH  20  22
ENDBRANCH  19  20
ENDBRANCH  17  19
ENDBRANCH   4  17
TORSDOF 8
ENDMDL
MODEL 9
REMARK VINA RESULT:    -5.946      3.086      5.734
REMARK INTER + INTRA:          -9.678
REMARK INTER:                  -8.633
REMARK INTRA:                  -1.045
REMARK UNBOUND:                -1.125
REMARK  Name = 
REMARK  10 active torsions:
REMARK  status: ('A' for Active; 'I' for Inactive)
REMARK    1  A    between atoms: C_1  and  C_2
REMARK    2  A    between atoms: C_4  and  C_5
REMARK    3  A    between atoms: C_5  and  C_6
REMARK    4  A    between atoms: C_5  and  C_7
REMARK    5  A    between atoms: C_7  and  N_8
REMARK    6  A    between atoms: N_8  and  C_9
REMARK    7  A    between atoms: C_12  and  C_13
REMARK    8  A    between atoms: C_19  and  N_20
REMARK    9  A    between atoms: C_23  and  C_24
REMARK   10  A    between atoms: C_24  and  O_25
REMARK                            x       y       z     vdW  Elec       q    Type
REMARK                         _______ _______ _______ _____ _____    ______ ____
ROOT
ATOM      1  C   UNL     1      46.965   2.885  17.504  0.00  0.00    +0.000 C 
ATOM      2  C   UNL     1      48.163   3.772  17.342  0.00  0.00    +0.000 A 
ATOM      3  C   UNL     1      48.087   4.929  16.564  0.00  0.00    +0.000 A 
ATOM      4  C   UNL     1      49.193   5.769  16.394  0.00  0.00    +0.000 A 
ATOM      5  C   UNL     1      50.396   5.403  17.032  0.00  0.00    +0.000 A 
ATOM      6  C   UNL     1      50.526   4.225  17.785  0.00  0.00    +0.000 A 
ATOM      7  C   UNL     1      49.381   3.435  17.946  0.00  0.00    +0.000 A 
ENDROOT
BRANCH   6   8
ATOM      8  N   UNL     1      51.746   3.808  18.291  0.00  0.00    +0.000 N 
ATOM      9  C   UNL     1      52.433   4.591  19.315  0.00  0.00    +0.000 C 
ATOM     10  C   UNL     1      53.910   4.679  18.932  0.00  0.00    +0.000 C 
ATOM     11  C   UNL     1      54.542   3.292  18.724  0.00  0.00    +0.000 C 
ATOM     12  C   UNL     1      53.703   2.468  17.730  0.00  0.00    +0.000 C 
ATOM     13  C   UNL     1      52.214   2.440  18.083  0.00  0.00    +0.000 C 
BRANCH  11  14
ATOM     14  C   UNL     1      54.740   2.547  20.048  0.00  0.00    +0.000 C 
BRANCH  14  15
ATOM     15  O   UNL     1      54.729   1.140  19.835  0.00  0.00    +0.000 OA
ATOM     16  H   UNL     1      53.919   0.787  20.243  0.00  0.00    +0.000 HD
ENDBRANCH  14  15
ENDBRANCH  11  14
ENDBRANCH   6   8
BRANCH   4  17
ATOM     17  C   UNL     1      49.145   7.045  15.552  0.00  0.00    +0.000 C 
ATOM     18  C   UNL     1      50.532   7.715  15.520  0.00  0.00    +0.000 C 
BRANCH  17  19
ATOM     19  C   UNL     1      48.693   6.870  14.081  0.00  0.00    +0.000 C 
BRANCH  19  20
ATOM     20  N   UNL     1      47.249   7.056  13.903  0.00  0.00    +0.000 N 
ATOM     21  H   UNL     1      46.986   8.021  13.719  0.00  0.00    +0.000 HD
BRANCH  20  22
ATOM     22  C   UNL     1      46.549   6.130  13.123  0.00  0.00    +0.000 A 
ATOM     23  C   UNL     1      46.116   4.893  13.615  0.00  0.00    +0.000 A 
ATOM     24  C   UNL     1      45.378   4.008  12.824  0.00  0.00    +0.000 A 
ATOM     25  C   UNL     1      45.018   4.361  11.524  0.00  0.00    +0.000 A 
ATOM     26  C   UNL     1      45.398   5.611  11.027  0.00  0.00    +0.000 A 
ATOM     27  C   UNL     1      46.141   6.490  11.830  0.00  0.00    +0.000 A 
BRANCH  25  28
ATOM     28  C   UNL     1      44.248   3.370  10.728  0.00  0.00    +0.000 C 
ATOM     29  N   UNL     1      43.544   2.420  11.415  0.00  0.00    +0.000 N 
ATOM     30  O   UNL     1      44.270   3.367   9.506  0.00  0.00    +0.000 OA
ATOM     31  H   UNL     1      43.700   2.232  12.395  0.00  0.00    +0.000 HD
ATOM     32  H   UNL     1      43.136   1.684  10.853  0.00  0.00    +0.000 HD
ENDBRANCH  25  28
ENDBRANCH  20  22
ENDBRANCH  19  20
ENDBRANCH  17  19
ENDBRANCH   4  17
TORSDOF 8
ENDMDL
