MODEL 1
REMARK VINA RESULT:    -8.042      0.000      0.000
REMARK INTER + INTRA:         -11.905
REMARK INTER:                 -10.862
REMARK INTRA:                  -1.043
REMARK UNBOUND:                -1.043
REMARK  Name = 
REMARK  7 active torsions:
REMARK  status: ('A' for Active; 'I' for Inactive)
REMARK    1  A    between atoms: C_1  and  N_2
REMARK    2  A    between atoms: N_2  and  C_3
REMARK    3  A    between atoms: C_3  and  C_4
REMARK    4  A    between atoms: C_7  and  C_8
REMARK    5  A    between atoms: C_8  and  N_9
REMARK    6  A    between atoms: C_10  and  C_12
REMARK    7  A    between atoms: C_24  and  C_26
REMARK                            x       y       z     vdW  Elec       q    Type
REMARK                         _______ _______ _______ _____ _____    ______ ____
ROOT
ATOM      1  C   UNL     1      46.424   4.498  13.434  0.00  0.00    +0.000 A 
ATOM      2  C   UNL     1      46.687   4.016  14.728  0.00  0.00    +0.000 A 
ATOM      3  C   UNL     1      47.551   4.702  15.583  0.00  0.00    +0.000 A 
ATOM      4  C   UNL     1      48.155   5.894  15.167  0.00  0.00    +0.000 A 
ATOM      5  C   UNL     1      47.932   6.348  13.860  0.00  0.00    +0.000 A 
ATOM      6  C   UNL     1      47.067   5.662  13.003  0.00  0.00    +0.000 A 
ENDROOT
BRANCH   1   7
ATOM      7  C   UNL     1      45.499   3.737  12.518  0.00  0.00    +0.000 C 
BRANCH   7   9
ATOM      8  C   UNL     1      43.371   4.934  13.173  0.00  0.00    +0.000 C 
ATOM      9  N   UNL     1      44.217   4.347  12.139  0.00  0.00    +0.000 N 
ATOM     10  C   UNL     1      43.885   4.683  10.811  0.00  0.00    +0.000 C 
ATOM     11  O   UNL     1      42.944   5.431  10.543  0.00  0.00    +0.000 OA
BRANCH  10  12
ATOM     12  C   UNL     1      44.680   4.185   9.656  0.00  0.00    +0.000 A 
ATOM     13  C   UNL     1      44.566   2.911   9.103  0.00  0.00    +0.000 A 
ATOM     14  C   UNL     1      45.394   2.531   8.047  0.00  0.00    +0.000 A 
ATOM     15  C   UNL     1      46.262   3.471   7.521  0.00  0.00    +0.000 A 
ATOM     16  N   UNL     1      46.352   4.737   7.978  0.00  0.00    +0.000 NA
ATOM     17  C   UNL     1      45.555   5.067   9.029  0.00  0.00    +0.000 A 
ENDBRANCH  10  12
ENDBRANCH   7   9
ENDBRANCH   1   7
BRANCH   4  18
ATOM     18  C   UNL     1      49.032   6.676  16.106  0.00  0.00    +0.000 C 
BRANCH  18  19
ATOM     19  N   UNL     1      50.153   5.901  16.569  0.00  0.00    +0.000 N 
ATOM     20  C   UNL     1      50.120   5.307  17.806  0.00  0.00    +0.000 C 
ATOM     21  O   UNL     1      49.132   5.376  18.532  0.00  0.00    +0.000 OA
ATOM     22  H   UNL     1      51.039   6.027  16.092  0.00  0.00    +0.000 HD
BRANCH  20  23
ATOM     23  C   UNL     1      51.302   4.532  18.197  0.00  0.00    +0.000 A 
ATOM     24  C   UNL     1      52.320   5.152  18.909  0.00  0.00    +0.000 A 
ATOM     25  S   UNL     1      53.598   4.105  19.329  0.00  0.00    +0.000 S 
ATOM     26  C   UNL     1      52.859   2.797  18.528  0.00  0.00    +0.000 A 
ATOM     27  N   UNL     1      53.460   1.578  18.483  0.00  0.00    +0.000 NA
ATOM     28  C   UNL     1      52.809   0.688  17.810  0.00  0.00    +0.000 A 
ATOM     29  N   UNL     1      51.610   0.904  17.186  0.00  0.00    +0.000 N 
ATOM     30  C   UNL     1      50.948   2.110  17.234  0.00  0.00    +0.000 A 
ATOM     31  O   UNL     1      49.851   2.255  16.706  0.00  0.00    +0.000 OA
ATOM     32  C   UNL     1      51.647   3.150  17.966  0.00  0.00    +0.000 A 
ATOM     33  H   UNL     1      51.148   0.160  16.686  0.00  0.00    +0.000 HD
ENDBRANCH  20  23
ENDBRANCH  18  19
ENDBRANCH   4  18
TORSDOF 6
ENDMDL
MODEL 2
REMARK VINA RESULT:    -7.575      3.717      8.489
REMARK INTER + INTRA:         -11.275
REMARK INTER:                  -9.747
REMARK INTRA:                  -1.528
REMARK UNBOUND:                -1.043
REMARK  Name = 
REMARK  7 active torsions:
REMARK  status: ('A' for Active; 'I' for Inactive)
REMARK    1  A    between atoms: C_1  and  N_2
REMARK    2  A    between atoms: N_2  and  C_3
REMARK    3  A    between atoms: C_3  and  C_4
REMARK    4  A    between atoms: C_7  and  C_8
REMARK    5  A    between atoms: C_8  and  N_9
REMARK    6  A    between atoms: C_10  and  C_12
REMARK    7  A    between atoms: C_24  and  C_26
REMARK                            x       y       z     vdW  Elec       q    Type
REMARK                         _______ _______ _______ _____ _____    ______ ____
ROOT
ATOM      1  C   UNL     1      48.988   7.568  16.202  0.00  0.00    +0.000 A 
ATOM      2  C   UNL     1      48.303   8.728  15.802  0.00  0.00    +0.000 A 
ATOM      3  C   UNL     1      48.058   8.981  14.452  0.00  0.00    +0.000 A 
ATOM      4  C   UNL     1      48.477   8.070  13.476  0.00  0.00    +0.000 A 
ATOM      5  C   UNL     1      49.205   6.939  13.870  0.00  0.00    +0.000 A 
ATOM      6  C   UNL     1      49.450   6.684  15.222  0.00  0.00    +0.000 A 
ENDROOT
BRANCH   1   7
ATOM      7  C   UNL     1      49.257   7.317  17.664  0.00  0.00    +0.000 C 
BRANCH   7   9
ATOM      8  C   UNL     1      47.467   8.147  19.245  0.00  0.00    +0.000 C 
ATOM      9  N   UNL     1      48.123   7.040  18.556  0.00  0.00    +0.000 N 
ATOM     10  C   UNL     1      47.422   5.817  18.556  0.00  0.00    +0.000 C 
ATOM     11  O   UNL     1      46.323   5.695  19.098  0.00  0.00    +0.000 OA
BRANCH  10  12
ATOM     12  C   UNL     1      47.953   4.611  17.865  0.00  0.00    +0.000 A 
ATOM     13  C   UNL     1      49.013   3.832  18.326  0.00  0.00    +0.000 A 
ATOM     14  C   UNL     1      49.460   2.746  17.574  0.00  0.00    +0.000 A 
ATOM     15  C   UNL     1      48.778   2.423  16.415  0.00  0.00    +0.000 A 
ATOM     16  N   UNL     1      47.703   3.105  15.970  0.00  0.00    +0.000 NA
ATOM     17  C   UNL     1      47.310   4.178  16.708  0.00  0.00    +0.000 A 
ENDBRANCH  10  12
ENDBRANCH   7   9
ENDBRANCH   1   7
BRANCH   4  18
ATOM     18  C   UNL     1      48.157   8.301  12.024  0.00  0.00    +0.000 C 
BRANCH  18  19
ATOM     19  N   UNL     1      47.526   7.156  11.422  0.00  0.00    +0.000 N 
ATOM     20  C   UNL     1      46.164   7.001  11.490  0.00  0.00    +0.000 C 
ATOM     21  O   UNL     1      45.441   7.842  12.017  0.00  0.00    +0.000 OA
ATOM     22  H   UNL     1      48.115   6.362  11.195  0.00  0.00    +0.000 HD
BRANCH  20  23
ATOM     23  C   UNL     1      45.603   5.808  10.847  0.00  0.00    +0.000 A 
ATOM     24  C   UNL     1      45.797   5.612   9.486  0.00  0.00    +0.000 A 
ATOM     25  S   UNL     1      45.126   4.158   8.901  0.00  0.00    +0.000 S 
ATOM     26  C   UNL     1      44.507   3.765  10.437  0.00  0.00    +0.000 A 
ATOM     27  N   UNL     1      43.783   2.629  10.628  0.00  0.00    +0.000 NA
ATOM     28  C   UNL     1      43.342   2.474  11.832  0.00  0.00    +0.000 A 
ATOM     29  N   UNL     1      43.564   3.347  12.862  0.00  0.00    +0.000 N 
ATOM     30  C   UNL     1      44.317   4.491  12.725  0.00  0.00    +0.000 A 
ATOM     31  O   UNL     1      44.538   5.226  13.682  0.00  0.00    +0.000 OA
ATOM     32  C   UNL     1      44.824   4.719  11.386  0.00  0.00    +0.000 A 
ATOM     33  H   UNL     1      43.199   3.160  13.784  0.00  0.00    +0.000 HD
ENDBRANCH  20  23
ENDBRANCH  18  19
ENDBRANCH   4  18
TORSDOF 6
ENDMDL
MODEL 3
REMARK VINA RESULT:    -7.454      3.369     10.307
REMARK INTER + INTRA:         -11.111
REMARK INTER:                  -9.743
REMARK INTRA:                  -1.367
REMARK UNBOUND:                -1.043
REMARK  Name = 
REMARK  7 active torsions:
REMARK  status: ('A' for Active; 'I' for Inactive)
REMARK    1  A    between atoms: C_1  and  N_2
REMARK    2  A    between atoms: N_2  and  C_3
REMARK    3  A    between atoms: C_3  and  C_4
REMARK    4  A    between atoms: C_7  and  C_8
REMARK    5  A    between atoms: C_8  and  N_9
REMARK    6  A    between atoms: C_10  and  C_12
REMARK    7  A    between atoms: C_24  and  C_26
REMARK                            x       y       z     vdW  Elec       q    Type
REMARK                         _______ _______ _______ _____ _____    ______ ____
ROOT
ATOM      1  C   UNL     1      51.514   3.690  17.726  0.00  0.00    +0.000 A 
ATOM      2  C   UNL     1      50.717   4.845  17.664  0.00  0.00    +0.000 A 
ATOM      3  C   UNL     1      49.362   4.761  17.340  0.00  0.00    +0.000 A 
ATOM      4  C   UNL     1      48.774   3.516  17.087  0.00  0.00    +0.000 A 
ATOM      5  C   UNL     1      49.579   2.370  17.099  0.00  0.00    +0.000 A 
ATOM      6  C   UNL     1      50.935   2.453  17.425  0.00  0.00    +0.000 A 
ENDROOT
BRANCH   1   7
ATOM      7  C   UNL     1      52.979   3.800  18.065  0.00  0.00    +0.000 C 
BRANCH   7   9
ATOM      8  C   UNL     1      54.354   1.932  19.071  0.00  0.00    +0.000 C 
ATOM      9  N   UNL     1      53.488   3.093  19.249  0.00  0.00    +0.000 N 
ATOM     10  C   UNL     1      53.455   3.640  20.547  0.00  0.00    +0.000 C 
ATOM     11  O   UNL     1      54.120   3.169  21.471  0.00  0.00    +0.000 OA
BRANCH  10  12
ATOM     12  C   UNL     1      52.643   4.845  20.868  0.00  0.00    +0.000 A 
ATOM     13  C   UNL     1      51.320   4.819  21.306  0.00  0.00    +0.000 A 
ATOM     14  C   UNL     1      50.636   6.013  21.535  0.00  0.00    +0.000 A 
ATOM     15  C   UNL     1      51.327   7.203  21.395  0.00  0.00    +0.000 A 
ATOM     16  N   UNL     1      52.627   7.271  21.045  0.00  0.00    +0.000 NA
ATOM     17  C   UNL     1      53.258   6.092  20.797  0.00  0.00    +0.000 A 
ENDBRANCH  10  12
ENDBRANCH   7   9
ENDBRANCH   1   7
BRANCH   4  18
ATOM     18  C   UNL     1      47.300   3.409  16.804  0.00  0.00    +0.000 C 
BRANCH  18  19
ATOM     19  N   UNL     1      46.855   4.414  15.875  0.00  0.00    +0.000 N 
ATOM     20  C   UNL     1      46.893   4.175  14.525  0.00  0.00    +0.000 C 
ATOM     21  O   UNL     1      47.259   3.095  14.068  0.00  0.00    +0.000 OA
ATOM     22  H   UNL     1      46.773   5.366  16.218  0.00  0.00    +0.000 HD
BRANCH  20  23
ATOM     23  C   UNL     1      46.417   5.250  13.650  0.00  0.00    +0.000 A 
ATOM     24  C   UNL     1      47.222   6.360  13.430  0.00  0.00    +0.000 A 
ATOM     25  S   UNL     1      46.547   7.495  12.353  0.00  0.00    +0.000 S 
ATOM     26  C   UNL     1      45.129   6.568  12.183  0.00  0.00    +0.000 A 
ATOM     27  N   UNL     1      44.104   6.998  11.399  0.00  0.00    +0.000 NA
ATOM     28  C   UNL     1      43.075   6.218  11.391  0.00  0.00    +0.000 A 
ATOM     29  N   UNL     1      42.982   5.044  12.088  0.00  0.00    +0.000 N 
ATOM     30  C   UNL     1      44.005   4.551  12.866  0.00  0.00    +0.000 A 
ATOM     31  O   UNL     1      43.906   3.471  13.438  0.00  0.00    +0.000 OA
ATOM     32  C   UNL     1      45.179   5.400  12.921  0.00  0.00    +0.000 A 
ATOM     33  H   UNL     1      42.152   4.473  12.028  0.00  0.00    +0.000 HD
ENDBRANCH  20  23
ENDBRANCH  18  19
ENDBRANCH   4  18
TORSDOF 6
ENDMDL
MODEL 4
REMARK VINA RESULT:    -7.428      1.842      3.038
REMARK INTER + INTRA:         -11.076
REMARK INTER:                  -9.907
REMARK INTRA:                  -1.169
REMARK UNBOUND:                -1.043
REMARK  Name = 
REMARK  7 active torsions:
REMARK  status: ('A' for Active; 'I' for Inactive)
REMARK    1  A    between atoms: C_1  and  N_2
REMARK    2  A    between atoms: N_2  and  C_3
REMARK    3  A    between atoms: C_3  and  C_4
REMARK    4  A    between atoms: C_7  and  C_8
REMARK    5  A    between atoms: C_8  and  N_9
REMARK    6  A    between atoms: C_10  and  C_12
REMARK    7  A    between atoms: C_24  and  C_26
REMARK                            x       y       z     vdW  Elec       q    Type
REMARK                         _______ _______ _______ _____ _____    ______ ____
ROOT
ATOM      1  C   UNL     1      47.281   5.693  13.658  0.00  0.00    +0.000 A 
ATOM      2  C   UNL     1      46.805   4.371  13.675  0.00  0.00    +0.000 A 
ATOM      3  C   UNL     1      46.972   3.567  14.803  0.00  0.00    +0.000 A 
ATOM      4  C   UNL     1      47.603   4.076  15.945  0.00  0.00    +0.000 A 
ATOM      5  C   UNL     1      48.122   5.378  15.910  0.00  0.00    +0.000 A 
ATOM      6  C   UNL     1      47.955   6.184  14.781  0.00  0.00    +0.000 A 
ENDROOT
BRANCH   1   7
ATOM      7  C   UNL     1      47.104   6.544  12.425  0.00  0.00    +0.000 C 
BRANCH   7   9
ATOM      8  C   UNL     1      45.905   8.735  12.815  0.00  0.00    +0.000 C 
ATOM      9  N   UNL     1      45.895   7.370  12.301  0.00  0.00    +0.000 N 
ATOM     10  C   UNL     1      44.825   7.045  11.443  0.00  0.00    +0.000 C 
ATOM     11  O   UNL     1      43.957   7.866  11.143  0.00  0.00    +0.000 OA
BRANCH  10  12
ATOM     12  C   UNL     1      44.703   5.701  10.818  0.00  0.00    +0.000 A 
ATOM     13  C   UNL     1      45.438   5.266   9.716  0.00  0.00    +0.000 A 
ATOM     14  C   UNL     1      45.212   3.998   9.181  0.00  0.00    +0.000 A 
ATOM     15  C   UNL     1      44.306   3.169   9.816  0.00  0.00    +0.000 A 
ATOM     16  N   UNL     1      43.626   3.522  10.927  0.00  0.00    +0.000 NA
ATOM     17  C   UNL     1      43.845   4.775  11.406  0.00  0.00    +0.000 A 
ENDBRANCH  10  12
ENDBRANCH   7   9
ENDBRANCH   1   7
BRANCH   4  18
ATOM     18  C   UNL     1      47.727   3.240  17.189  0.00  0.00    +0.000 C 
BRANCH  18  19
ATOM     19  N   UNL     1      49.096   3.093  17.607  0.00  0.00    +0.000 N 
ATOM     20  C   UNL     1      49.941   2.253  16.927  0.00  0.00    +0.000 C 
ATOM     21  O   UNL     1      49.579   1.642  15.925  0.00  0.00    +0.000 OA
ATOM     22  H   UNL     1      49.336   3.403  18.543  0.00  0.00    +0.000 HD
BRANCH  20  23
ATOM     23  C   UNL     1      51.320   2.166  17.416  0.00  0.00    +0.000 A 
ATOM     24  C   UNL     1      51.896   0.918  17.616  0.00  0.00    +0.000 A 
ATOM     25  S   UNL     1      53.517   0.988  18.140  0.00  0.00    +0.000 S 
ATOM     26  C   UNL     1      53.490   2.690  18.169  0.00  0.00    +0.000 A 
ATOM     27  N   UNL     1      54.581   3.399  18.564  0.00  0.00    +0.000 NA
ATOM     28  C   UNL     1      54.410   4.679  18.576  0.00  0.00    +0.000 A 
ATOM     29  N   UNL     1      53.250   5.313  18.222  0.00  0.00    +0.000 N 
ATOM     30  C   UNL     1      52.132   4.641  17.783  0.00  0.00    +0.000 A 
ATOM     31  O   UNL     1      51.126   5.244  17.425  0.00  0.00    +0.000 OA
ATOM     32  C   UNL     1      52.268   3.197  17.766  0.00  0.00    +0.000 A 
ATOM     33  H   UNL     1      53.186   6.320  18.242  0.00  0.00    +0.000 HD
ENDBRANCH  20  23
ENDBRANCH  18  19
ENDBRANCH   4  18
TORSDOF 6
ENDMDL
MODEL 5
REMARK VINA RESULT:    -7.402      2.691      3.147
REMARK INTER + INTRA:         -11.041
REMARK INTER:                 -10.659
REMARK INTRA:                  -0.382
REMARK UNBOUND:                -1.043
REMARK  Name = 
REMARK  7 active torsions:
REMARK  status: ('A' for Active; 'I' for Inactive)
REMARK    1  A    between atoms: C_1  and  N_2
REMARK    2  A    between atoms: N_2  and  C_3
REMARK    3  A    between atoms: C_3  and  C_4
REMARK    4  A    between atoms: C_7  and  C_8
REMARK    5  A    between atoms: C_8  and  N_9
REMARK    6  A    between atoms: C_10  and  C_12
REMARK    7  A    between atoms: C_24  and  C_26
REMARK                            x       y       z     vdW  Elec       q    Type
REMARK                         _______ _______ _______ _____ _____    ______ ____
ROOT
ATOM      1  C   UNL     1      45.396   6.651  11.752  0.00  0.00    +0.000 A 
ATOM      2  C   UNL     1      46.610   6.077  12.165  0.00  0.00    +0.000 A 
ATOM      3  C   UNL     1      47.510   6.799  12.950  0.00  0.00    +0.000 A 
ATOM      4  C   UNL     1      47.205   8.104  13.352  0.00  0.00    +0.000 A 
ATOM      5  C   UNL     1      46.018   8.695  12.898  0.00  0.00    +0.000 A 
ATOM      6  C   UNL     1      45.116   7.972  12.113  0.00  0.00    +0.000 A 
ENDROOT
BRANCH   1   7
ATOM      7  C   UNL     1      44.441   5.861  10.893  0.00  0.00    +0.000 C 
BRANCH   7   9
ATOM      8  C   UNL     1      42.944   4.669  12.546  0.00  0.00    +0.000 C 
ATOM      9  N   UNL     1      43.876   4.613  11.424  0.00  0.00    +0.000 N 
ATOM     10  C   UNL     1      43.927   3.387  10.730  0.00  0.00    +0.000 C 
ATOM     11  O   UNL     1      43.223   2.427  11.049  0.00  0.00    +0.000 OA
BRANCH  10  12
ATOM     12  C   UNL     1      44.806   3.194   9.546  0.00  0.00    +0.000 A 
ATOM     13  C   UNL     1      45.318   1.967   9.126  0.00  0.00    +0.000 A 
ATOM     14  C   UNL     1      46.172   1.906   8.026  0.00  0.00    +0.000 A 
ATOM     15  C   UNL     1      46.426   3.071   7.326  0.00  0.00    +0.000 A 
ATOM     16  N   UNL     1      45.894   4.266   7.653  0.00  0.00    +0.000 NA
ATOM     17  C   UNL     1      45.091   4.299   8.749  0.00  0.00    +0.000 A 
ENDBRANCH  10  12
ENDBRANCH   7   9
ENDBRANCH   1   7
BRANCH   4  18
ATOM     18  C   UNL     1      48.138   8.865  14.254  0.00  0.00    +0.000 C 
BRANCH  18  19
ATOM     19  N   UNL     1      48.335   8.198  15.513  0.00  0.00    +0.000 N 
ATOM     20  C   UNL     1      49.594   7.824  15.909  0.00  0.00    +0.000 C 
ATOM     21  O   UNL     1      50.589   8.082  15.237  0.00  0.00    +0.000 OA
ATOM     22  H   UNL     1      47.522   7.783  15.956  0.00  0.00    +0.000 HD
BRANCH  20  23
ATOM     23  C   UNL     1      49.706   7.153  17.208  0.00  0.00    +0.000 A 
ATOM     24  C   UNL     1      50.386   7.779  18.244  0.00  0.00    +0.000 A 
ATOM     25  S   UNL     1      50.384   6.892  19.700  0.00  0.00    +0.000 S 
ATOM     26  C   UNL     1      49.518   5.615  18.982  0.00  0.00    +0.000 A 
ATOM     27  N   UNL     1      49.202   4.499  19.693  0.00  0.00    +0.000 NA
ATOM     28  C   UNL     1      48.579   3.593  19.015  0.00  0.00    +0.000 A 
ATOM     29  N   UNL     1      48.236   3.706  17.695  0.00  0.00    +0.000 N 
ATOM     30  C   UNL     1      48.503   4.828  16.945  0.00  0.00    +0.000 A 
ATOM     31  O   UNL     1      48.137   4.915  15.777  0.00  0.00    +0.000 OA
ATOM     32  C   UNL     1      49.218   5.870  17.657  0.00  0.00    +0.000 A 
ATOM     33  H   UNL     1      47.738   2.964  17.227  0.00  0.00    +0.000 HD
ENDBRANCH  20  23
ENDBRANCH  18  19
ENDBRANCH   4  18
TORSDOF 6
ENDMDL
MODEL 6
REMARK VINA RESULT:    -7.237      3.608      8.895
REMARK INTER + INTRA:         -10.818
REMARK INTER:                  -9.422
REMARK INTRA:                  -1.397
REMARK UNBOUND:                -1.043
REMARK  Name = 
REMARK  7 active torsions:
REMARK  status: ('A' for Active; 'I' for Inactive)
REMARK    1  A    between atoms: C_1  and  N_2
REMARK    2  A    between atoms: N_2  and  C_3
REMARK    3  A    between atoms: C_3  and  C_4
REMARK    4  A    between atoms: C_7  and  C_8
REMARK    5  A    between atoms: C_8  and  N_9
REMARK    6  A    between atoms: C_10  and  C_12
REMARK    7  A    between atoms: C_24  and  C_26
REMARK                            x       y       z     vdW  Elec       q    Type
REMARK                         _______ _______ _______ _____ _____    ______ ____
ROOT
ATOM      1  C   UNL     1      49.050   7.644  16.293  0.00  0.00    +0.000 A 
ATOM      2  C   UNL     1      48.535   8.856  15.802  0.00  0.00    +0.000 A 
ATOM      3  C   UNL     1      47.980   8.928  14.523  0.00  0.00    +0.000 A 
ATOM      4  C   UNL     1      47.914   7.786  13.717  0.00  0.00    +0.000 A 
ATOM      5  C   UNL     1      48.473   6.590  14.188  0.00  0.00    +0.000 A 
ATOM      6  C   UNL     1      49.028   6.516  15.468  0.00  0.00    +0.000 A 
ENDROOT
BRANCH   1   7
ATOM      7  C   UNL     1      49.658   7.586  17.672  0.00  0.00    +0.000 C 
BRANCH   7   9
ATOM      8  C   UNL     1      48.470   8.776  19.561  0.00  0.00    +0.000 C 
ATOM      9  N   UNL     1      48.766   7.542  18.839  0.00  0.00    +0.000 N 
ATOM     10  C   UNL     1      47.926   6.447  19.127  0.00  0.00    +0.000 C 
ATOM     11  O   UNL     1      46.999   6.530  19.934  0.00  0.00    +0.000 OA
BRANCH  10  12
ATOM     12  C   UNL     1      48.088   5.136  18.443  0.00  0.00    +0.000 A 
ATOM     13  C   UNL     1      49.232   4.342  18.505  0.00  0.00    +0.000 A 
ATOM     14  C   UNL     1      49.294   3.148  17.787  0.00  0.00    +0.000 A 
ATOM     15  C   UNL     1      48.173   2.744  17.086  0.00  0.00    +0.000 A 
ATOM     16  N   UNL     1      47.021   3.446  17.057  0.00  0.00    +0.000 NA
ATOM     17  C   UNL     1      47.002   4.620  17.742  0.00  0.00    +0.000 A 
ENDBRANCH  10  12
ENDBRANCH   7   9
ENDBRANCH   1   7
BRANCH   4  18
ATOM     18  C   UNL     1      47.257   7.839  12.366  0.00  0.00    +0.000 C 
BRANCH  18  19
ATOM     19  N   UNL     1      46.664   6.579  12.004  0.00  0.00    +0.000 N 
ATOM     20  C   UNL     1      45.324   6.361  12.202  0.00  0.00    +0.000 C 
ATOM     21  O   UNL     1      44.584   7.236  12.645  0.00  0.00    +0.000 OA
ATOM     22  H   UNL     1      47.288   5.791  11.860  0.00  0.00    +0.000 HD
BRANCH  20  23
ATOM     23  C   UNL     1      44.801   5.051  11.801  0.00  0.00    +0.000 A 
ATOM     24  C   UNL     1      44.104   4.283  12.724  0.00  0.00    +0.000 A 
ATOM     25  S   UNL     1      43.521   2.812  12.090  0.00  0.00    +0.000 S 
ATOM     26  C   UNL     1      44.226   3.126  10.573  0.00  0.00    +0.000 A 
ATOM     27  N   UNL     1      44.124   2.228   9.557  0.00  0.00    +0.000 NA
ATOM     28  C   UNL     1      44.738   2.575   8.475  0.00  0.00    +0.000 A 
ATOM     29  N   UNL     1      45.438   3.740   8.315  0.00  0.00    +0.000 N 
ATOM     30  C   UNL     1      45.540   4.693   9.302  0.00  0.00    +0.000 A 
ATOM     31  O   UNL     1      46.134   5.749   9.108  0.00  0.00    +0.000 OA
ATOM     32  C   UNL     1      44.880   4.344  10.545  0.00  0.00    +0.000 A 
ATOM     33  H   UNL     1      45.886   3.956   7.437  0.00  0.00    +0.000 HD
ENDBRANCH  20  23
ENDBRANCH  18  19
ENDBRANCH   4  18
TORSDOF 6
ENDMDL
MODEL 7
REMARK VINA RESULT:    -7.084      3.830      4.963
REMARK INTER + INTRA:         -10.612
REMARK INTER:                 -10.164
REMARK INTRA:                  -0.448
REMARK UNBOUND:                -1.043
REMARK  Name = 
REMARK  7 active torsions:
REMARK  status: ('A' for Active; 'I' for Inactive)
REMARK    1  A    between atoms: C_1  and  N_2
REMARK    2  A    between atoms: N_2  and  C_3
REMARK    3  A    between atoms: C_3  and  C_4
REMARK    4  A    between atoms: C_7  and  C_8
REMARK    5  A    between atoms: C_8  and  N_9
REMARK    6  A    between atoms: C_10  and  C_12
REMARK    7  A    between atoms: C_24  and  C_26
REMARK                            x       y       z     vdW  Elec       q    Type
REMARK                         _______ _______ _______ _____ _____    ______ ____
ROOT
ATOM      1  C   UNL     1      45.873   6.724  11.905  0.00  0.00    +0.000 A 
ATOM      2  C   UNL     1      47.049   6.202  12.469  0.00  0.00    +0.000 A 
ATOM      3  C   UNL     1      47.797   6.951  13.379  0.00  0.00    +0.000 A 
ATOM      4  C   UNL     1      47.373   8.231  13.755  0.00  0.00    +0.000 A 
ATOM      5  C   UNL     1      46.227   8.771  13.155  0.00  0.00    +0.000 A 
ATOM      6  C   UNL     1      45.477   8.021  12.245  0.00  0.00    +0.000 A 
ENDROOT
BRANCH   1   7
ATOM      7  C   UNL     1      45.084   5.906  10.914  0.00  0.00    +0.000 C 
BRANCH   7   9
ATOM      8  C   UNL     1      43.371   4.996  12.536  0.00  0.00    +0.000 C 
ATOM      9  N   UNL     1      44.271   4.785  11.406  0.00  0.00    +0.000 N 
ATOM     10  C   UNL     1      44.064   3.600  10.671  0.00  0.00    +0.000 C 
ATOM     11  O   UNL     1      43.176   2.798  10.963  0.00  0.00    +0.000 OA
BRANCH  10  12
ATOM     12  C   UNL     1      44.884   3.269   9.475  0.00  0.00    +0.000 A 
ATOM     13  C   UNL     1      45.391   2.004   9.183  0.00  0.00    +0.000 A 
ATOM     14  C   UNL     1      46.188   1.813   8.055  0.00  0.00    +0.000 A 
ATOM     15  C   UNL     1      46.389   2.885   7.204  0.00  0.00    +0.000 A 
ATOM     16  N   UNL     1      45.857   4.107   7.409  0.00  0.00    +0.000 NA
ATOM     17  C   UNL     1      45.111   4.270   8.534  0.00  0.00    +0.000 A 
ENDBRANCH  10  12
ENDBRANCH   7   9
ENDBRANCH   1   7
BRANCH   4  18
ATOM     18  C   UNL     1      48.135   9.018  14.786  0.00  0.00    +0.000 C 
BRANCH  18  19
ATOM     19  N   UNL     1      47.836   8.584  16.125  0.00  0.00    +0.000 N 
ATOM     20  C   UNL     1      48.791   7.944  16.875  0.00  0.00    +0.000 C 
ATOM     21  O   UNL     1      49.931   7.763  16.455  0.00  0.00    +0.000 OA
ATOM     22  H   UNL     1      46.859   8.521  16.391  0.00  0.00    +0.000 HD
BRANCH  20  23
ATOM     23  C   UNL     1      48.405   7.540  18.231  0.00  0.00    +0.000 A 
ATOM     24  C   UNL     1      48.538   6.211  18.611  0.00  0.00    +0.000 A 
ATOM     25  S   UNL     1      48.094   5.914  20.229  0.00  0.00    +0.000 S 
ATOM     26  C   UNL     1      47.656   7.543  20.464  0.00  0.00    +0.000 A 
ATOM     27  N   UNL     1      47.157   7.967  21.656  0.00  0.00    +0.000 NA
ATOM     28  C   UNL     1      46.831   9.216  21.683  0.00  0.00    +0.000 A 
ATOM     29  N   UNL     1      46.966  10.080  20.630  0.00  0.00    +0.000 N 
ATOM     30  C   UNL     1      47.497   9.705  19.417  0.00  0.00    +0.000 A 
ATOM     31  O   UNL     1      47.650  10.518  18.510  0.00  0.00    +0.000 OA
ATOM     32  C   UNL     1      47.865   8.305  19.329  0.00  0.00    +0.000 A 
ATOM     33  H   UNL     1      46.702  11.049  20.721  0.00  0.00    +0.000 HD
ENDBRANCH  20  23
ENDBRANCH  18  19
ENDBRANCH   4  18
TORSDOF 6
ENDMDL
MODEL 8
REMARK VINA RESULT:    -7.005      3.796      8.562
REMARK INTER + INTRA:         -10.505
REMARK INTER:                  -8.836
REMARK INTRA:                  -1.669
REMARK UNBOUND:                -1.043
REMARK  Name = 
REMARK  7 active torsions:
REMARK  status: ('A' for Active; 'I' for Inactive)
REMARK    1  A    between atoms: C_1  and  N_2
REMARK    2  A    between atoms: N_2  and  C_3
REMARK    3  A    between atoms: C_3  and  C_4
REMARK    4  A    between atoms: C_7  and  C_8
REMARK    5  A    between atoms: C_8  and  N_9
REMARK    6  A    between atoms: C_10  and  C_12
REMARK    7  A    between atoms: C_24  and  C_26
REMARK                            x       y       z     vdW  Elec       q    Type
REMARK                         _______ _______ _______ _____ _____    ______ ____
ROOT
ATOM      1  C   UNL     1      49.991   7.218  17.327  0.00  0.00    +0.000 A 
ATOM      2  C   UNL     1      50.189   6.739  16.021  0.00  0.00    +0.000 A 
ATOM      3  C   UNL     1      49.476   7.276  14.949  0.00  0.00    +0.000 A 
ATOM      4  C   UNL     1      48.563   8.317  15.160  0.00  0.00    +0.000 A 
ATOM      5  C   UNL     1      48.329   8.760  16.468  0.00  0.00    +0.000 A 
ATOM      6  C   UNL     1      49.044   8.223  17.543  0.00  0.00    +0.000 A 
ENDROOT
BRANCH   1   7
ATOM      7  C   UNL     1      50.760   6.617  18.477  0.00  0.00    +0.000 C 
BRANCH   7   9
ATOM      8  C   UNL     1      50.196   7.003  20.911  0.00  0.00    +0.000 C 
ATOM      9  N   UNL     1      50.030   6.222  19.690  0.00  0.00    +0.000 N 
ATOM     10  C   UNL     1      48.939   5.329  19.676  0.00  0.00    +0.000 C 
ATOM     11  O   UNL     1      48.173   5.220  20.635  0.00  0.00    +0.000 OA
BRANCH  10  12
ATOM     12  C   UNL     1      48.627   4.492  18.486  0.00  0.00    +0.000 A 
ATOM     13  C   UNL     1      47.507   4.653  17.672  0.00  0.00    +0.000 A 
ATOM     14  C   UNL     1      47.287   3.782  16.606  0.00  0.00    +0.000 A 
ATOM     15  C   UNL     1      48.243   2.819  16.336  0.00  0.00    +0.000 A 
ATOM     16  N   UNL     1      49.376   2.675  17.053  0.00  0.00    +0.000 NA
ATOM     17  C   UNL     1      49.547   3.518  18.106  0.00  0.00    +0.000 A 
ENDBRANCH  10  12
ENDBRANCH   7   9
ENDBRANCH   1   7
BRANCH   4  18
ATOM     18  C   UNL     1      47.841   8.948  14.001  0.00  0.00    +0.000 C 
BRANCH  18  19
ATOM     19  N   UNL     1      46.691   8.183  13.600  0.00  0.00    +0.000 N 
ATOM     20  C   UNL     1      46.740   7.393  12.480  0.00  0.00    +0.000 C 
ATOM     21  O   UNL     1      47.766   7.275  11.815  0.00  0.00    +0.000 OA
ATOM     22  H   UNL     1      45.793   8.444  13.995  0.00  0.00    +0.000 HD
BRANCH  20  23
ATOM     23  C   UNL     1      45.525   6.643  12.146  0.00  0.00    +0.000 A 
ATOM     24  C   UNL     1      44.436   7.314  11.604  0.00  0.00    +0.000 A 
ATOM     25  S   UNL     1      43.122   6.295  11.228  0.00  0.00    +0.000 S 
ATOM     26  C   UNL     1      43.943   4.928  11.824  0.00  0.00    +0.000 A 
ATOM     27  N   UNL     1      43.352   3.703  11.822  0.00  0.00    +0.000 NA
ATOM     28  C   UNL     1      44.071   2.763  12.339  0.00  0.00    +0.000 A 
ATOM     29  N   UNL     1      45.329   2.936  12.850  0.00  0.00    +0.000 N 
ATOM     30  C   UNL     1      45.981   4.148  12.842  0.00  0.00    +0.000 A 
ATOM     31  O   UNL     1      47.128   4.256  13.263  0.00  0.00    +0.000 OA
ATOM     32  C   UNL     1      45.208   5.242  12.286  0.00  0.00    +0.000 A 
ATOM     33  H   UNL     1      45.843   2.155  13.229  0.00  0.00    +0.000 HD
ENDBRANCH  20  23
ENDBRANCH  18  19
ENDBRANCH   4  18
TORSDOF 6
ENDMDL
MODEL 9
REMARK VINA RESULT:    -6.821      3.573      9.283
REMARK INTER + INTRA:         -10.256
REMARK INTER:                  -8.744
REMARK INTRA:                  -1.513
REMARK UNBOUND:                -1.043
REMARK  Name = 
REMARK  7 active torsions:
REMARK  status: ('A' for Active; 'I' for Inactive)
REMARK    1  A    between atoms: C_1  and  N_2
REMARK    2  A    between atoms: N_2  and  C_3
REMARK    3  A    between atoms: C_3  and  C_4
REMARK    4  A    between atoms: C_7  and  C_8
REMARK    5  A    between atoms: C_8  and  N_9
REMARK    6  A    between atoms: C_10  and  C_12
REMARK    7  A    between atoms: C_24  and  C_26
REMARK                            x       y       z     vdW  Elec       q    Type
REMARK                         _______ _______ _______ _____ _____    ______ ____
ROOT
ATOM      1  C   UNL     1      49.859   8.035  15.043  0.00  0.00    +0.000 A 
ATOM      2  C   UNL     1      48.608   8.623  15.296  0.00  0.00    +0.000 A 
ATOM      3  C   UNL     1      47.629   8.672  14.302  0.00  0.00    +0.000 A 
ATOM      4  C   UNL     1      47.876   8.118  13.041  0.00  0.00    +0.000 A 
ATOM      5  C   UNL     1      49.141   7.576  12.773  0.00  0.00    +0.000 A 
ATOM      6  C   UNL     1      50.121   7.526  13.768  0.00  0.00    +0.000 A 
ENDROOT
BRANCH   1   7
ATOM      7  C   UNL     1      50.911   8.002  16.124  0.00  0.00    +0.000 C 
BRANCH   7   9
ATOM      8  C   UNL     1      53.139   6.823  15.929  0.00  0.00    +0.000 C 
ATOM      9  N   UNL     1      51.724   6.789  16.285  0.00  0.00    +0.000 N 
ATOM     10  C   UNL     1      51.312   5.681  17.052  0.00  0.00    +0.000 C 
ATOM     11  O   UNL     1      52.099   4.801  17.403  0.00  0.00    +0.000 OA
BRANCH  10  12
ATOM     12  C   UNL     1      49.906   5.530  17.516  0.00  0.00    +0.000 A 
ATOM     13  C   UNL     1      48.906   4.854  16.819  0.00  0.00    +0.000 A 
ATOM     14  C   UNL     1      47.608   4.812  17.325  0.00  0.00    +0.000 A 
ATOM     15  C   UNL     1      47.365   5.383  18.561  0.00  0.00    +0.000 A 
ATOM     16  N   UNL     1      48.319   5.983  19.303  0.00  0.00    +0.000 NA
ATOM     17  C   UNL     1      49.567   6.036  18.768  0.00  0.00    +0.000 A 
ENDBRANCH  10  12
ENDBRANCH   7   9
ENDBRANCH   1   7
BRANCH   4  18
ATOM     18  C   UNL     1      46.804   8.105  11.987  0.00  0.00    +0.000 C 
BRANCH  18  19
ATOM     19  N   UNL     1      46.330   6.774  11.715  0.00  0.00    +0.000 N 
ATOM     20  C   UNL     1      44.988   6.533  11.564  0.00  0.00    +0.000 C 
ATOM     21  O   UNL     1      44.158   7.438  11.609  0.00  0.00    +0.000 OA
ATOM     22  H   UNL     1      46.964   6.003  11.902  0.00  0.00    +0.000 HD
BRANCH  20  23
ATOM     23  C   UNL     1      44.592   5.149  11.285  0.00  0.00    +0.000 A 
ATOM     24  C   UNL     1      43.818   4.460  12.209  0.00  0.00    +0.000 A 
ATOM     25  S   UNL     1      43.403   2.883  11.715  0.00  0.00    +0.000 S 
ATOM     26  C   UNL     1      44.288   3.046  10.270  0.00  0.00    +0.000 A 
ATOM     27  N   UNL     1      44.370   2.019   9.382  0.00  0.00    +0.000 NA
ATOM     28  C   UNL     1      45.105   2.264   8.349  0.00  0.00    +0.000 A 
ATOM     29  N   UNL     1      45.759   3.445   8.120  0.00  0.00    +0.000 N 
ATOM     30  C   UNL     1      45.678   4.523   8.972  0.00  0.00    +0.000 A 
ATOM     31  O   UNL     1      46.237   5.583   8.711  0.00  0.00    +0.000 OA
ATOM     32  C   UNL     1      44.875   4.292  10.158  0.00  0.00    +0.000 A 
ATOM     33  H   UNL     1      46.309   3.576   7.285  0.00  0.00    +0.000 HD
ENDBRANCH  20  23
ENDBRANCH  18  19
ENDBRANCH   4  18
TORSDOF 6
ENDMDL
