MODEL 1
REMARK VINA RESULT:    -8.265      0.000      0.000
REMARK INTER + INTRA:         -12.436
REMARK INTER:                 -11.647
REMARK INTRA:                  -0.789
REMARK UNBOUND:                -0.789
REMARK  Name = 
REMARK  8 active torsions:
REMARK  status: ('A' for Active; 'I' for Inactive)
REMARK    1  A    between atoms: C_1  and  N_2
REMARK    2  A    between atoms: N_2  and  C_3
REMARK    3  A    between atoms: N_2  and  C_15
REMARK    4  A    between atoms: C_3  and  C_4
REMARK    5  A    between atoms: C_4  and  N_5
REMARK    6  A    between atoms: C_9  and  C_10
REMARK    7  A    between atoms: C_20  and  O_21
REMARK    8  A    between atoms: O_21  and  C_22
REMARK                            x       y       z     vdW  Elec       q    Type
REMARK                         _______ _______ _______ _____ _____    ______ ____
ROOT
ATOM      1  C   UNL     1      42.897   5.388  12.935  0.00  0.00    +0.000 C 
ATOM      2  N   UNL     1      44.088   4.569  12.713  0.00  0.00    +0.000 N 
ENDROOT
BRANCH   2   3
ATOM      3  C   UNL     1      45.348   5.137  12.939  0.00  0.00    +0.000 A 
ATOM      4  C   UNL     1      45.876   6.139  12.109  0.00  0.00    +0.000 A 
ATOM      5  C   UNL     1      47.141   6.696  12.336  0.00  0.00    +0.000 A 
ATOM      6  C   UNL     1      47.918   6.256  13.403  0.00  0.00    +0.000 A 
ATOM      7  F   UNL     1      49.110   6.831  13.603  0.00  0.00    +0.000 F 
ATOM      8  C   UNL     1      47.438   5.258  14.244  0.00  0.00    +0.000 A 
ATOM      9  C   UNL     1      46.163   4.735  14.016  0.00  0.00    +0.000 A 
BRANCH   8  10
ATOM     10  O   UNL     1      48.091   4.733  15.333  0.00  0.00    +0.000 OA
BRANCH  10  11
ATOM     11  C   UNL     1      47.357   4.516  16.561  0.00  0.00    +0.000 C 
ATOM     12  C   UNL     1      47.969   5.024  17.882  0.00  0.00    +0.000 C 
ATOM     13  N   UNL     1      47.794   3.697  18.494  0.00  0.00    +0.000 NA
ATOM     14  C   UNL     1      47.521   3.107  17.176  0.00  0.00    +0.000 C 
ATOM     15  H   UNL     1      47.008   3.640  19.142  0.00  0.00    +0.000 HD
ENDBRANCH  10  11
ENDBRANCH   8  10
ENDBRANCH   2   3
BRANCH   2  16
ATOM     16  C   UNL     1      43.984   3.117  12.434  0.00  0.00    +0.000 C 
BRANCH  16  17
ATOM     17  C   UNL     1      43.518   2.755  11.019  0.00  0.00    +0.000 C 
BRANCH  17  18
ATOM     18  N   UNL     1      43.902   3.765  10.021  0.00  0.00    +0.000 N 
ATOM     19  C   UNL     1      44.819   3.235   9.090  0.00  0.00    +0.000 A 
ATOM     20  C   UNL     1      45.284   4.044   8.059  0.00  0.00    +0.000 A 
ATOM     21  C   UNL     1      46.185   3.515   7.130  0.00  0.00    +0.000 A 
ATOM     22  C   UNL     1      46.608   2.190   7.248  0.00  0.00    +0.000 A 
ATOM     23  C   UNL     1      46.090   1.458   8.297  0.00  0.00    +0.000 A 
ATOM     24  N   UNL     1      45.212   1.947   9.202  0.00  0.00    +0.000 NA
ATOM     25  H   UNL     1      44.315   4.592  10.443  0.00  0.00    +0.000 HD
BRANCH  22  26
ATOM     26  C   UNL     1      47.570   1.633   6.273  0.00  0.00    +0.000 C 
ATOM     27  N   UNL     1      48.713   2.329   5.987  0.00  0.00    +0.000 N 
ATOM     28  O   UNL     1      47.357   0.559   5.719  0.00  0.00    +0.000 OA
ATOM     29  H   UNL     1      48.996   3.211   6.386  0.00  0.00    +0.000 HD
ATOM     30  H   UNL     1      49.342   1.905   5.314  0.00  0.00    +0.000 HD
ENDBRANCH  22  26
ENDBRANCH  17  18
ENDBRANCH  16  17
ENDBRANCH   2  16
TORSDOF 7
ENDMDL
MODEL 2
REMARK VINA RESULT:    -7.550      3.087      4.694
REMARK INTER + INTRA:         -11.429
REMARK INTER:                 -10.513
REMARK INTRA:                  -0.916
REMARK UNBOUND:                -0.789
REMARK  Name = 
REMARK  8 active torsions:
REMARK  status: ('A' for Active; 'I' for Inactive)
REMARK    1  A    between atoms: C_1  and  N_2
REMARK    2  A    between atoms: N_2  and  C_3
REMARK    3  A    between atoms: N_2  and  C_15
REMARK    4  A    between atoms: C_3  and  C_4
REMARK    5  A    between atoms: C_4  and  N_5
REMARK    6  A    between atoms: C_9  and  C_10
REMARK    7  A    between atoms: C_20  and  O_21
REMARK    8  A    between atoms: O_21  and  C_22
REMARK                            x       y       z     vdW  Elec       q    Type
REMARK                         _______ _______ _______ _____ _____    ______ ____
ROOT
ATOM      1  C   UNL     1      45.861   3.842  12.909  0.00  0.00    +0.000 C 
ATOM      2  N   UNL     1      45.078   5.047  12.637  0.00  0.00    +0.000 N 
ENDROOT
BRANCH   2   3
ATOM      3  C   UNL     1      45.752   6.261  12.456  0.00  0.00    +0.000 A 
ATOM      4  C   UNL     1      47.123   6.319  12.163  0.00  0.00    +0.000 A 
ATOM      5  C   UNL     1      47.792   7.538  11.993  0.00  0.00    +0.000 A 
ATOM      6  C   UNL     1      47.103   8.738  12.122  0.00  0.00    +0.000 A 
ATOM      7  F   UNL     1      47.770   9.882  11.927  0.00  0.00    +0.000 F 
ATOM      8  C   UNL     1      45.745   8.728  12.423  0.00  0.00    +0.000 A 
ATOM      9  C   UNL     1      45.091   7.501  12.561  0.00  0.00    +0.000 A 
BRANCH   8  10
ATOM     10  O   UNL     1      44.939   9.832  12.574  0.00  0.00    +0.000 OA
BRANCH  10  11
ATOM     11  C   UNL     1      44.526  10.572  11.402  0.00  0.00    +0.000 C 
ATOM     12  C   UNL     1      44.984  12.037  11.257  0.00  0.00    +0.000 C 
ATOM     13  N   UNL     1      43.597  12.466  11.023  0.00  0.00    +0.000 NA
ATOM     14  C   UNL     1      43.098  11.159  11.475  0.00  0.00    +0.000 C 
ATOM     15  H   UNL     1      43.386  12.672  10.046  0.00  0.00    +0.000 HD
ENDBRANCH  10  11
ENDBRANCH   8  10
ENDBRANCH   2   3
BRANCH   2  16
ATOM     16  C   UNL     1      43.622   4.977  12.373  0.00  0.00    +0.000 C 
BRANCH  16  17
ATOM     17  C   UNL     1      43.232   4.440  10.991  0.00  0.00    +0.000 C 
BRANCH  17  18
ATOM     18  N   UNL     1      44.057   5.005   9.912  0.00  0.00    +0.000 N 
ATOM     19  C   UNL     1      44.803   3.999   9.263  0.00  0.00    +0.000 A 
ATOM     20  C   UNL     1      45.631   4.346   8.202  0.00  0.00    +0.000 A 
ATOM     21  C   UNL     1      46.362   3.347   7.552  0.00  0.00    +0.000 A 
ATOM     22  C   UNL     1      46.255   2.021   7.974  0.00  0.00    +0.000 A 
ATOM     23  C   UNL     1      45.403   1.766   9.030  0.00  0.00    +0.000 A 
ATOM     24  N   UNL     1      44.682   2.716   9.668  0.00  0.00    +0.000 NA
ATOM     25  H   UNL     1      44.702   5.716  10.246  0.00  0.00    +0.000 HD
BRANCH  22  26
ATOM     26  C   UNL     1      47.036   0.965   7.295  0.00  0.00    +0.000 C 
ATOM     27  N   UNL     1      47.810   1.293   6.216  0.00  0.00    +0.000 N 
ATOM     28  O   UNL     1      46.999  -0.198   7.686  0.00  0.00    +0.000 OA
ATOM     29  H   UNL     1      47.925   2.212   5.815  0.00  0.00    +0.000 HD
ATOM     30  H   UNL     1      48.329   0.535   5.786  0.00  0.00    +0.000 HD
ENDBRANCH  22  26
ENDBRANCH  17  18
ENDBRANCH  16  17
ENDBRANCH   2  16
TORSDOF 7
ENDMDL
MODEL 3
REMARK VINA RESULT:    -7.500      1.264      1.704
REMARK INTER + INTRA:         -11.357
REMARK INTER:                 -10.617
REMARK INTRA:                  -0.741
REMARK UNBOUND:                -0.789
REMARK  Name = 
REMARK  8 active torsions:
REMARK  status: ('A' for Active; 'I' for Inactive)
REMARK    1  A    between atoms: C_1  and  N_2
REMARK    2  A    between atoms: N_2  and  C_3
REMARK    3  A    between atoms: N_2  and  C_15
REMARK    4  A    between atoms: C_3  and  C_4
REMARK    5  A    between atoms: C_4  and  N_5
REMARK    6  A    between atoms: C_9  and  C_10
REMARK    7  A    between atoms: C_20  and  O_21
REMARK    8  A    between atoms: O_21  and  C_22
REMARK                            x       y       z     vdW  Elec       q    Type
REMARK                         _______ _______ _______ _____ _____    ______ ____
ROOT
ATOM      1  C   UNL     1      44.560   7.967  11.353  0.00  0.00    +0.000 C 
ATOM      2  N   UNL     1      44.923   6.731  12.046  0.00  0.00    +0.000 N 
ENDROOT
BRANCH   2   3
ATOM      3  C   UNL     1      46.090   6.712  12.819  0.00  0.00    +0.000 A 
ATOM      4  C   UNL     1      47.030   7.753  12.782  0.00  0.00    +0.000 A 
ATOM      5  C   UNL     1      48.200   7.721  13.552  0.00  0.00    +0.000 A 
ATOM      6  C   UNL     1      48.465   6.635  14.377  0.00  0.00    +0.000 A 
ATOM      7  F   UNL     1      49.581   6.652  15.116  0.00  0.00    +0.000 F 
ATOM      8  C   UNL     1      47.567   5.574  14.436  0.00  0.00    +0.000 A 
ATOM      9  C   UNL     1      46.393   5.639  13.682  0.00  0.00    +0.000 A 
BRANCH   8  10
ATOM     10  O   UNL     1      47.696   4.444  15.207  0.00  0.00    +0.000 OA
BRANCH  10  11
ATOM     11  C   UNL     1      47.330   4.495  16.606  0.00  0.00    +0.000 C 
ATOM     12  C   UNL     1      48.429   4.798  17.643  0.00  0.00    +0.000 C 
ATOM     13  N   UNL     1      48.047   3.609  18.421  0.00  0.00    +0.000 NA
ATOM     14  C   UNL     1      47.229   3.119  17.302  0.00  0.00    +0.000 C 
ATOM     15  H   UNL     1      47.510   3.819  19.263  0.00  0.00    +0.000 HD
ENDBRANCH  10  11
ENDBRANCH   8  10
ENDBRANCH   2   3
BRANCH   2  16
ATOM     16  C   UNL     1      44.000   5.574  12.092  0.00  0.00    +0.000 C 
BRANCH  16  17
ATOM     17  C   UNL     1      43.579   5.017  10.727  0.00  0.00    +0.000 C 
BRANCH  17  18
ATOM     18  N   UNL     1      43.864   3.580  10.590  0.00  0.00    +0.000 N 
ATOM     19  C   UNL     1      44.715   3.334   9.494  0.00  0.00    +0.000 A 
ATOM     20  C   UNL     1      45.107   2.028   9.219  0.00  0.00    +0.000 A 
ATOM     21  C   UNL     1      45.961   1.786   8.139  0.00  0.00    +0.000 A 
ATOM     22  C   UNL     1      46.406   2.848   7.350  0.00  0.00    +0.000 A 
ATOM     23  C   UNL     1      45.972   4.112   7.700  0.00  0.00    +0.000 A 
ATOM     24  N   UNL     1      45.153   4.369   8.745  0.00  0.00    +0.000 NA
ATOM     25  H   UNL     1      43.021   3.025  10.472  0.00  0.00    +0.000 HD
BRANCH  22  26
ATOM     26  C   UNL     1      47.299   2.591   6.201  0.00  0.00    +0.000 C 
ATOM     27  N   UNL     1      48.648   2.503   6.407  0.00  0.00    +0.000 N 
ATOM     28  O   UNL     1      46.847   2.456   5.067  0.00  0.00    +0.000 OA
ATOM     29  H   UNL     1      49.128   2.586   7.290  0.00  0.00    +0.000 HD
ATOM     30  H   UNL     1      49.219   2.323   5.589  0.00  0.00    +0.000 HD
ENDBRANCH  22  26
ENDBRANCH  17  18
ENDBRANCH  16  17
ENDBRANCH   2  16
TORSDOF 7
ENDMDL
MODEL 4
REMARK VINA RESULT:    -7.226      2.679      3.376
REMARK INTER + INTRA:         -10.971
REMARK INTER:                 -10.155
REMARK INTRA:                  -0.816
REMARK UNBOUND:                -0.789
REMARK  Name = 
REMARK  8 active torsions:
REMARK  status: ('A' for Active; 'I' for Inactive)
REMARK    1  A    between atoms: C_1  and  N_2
REMARK    2  A    between atoms: N_2  and  C_3
REMARK    3  A    between atoms: N_2  and  C_15
REMARK    4  A    between atoms: C_3  and  C_4
REMARK    5  A    between atoms: C_4  and  N_5
REMARK    6  A    between atoms: C_9  and  C_10
REMARK    7  A    between atoms: C_20  and  O_21
REMARK    8  A    between atoms: O_21  and  C_22
REMARK                            x       y       z     vdW  Elec       q    Type
REMARK                         _______ _______ _______ _____ _____    ______ ____
ROOT
ATOM      1  C   UNL     1      45.806   4.242  12.898  0.00  0.00    +0.000 C 
ATOM      2  N   UNL     1      45.024   5.443  12.608  0.00  0.00    +0.000 N 
ENDROOT
BRANCH   2   3
ATOM      3  C   UNL     1      45.693   6.665  12.472  0.00  0.00    +0.000 A 
ATOM      4  C   UNL     1      45.051   7.897  12.674  0.00  0.00    +0.000 A 
ATOM      5  C   UNL     1      45.726   9.116  12.527  0.00  0.00    +0.000 A 
ATOM      6  C   UNL     1      47.068   9.133  12.164  0.00  0.00    +0.000 A 
ATOM      7  F   UNL     1      47.685  10.316  12.058  0.00  0.00    +0.000 F 
ATOM      8  C   UNL     1      47.741   7.936  11.943  0.00  0.00    +0.000 A 
ATOM      9  C   UNL     1      47.057   6.731  12.122  0.00  0.00    +0.000 A 
BRANCH   8  10
ATOM     10  O   UNL     1      49.062   7.803  11.586  0.00  0.00    +0.000 OA
BRANCH  10  11
ATOM     11  C   UNL     1      50.067   7.703  12.622  0.00  0.00    +0.000 C 
ATOM     12  C   UNL     1      49.613   7.748  14.095  0.00  0.00    +0.000 C 
ATOM     13  N   UNL     1      50.585   8.816  14.380  0.00  0.00    +0.000 NA
ATOM     14  C   UNL     1      50.804   9.024  12.941  0.00  0.00    +0.000 C 
ATOM     15  H   UNL     1      51.415   8.497  14.881  0.00  0.00    +0.000 HD
ENDBRANCH  10  11
ENDBRANCH   8  10
ENDBRANCH   2   3
BRANCH   2  16
ATOM     16  C   UNL     1      43.581   5.362  12.279  0.00  0.00    +0.000 C 
BRANCH  16  17
ATOM     17  C   UNL     1      43.251   4.696  10.938  0.00  0.00    +0.000 C 
BRANCH  17  18
ATOM     18  N   UNL     1      44.095   5.188   9.839  0.00  0.00    +0.000 N 
ATOM     19  C   UNL     1      44.810   4.134   9.237  0.00  0.00    +0.000 A 
ATOM     20  C   UNL     1      45.652   4.409   8.165  0.00  0.00    +0.000 A 
ATOM     21  C   UNL     1      46.352   3.361   7.560  0.00  0.00    +0.000 A 
ATOM     22  C   UNL     1      46.203   2.058   8.038  0.00  0.00    +0.000 A 
ATOM     23  C   UNL     1      45.342   1.874   9.101  0.00  0.00    +0.000 A 
ATOM     24  N   UNL     1      44.649   2.873   9.695  0.00  0.00    +0.000 NA
ATOM     25  H   UNL     1      44.761   5.893  10.145  0.00  0.00    +0.000 HD
BRANCH  22  26
ATOM     26  C   UNL     1      46.952   0.950   7.407  0.00  0.00    +0.000 C 
ATOM     27  N   UNL     1      47.806   1.222   6.373  0.00  0.00    +0.000 N 
ATOM     28  O   UNL     1      46.818  -0.206   7.797  0.00  0.00    +0.000 OA
ATOM     29  H   UNL     1      48.003   2.129   5.978  0.00  0.00    +0.000 HD
ATOM     30  H   UNL     1      48.299   0.430   5.975  0.00  0.00    +0.000 HD
ENDBRANCH  22  26
ENDBRANCH  17  18
ENDBRANCH  16  17
ENDBRANCH   2  16
TORSDOF 7
ENDMDL
MODEL 5
REMARK VINA RESULT:    -6.881      2.690      8.710
REMARK INTER + INTRA:         -10.486
REMARK INTER:                  -9.924
REMARK INTRA:                  -0.562
REMARK UNBOUND:                -0.789
REMARK  Name = 
REMARK  8 active torsions:
REMARK  status: ('A' for Active; 'I' for Inactive)
REMARK    1  A    between atoms: C_1  and  N_2
REMARK    2  A    between atoms: N_2  and  C_3
REMARK    3  A    between atoms: N_2  and  C_15
REMARK    4  A    between atoms: C_3  and  C_4
REMARK    5  A    between atoms: C_4  and  N_5
REMARK    6  A    between atoms: C_9  and  C_10
REMARK    7  A    between atoms: C_20  and  O_21
REMARK    8  A    between atoms: O_21  and  C_22
REMARK                            x       y       z     vdW  Elec       q    Type
REMARK                         _______ _______ _______ _____ _____    ______ ____
ROOT
ATOM      1  C   UNL     1      44.022   6.871  11.349  0.00  0.00    +0.000 C 
ATOM      2  N   UNL     1      45.176   5.981  11.223  0.00  0.00    +0.000 N 
ENDROOT
BRANCH   2   3
ATOM      3  C   UNL     1      45.013   4.759  10.560  0.00  0.00    +0.000 A 
ATOM      4  C   UNL     1      44.507   3.619  11.204  0.00  0.00    +0.000 A 
ATOM      5  C   UNL     1      44.356   2.398  10.535  0.00  0.00    +0.000 A 
ATOM      6  C   UNL     1      44.718   2.283   9.198  0.00  0.00    +0.000 A 
ATOM      7  F   UNL     1      44.535   1.107   8.586  0.00  0.00    +0.000 F 
ATOM      8  C   UNL     1      45.234   3.384   8.523  0.00  0.00    +0.000 A 
ATOM      9  C   UNL     1      45.351   4.600   9.201  0.00  0.00    +0.000 A 
BRANCH   8  10
ATOM     10  O   UNL     1      45.627   3.417   7.206  0.00  0.00    +0.000 OA
BRANCH  10  11
ATOM     11  C   UNL     1      47.015   3.178   6.875  0.00  0.00    +0.000 C 
ATOM     12  C   UNL     1      47.380   2.876   5.408  0.00  0.00    +0.000 C 
ATOM     13  N   UNL     1      48.109   1.667   5.819  0.00  0.00    +0.000 NA
ATOM     14  C   UNL     1      47.512   1.743   7.160  0.00  0.00    +0.000 C 
ATOM     15  H   UNL     1      49.124   1.773   5.814  0.00  0.00    +0.000 HD
ENDBRANCH  10  11
ENDBRANCH   8  10
ENDBRANCH   2   3
BRANCH   2  16
ATOM     16  C   UNL     1      46.535   6.420  11.617  0.00  0.00    +0.000 C 
BRANCH  16  17
ATOM     17  C   UNL     1      47.123   5.709  12.842  0.00  0.00    +0.000 C 
BRANCH  17  18
ATOM     18  N   UNL     1      47.962   6.596  13.662  0.00  0.00    +0.000 N 
ATOM     19  C   UNL     1      48.192   6.041  14.937  0.00  0.00    +0.000 A 
ATOM     20  C   UNL     1      48.981   6.736  15.847  0.00  0.00    +0.000 A 
ATOM     21  C   UNL     1      49.218   6.180  17.108  0.00  0.00    +0.000 A 
ATOM     22  C   UNL     1      48.661   4.944  17.440  0.00  0.00    +0.000 A 
ATOM     23  C   UNL     1      47.896   4.321  16.473  0.00  0.00    +0.000 A 
ATOM     24  N   UNL     1      47.661   4.838  15.245  0.00  0.00    +0.000 NA
ATOM     25  H   UNL     1      47.552   7.518  13.783  0.00  0.00    +0.000 HD
BRANCH  22  26
ATOM     26  C   UNL     1      48.900   4.361  18.777  0.00  0.00    +0.000 C 
ATOM     27  N   UNL     1      48.278   3.192  19.120  0.00  0.00    +0.000 N 
ATOM     28  O   UNL     1      49.649   4.910  19.581  0.00  0.00    +0.000 OA
ATOM     29  H   UNL     1      47.654   2.651  18.541  0.00  0.00    +0.000 HD
ATOM     30  H   UNL     1      48.476   2.830  20.046  0.00  0.00    +0.000 HD
ENDBRANCH  22  26
ENDBRANCH  17  18
ENDBRANCH  16  17
ENDBRANCH   2  16
TORSDOF 7
ENDMDL
MODEL 6
REMARK VINA RESULT:    -6.524      3.583      5.878
REMARK INTER + INTRA:          -9.982
REMARK INTER:                  -9.252
REMARK INTRA:                  -0.730
REMARK UNBOUND:                -0.789
REMARK  Name = 
REMARK  8 active torsions:
REMARK  status: ('A' for Active; 'I' for Inactive)
REMARK    1  A    between atoms: C_1  and  N_2
REMARK    2  A    between atoms: N_2  and  C_3
REMARK    3  A    between atoms: N_2  and  C_15
REMARK    4  A    between atoms: C_3  and  C_4
REMARK    5  A    between atoms: C_4  and  N_5
REMARK    6  A    between atoms: C_9  and  C_10
REMARK    7  A    between atoms: C_20  and  O_21
REMARK    8  A    between atoms: O_21  and  C_22
REMARK                            x       y       z     vdW  Elec       q    Type
REMARK                         _______ _______ _______ _____ _____    ______ ____
ROOT
ATOM      1  C   UNL     1      47.415   6.016  18.868  0.00  0.00    +0.000 C 
ATOM      2  N   UNL     1      48.029   5.100  17.907  0.00  0.00    +0.000 N 
ENDROOT
BRANCH   2   3
ATOM      3  C   UNL     1      49.406   5.195  17.672  0.00  0.00    +0.000 A 
ATOM      4  C   UNL     1      49.964   6.230  16.906  0.00  0.00    +0.000 A 
ATOM      5  C   UNL     1      51.342   6.313  16.668  0.00  0.00    +0.000 A 
ATOM      6  C   UNL     1      52.201   5.351  17.187  0.00  0.00    +0.000 A 
ATOM      7  F   UNL     1      53.514   5.478  16.959  0.00  0.00    +0.000 F 
ATOM      8  C   UNL     1      51.689   4.302  17.943  0.00  0.00    +0.000 A 
ATOM      9  C   UNL     1      50.316   4.253  18.192  0.00  0.00    +0.000 A 
BRANCH   8  10
ATOM     10  O   UNL     1      52.417   3.288  18.519  0.00  0.00    +0.000 OA
BRANCH  10  11
ATOM     11  C   UNL     1      52.758   2.125  17.730  0.00  0.00    +0.000 C 
ATOM     12  C   UNL     1      51.783   0.930  17.721  0.00  0.00    +0.000 C 
ATOM     13  N   UNL     1      52.878   0.011  18.071  0.00  0.00    +0.000 NA
ATOM     14  C   UNL     1      53.747   1.148  18.406  0.00  0.00    +0.000 C 
ATOM     15  H   UNL     1      53.215  -0.549  17.288  0.00  0.00    +0.000 HD
ENDBRANCH  10  11
ENDBRANCH   8  10
ENDBRANCH   2   3
BRANCH   2  16
ATOM     16  C   UNL     1      47.267   3.972  17.322  0.00  0.00    +0.000 C 
BRANCH  16  17
ATOM     17  C   UNL     1      47.354   3.844  15.796  0.00  0.00    +0.000 C 
BRANCH  17  18
ATOM     18  N   UNL     1      46.928   5.068  15.101  0.00  0.00    +0.000 N 
ATOM     19  C   UNL     1      46.266   4.762  13.895  0.00  0.00    +0.000 A 
ATOM     20  C   UNL     1      45.777   5.799  13.108  0.00  0.00    +0.000 A 
ATOM     21  C   UNL     1      45.110   5.494  11.917  0.00  0.00    +0.000 A 
ATOM     22  C   UNL     1      44.946   4.163  11.531  0.00  0.00    +0.000 A 
ATOM     23  C   UNL     1      45.458   3.199  12.377  0.00  0.00    +0.000 A 
ATOM     24  N   UNL     1      46.099   3.471  13.537  0.00  0.00    +0.000 NA
ATOM     25  H   UNL     1      47.706   5.688  14.891  0.00  0.00    +0.000 HD
BRANCH  22  26
ATOM     26  C   UNL     1      44.252   3.841  10.267  0.00  0.00    +0.000 C 
ATOM     27  N   UNL     1      44.077   4.822   9.330  0.00  0.00    +0.000 N 
ATOM     28  O   UNL     1      43.833   2.708  10.047  0.00  0.00    +0.000 OA
ATOM     29  H   UNL     1      44.386   5.780   9.396  0.00  0.00    +0.000 HD
ATOM     30  H   UNL     1      43.598   4.552   8.478  0.00  0.00    +0.000 HD
ENDBRANCH  22  26
ENDBRANCH  17  18
ENDBRANCH  16  17
ENDBRANCH   2  16
TORSDOF 7
ENDMDL
MODEL 7
REMARK VINA RESULT:    -6.464      2.431      3.051
REMARK INTER + INTRA:          -9.898
REMARK INTER:                  -9.301
REMARK INTRA:                  -0.598
REMARK UNBOUND:                -0.789
REMARK  Name = 
REMARK  8 active torsions:
REMARK  status: ('A' for Active; 'I' for Inactive)
REMARK    1  A    between atoms: C_1  and  N_2
REMARK    2  A    between atoms: N_2  and  C_3
REMARK    3  A    between atoms: N_2  and  C_15
REMARK    4  A    between atoms: C_3  and  C_4
REMARK    5  A    between atoms: C_4  and  N_5
REMARK    6  A    between atoms: C_9  and  C_10
REMARK    7  A    between atoms: C_20  and  O_21
REMARK    8  A    between atoms: O_21  and  C_22
REMARK                            x       y       z     vdW  Elec       q    Type
REMARK                         _______ _______ _______ _____ _____    ______ ____
ROOT
ATOM      1  C   UNL     1      46.212   6.608  10.838  0.00  0.00    +0.000 C 
ATOM      2  N   UNL     1      45.612   5.879  11.954  0.00  0.00    +0.000 N 
ENDROOT
BRANCH   2   3
ATOM      3  C   UNL     1      46.382   5.654  13.102  0.00  0.00    +0.000 A 
ATOM      4  C   UNL     1      46.189   4.534  13.926  0.00  0.00    +0.000 A 
ATOM      5  C   UNL     1      46.957   4.321  15.077  0.00  0.00    +0.000 A 
ATOM      6  C   UNL     1      47.940   5.234  15.441  0.00  0.00    +0.000 A 
ATOM      7  F   UNL     1      48.670   4.984  16.534  0.00  0.00    +0.000 F 
ATOM      8  C   UNL     1      48.158   6.364  14.660  0.00  0.00    +0.000 A 
ATOM      9  C   UNL     1      47.400   6.543  13.501  0.00  0.00    +0.000 A 
BRANCH   8  10
ATOM     10  O   UNL     1      49.094   7.344  14.895  0.00  0.00    +0.000 OA
BRANCH  10  11
ATOM     11  C   UNL     1      49.054   8.076  16.142  0.00  0.00    +0.000 C 
ATOM     12  C   UNL     1      48.432   9.487  16.147  0.00  0.00    +0.000 C 
ATOM     13  N   UNL     1      49.632  10.033  16.800  0.00  0.00    +0.000 NA
ATOM     14  C   UNL     1      50.370   8.794  16.517  0.00  0.00    +0.000 C 
ATOM     15  H   UNL     1      49.512  10.222  17.796  0.00  0.00    +0.000 HD
ENDBRANCH  10  11
ENDBRANCH   8  10
ENDBRANCH   2   3
BRANCH   2  16
ATOM     16  C   UNL     1      44.171   5.536  11.966  0.00  0.00    +0.000 C 
BRANCH  16  17
ATOM     17  C   UNL     1      43.623   4.965  10.653  0.00  0.00    +0.000 C 
BRANCH  17  18
ATOM     18  N   UNL     1      43.860   3.519  10.524  0.00  0.00    +0.000 N 
ATOM     19  C   UNL     1      44.778   3.245   9.489  0.00  0.00    +0.000 A 
ATOM     20  C   UNL     1      45.137   1.927   9.231  0.00  0.00    +0.000 A 
ATOM     21  C   UNL     1      46.056   1.658   8.213  0.00  0.00    +0.000 A 
ATOM     22  C   UNL     1      46.598   2.707   7.468  0.00  0.00    +0.000 A 
ATOM     23  C   UNL     1      46.191   3.984   7.798  0.00  0.00    +0.000 A 
ATOM     24  N   UNL     1      45.309   4.268   8.784  0.00  0.00    +0.000 NA
ATOM     25  H   UNL     1      43.006   2.999  10.340  0.00  0.00    +0.000 HD
BRANCH  22  26
ATOM     26  C   UNL     1      47.561   2.422   6.384  0.00  0.00    +0.000 C 
ATOM     27  N   UNL     1      47.394   3.022   5.165  0.00  0.00    +0.000 N 
ATOM     28  O   UNL     1      48.505   1.657   6.561  0.00  0.00    +0.000 OA
ATOM     29  H   UNL     1      46.666   3.672   4.909  0.00  0.00    +0.000 HD
ATOM     30  H   UNL     1      48.081   2.797   4.454  0.00  0.00    +0.000 HD
ENDBRANCH  22  26
ENDBRANCH  17  18
ENDBRANCH  16  17
ENDBRANCH   2  16
TORSDOF 7
ENDMDL
MODEL 8
REMARK VINA RESULT:    -6.453      4.285      7.915
REMARK INTER + INTRA:          -9.882
REMARK INTER:                  -8.496
REMARK INTRA:                  -1.386
REMARK UNBOUND:                -0.789
REMARK  Name = 
REMARK  8 active torsions:
REMARK  status: ('A' for Active; 'I' for Inactive)
REMARK    1  A    between atoms: C_1  and  N_2
REMARK    2  A    between atoms: N_2  and  C_3
REMARK    3  A    between atoms: N_2  and  C_15
REMARK    4  A    between atoms: C_3  and  C_4
REMARK    5  A    between atoms: C_4  and  N_5
REMARK    6  A    between atoms: C_9  and  C_10
REMARK    7  A    between atoms: C_20  and  O_21
REMARK    8  A    between atoms: O_21  and  C_22
REMARK                            x       y       z     vdW  Elec       q    Type
REMARK                         _______ _______ _______ _____ _____    ______ ____
ROOT
ATOM      1  C   UNL     1      50.604   9.238  17.154  0.00  0.00    +0.000 C 
ATOM      2  N   UNL     1      49.209   9.039  16.760  0.00  0.00    +0.000 N 
ENDROOT
BRANCH   2   3
ATOM      3  C   UNL     1      48.928   8.698  15.432  0.00  0.00    +0.000 A 
ATOM      4  C   UNL     1      48.836   9.660  14.414  0.00  0.00    +0.000 A 
ATOM      5  C   UNL     1      48.545   9.311  13.089  0.00  0.00    +0.000 A 
ATOM      6  C   UNL     1      48.329   7.981  12.748  0.00  0.00    +0.000 A 
ATOM      7  F   UNL     1      48.078   7.684  11.467  0.00  0.00    +0.000 F 
ATOM      8  C   UNL     1      48.399   6.995  13.726  0.00  0.00    +0.000 A 
ATOM      9  C   UNL     1      48.718   7.361  15.036  0.00  0.00    +0.000 A 
BRANCH   8  10
ATOM     10  O   UNL     1      48.213   5.647  13.533  0.00  0.00    +0.000 OA
BRANCH  10  11
ATOM     11  C   UNL     1      47.023   5.013  14.058  0.00  0.00    +0.000 C 
ATOM     12  C   UNL     1      46.800   3.515  13.772  0.00  0.00    +0.000 C 
ATOM     13  N   UNL     1      45.448   3.795  13.264  0.00  0.00    +0.000 NA
ATOM     14  C   UNL     1      45.746   5.233  13.217  0.00  0.00    +0.000 C 
ATOM     15  H   UNL     1      44.702   3.550  13.916  0.00  0.00    +0.000 HD
ENDBRANCH  10  11
ENDBRANCH   8  10
ENDBRANCH   2   3
BRANCH   2  16
ATOM     16  C   UNL     1      48.120   9.015  17.764  0.00  0.00    +0.000 C 
BRANCH  16  17
ATOM     17  C   UNL     1      48.203   7.880  18.793  0.00  0.00    +0.000 C 
BRANCH  17  18
ATOM     18  N   UNL     1      47.258   6.789  18.508  0.00  0.00    +0.000 N 
ATOM     19  C   UNL     1      47.938   5.620  18.111  0.00  0.00    +0.000 A 
ATOM     20  C   UNL     1      47.205   4.476  17.816  0.00  0.00    +0.000 A 
ATOM     21  C   UNL     1      47.881   3.313  17.434  0.00  0.00    +0.000 A 
ATOM     22  C   UNL     1      49.274   3.312  17.351  0.00  0.00    +0.000 A 
ATOM     23  C   UNL     1      49.921   4.490  17.669  0.00  0.00    +0.000 A 
ATOM     24  N   UNL     1      49.288   5.624  18.048  0.00  0.00    +0.000 NA
ATOM     25  H   UNL     1      46.590   7.032  17.782  0.00  0.00    +0.000 HD
BRANCH  22  26
ATOM     26  C   UNL     1      49.989   2.087  16.936  0.00  0.00    +0.000 C 
ATOM     27  N   UNL     1      50.887   1.512  17.793  0.00  0.00    +0.000 N 
ATOM     28  O   UNL     1      49.787   1.579  15.836  0.00  0.00    +0.000 OA
ATOM     29  H   UNL     1      51.125   1.833  18.719  0.00  0.00    +0.000 HD
ATOM     30  H   UNL     1      51.350   0.672  17.464  0.00  0.00    +0.000 HD
ENDBRANCH  22  26
ENDBRANCH  17  18
ENDBRANCH  16  17
ENDBRANCH   2  16
TORSDOF 7
ENDMDL
MODEL 9
REMARK VINA RESULT:    -6.437      3.260      5.350
REMARK INTER + INTRA:          -9.859
REMARK INTER:                  -9.065
REMARK INTRA:                  -0.794
REMARK UNBOUND:                -0.789
REMARK  Name = 
REMARK  8 active torsions:
REMARK  status: ('A' for Active; 'I' for Inactive)
REMARK    1  A    between atoms: C_1  and  N_2
REMARK    2  A    between atoms: N_2  and  C_3
REMARK    3  A    between atoms: N_2  and  C_15
REMARK    4  A    between atoms: C_3  and  C_4
REMARK    5  A    between atoms: C_4  and  N_5
REMARK    6  A    between atoms: C_9  and  C_10
REMARK    7  A    between atoms: C_20  and  O_21
REMARK    8  A    between atoms: O_21  and  C_22
REMARK                            x       y       z     vdW  Elec       q    Type
REMARK                         _______ _______ _______ _____ _____    ______ ____
ROOT
ATOM      1  C   UNL     1      50.476   9.422  13.622  0.00  0.00    +0.000 C 
ATOM      2  N   UNL     1      49.721   8.491  14.460  0.00  0.00    +0.000 N 
ENDROOT
BRANCH   2   3
ATOM      3  C   UNL     1      50.425   7.611  15.290  0.00  0.00    +0.000 A 
ATOM      4  C   UNL     1      51.820   7.671  15.433  0.00  0.00    +0.000 A 
ATOM      5  C   UNL     1      52.519   6.781  16.258  0.00  0.00    +0.000 A 
ATOM      6  C   UNL     1      51.835   5.795  16.960  0.00  0.00    +0.000 A 
ATOM      7  F   UNL     1      52.533   4.979  17.759  0.00  0.00    +0.000 F 
ATOM      8  C   UNL     1      50.453   5.691  16.840  0.00  0.00    +0.000 A 
ATOM      9  C   UNL     1      49.773   6.607  16.033  0.00  0.00    +0.000 A 
BRANCH   8  10
ATOM     10  O   UNL     1      49.650   4.774  17.475  0.00  0.00    +0.000 OA
BRANCH  10  11
ATOM     11  C   UNL     1      48.315   4.534  16.973  0.00  0.00    +0.000 C 
ATOM     12  C   UNL     1      47.137   4.571  17.968  0.00  0.00    +0.000 C 
ATOM     13  N   UNL     1      46.676   3.255  17.499  0.00  0.00    +0.000 NA
ATOM     14  C   UNL     1      47.947   3.044  16.790  0.00  0.00    +0.000 C 
ATOM     15  H   UNL     1      45.864   3.296  16.884  0.00  0.00    +0.000 HD
ENDBRANCH  10  11
ENDBRANCH   8  10
ENDBRANCH   2   3
BRANCH   2  16
ATOM     16  C   UNL     1      48.247   8.583  14.581  0.00  0.00    +0.000 C 
BRANCH  16  17
ATOM     17  C   UNL     1      47.453   7.811  13.520  0.00  0.00    +0.000 C 
BRANCH  17  18
ATOM     18  N   UNL     1      46.983   6.505  14.005  0.00  0.00    +0.000 N 
ATOM     19  C   UNL     1      46.308   5.799  12.989  0.00  0.00    +0.000 A 
ATOM     20  C   UNL     1      45.805   4.532  13.263  0.00  0.00    +0.000 A 
ATOM     21  C   UNL     1      45.145   3.827  12.251  0.00  0.00    +0.000 A 
ATOM     22  C   UNL     1      44.996   4.400  10.987  0.00  0.00    +0.000 A 
ATOM     23  C   UNL     1      45.532   5.659  10.802  0.00  0.00    +0.000 A 
ATOM     24  N   UNL     1      46.181   6.355  11.764  0.00  0.00    +0.000 NA
ATOM     25  H   UNL     1      46.362   6.587  14.806  0.00  0.00    +0.000 HD
BRANCH  22  26
ATOM     26  C   UNL     1      44.288   3.661   9.920  0.00  0.00    +0.000 C 
ATOM     27  N   UNL     1      44.040   4.282   8.726  0.00  0.00    +0.000 N 
ATOM     28  O   UNL     1      43.921   2.502  10.091  0.00  0.00    +0.000 OA
ATOM     29  H   UNL     1      44.302   5.221   8.471  0.00  0.00    +0.000 HD
ATOM     30  H   UNL     1      43.555   3.733   8.025  0.00  0.00    +0.000 HD
ENDBRANCH  22  26
ENDBRANCH  17  18
ENDBRANCH  16  17
ENDBRANCH   2  16
TORSDOF 7
ENDMDL
