MODEL 1
REMARK VINA RESULT:    -8.408      0.000      0.000
REMARK INTER + INTRA:         -11.462
REMARK INTER:                 -10.866
REMARK INTRA:                  -0.596
REMARK UNBOUND:                -0.596
REMARK  Name = 
REMARK  6 active torsions:
REMARK  status: ('A' for Active; 'I' for Inactive)
REMARK    1  A    between atoms: C_1  and  C_2
REMARK    2  A    between atoms: C_5  and  C_6
REMARK    3  A    between atoms: C_6  and  C_7
REMARK    4  A    between atoms: C_7  and  N_8
REMARK    5  A    between atoms: C_12  and  C_13
REMARK    6  A    between atoms: C_19  and  C_20
REMARK                            x       y       z     vdW  Elec       q    Type
REMARK                         _______ _______ _______ _____ _____    ______ ____
ROOT
ATOM      1  C   UNL     1      43.193   5.470  12.247  0.00  0.00    +0.000 C 
ENDROOT
BRANCH   1   6
ATOM      2  C   UNL     1      48.638   6.596  14.035  0.00  0.00    +0.000 C 
ATOM      3  C   UNL     1      47.263   6.366  13.457  0.00  0.00    +0.000 A 
ATOM      4  C   UNL     1      46.653   5.136  13.783  0.00  0.00    +0.000 A 
ATOM      5  C   UNL     1      45.351   4.836  13.387  0.00  0.00    +0.000 A 
ATOM      6  C   UNL     1      44.623   5.759  12.644  0.00  0.00    +0.000 A 
ATOM      7  C   UNL     1      45.251   6.956  12.256  0.00  0.00    +0.000 A 
ATOM      8  C   UNL     1      46.573   7.305  12.643  0.00  0.00    +0.000 A 
BRANCH   8   9
ATOM      9  C   UNL     1      47.131   8.624  12.200  0.00  0.00    +0.000 A 
ATOM     10  C   UNL     1      46.332   9.787  12.170  0.00  0.00    +0.000 A 
ATOM     11  C   UNL     1      46.832  11.025  11.744  0.00  0.00    +0.000 A 
ATOM     12  C   UNL     1      48.164  11.150  11.373  0.00  0.00    +0.000 A 
ATOM     13  C   UNL     1      48.981  10.029  11.389  0.00  0.00    +0.000 A 
ATOM     14  C   UNL     1      48.458   8.783  11.760  0.00  0.00    +0.000 A 
ENDBRANCH   8   9
ENDBRANCH   1   6
BRANCH   1  15
ATOM     15  C   UNL     1      43.110   4.534  11.042  0.00  0.00    +0.000 C 
BRANCH  15  16
ATOM     16  N   UNL     1      43.916   5.041   9.922  0.00  0.00    +0.000 N 
ATOM     17  C   UNL     1      44.674   4.032   9.298  0.00  0.00    +0.000 A 
ATOM     18  C   UNL     1      45.491   4.361   8.222  0.00  0.00    +0.000 A 
ATOM     19  C   UNL     1      46.242   3.362   7.596  0.00  0.00    +0.000 A 
ATOM     20  C   UNL     1      46.163   2.046   8.056  0.00  0.00    +0.000 A 
ATOM     21  C   UNL     1      45.316   1.807   9.120  0.00  0.00    +0.000 A 
ATOM     22  N   UNL     1      44.578   2.758   9.739  0.00  0.00    +0.000 NA
ATOM     23  H   UNL     1      44.546   5.787  10.206  0.00  0.00    +0.000 HD
BRANCH  20  24
ATOM     24  C   UNL     1      46.977   0.987   7.412  0.00  0.00    +0.000 C 
ATOM     25  N   UNL     1      47.917   1.341   6.486  0.00  0.00    +0.000 N 
ATOM     26  O   UNL     1      46.821  -0.193   7.707  0.00  0.00    +0.000 OA
ATOM     27  H   UNL     1      48.126   2.273   6.171  0.00  0.00    +0.000 HD
ATOM     28  H   UNL     1      48.444   0.583   6.069  0.00  0.00    +0.000 HD
ENDBRANCH  20  24
ENDBRANCH  15  16
ENDBRANCH   1  15
TORSDOF 5
ENDMDL
MODEL 2
REMARK VINA RESULT:    -8.338      1.930      3.981
REMARK INTER + INTRA:         -11.371
REMARK INTER:                 -10.660
REMARK INTRA:                  -0.712
REMARK UNBOUND:                -0.596
REMARK  Name = 
REMARK  6 active torsions:
REMARK  status: ('A' for Active; 'I' for Inactive)
REMARK    1  A    between atoms: C_1  and  C_2
REMARK    2  A    between atoms: C_5  and  C_6
REMARK    3  A    between atoms: C_6  and  C_7
REMARK    4  A    between atoms: C_7  and  N_8
REMARK    5  A    between atoms: C_12  and  C_13
REMARK    6  A    between atoms: C_19  and  C_20
REMARK                            x       y       z     vdW  Elec       q    Type
REMARK                         _______ _______ _______ _____ _____    ______ ____
ROOT
ATOM      1  C   UNL     1      43.609   5.255  11.974  0.00  0.00    +0.000 C 
ENDROOT
BRANCH   1   6
ATOM      2  C   UNL     1      49.115   6.914  12.995  0.00  0.00    +0.000 C 
ATOM      3  C   UNL     1      47.672   6.493  12.864  0.00  0.00    +0.000 A 
ATOM      4  C   UNL     1      46.979   6.995  11.742  0.00  0.00    +0.000 A 
ATOM      5  C   UNL     1      45.670   6.613  11.458  0.00  0.00    +0.000 A 
ATOM      6  C   UNL     1      45.012   5.719  12.295  0.00  0.00    +0.000 A 
ATOM      7  C   UNL     1      45.672   5.270  13.452  0.00  0.00    +0.000 A 
ATOM      8  C   UNL     1      47.008   5.629  13.777  0.00  0.00    +0.000 A 
BRANCH   8   9
ATOM      9  C   UNL     1      47.625   5.064  15.021  0.00  0.00    +0.000 A 
ATOM     10  C   UNL     1      47.409   3.723  15.405  0.00  0.00    +0.000 A 
ATOM     11  C   UNL     1      47.965   3.181  16.572  0.00  0.00    +0.000 A 
ATOM     12  C   UNL     1      48.793   3.954  17.374  0.00  0.00    +0.000 A 
ATOM     13  C   UNL     1      49.029   5.278  17.030  0.00  0.00    +0.000 A 
ATOM     14  C   UNL     1      48.423   5.828  15.893  0.00  0.00    +0.000 A 
ENDBRANCH   8   9
ENDBRANCH   1   6
BRANCH   1  15
ATOM     15  C   UNL     1      43.480   4.772  10.530  0.00  0.00    +0.000 C 
BRANCH  15  16
ATOM     16  N   UNL     1      43.876   3.362  10.407  0.00  0.00    +0.000 N 
ATOM     17  C   UNL     1      44.766   3.139   9.339  0.00  0.00    +0.000 A 
ATOM     18  C   UNL     1      45.227   1.849   9.095  0.00  0.00    +0.000 A 
ATOM     19  C   UNL     1      46.114   1.624   8.038  0.00  0.00    +0.000 A 
ATOM     20  C   UNL     1      46.528   2.693   7.242  0.00  0.00    +0.000 A 
ATOM     21  C   UNL     1      46.031   3.941   7.564  0.00  0.00    +0.000 A 
ATOM     22  N   UNL     1      45.175   4.182   8.583  0.00  0.00    +0.000 NA
ATOM     23  H   UNL     1      43.076   2.744  10.294  0.00  0.00    +0.000 HD
BRANCH  20  24
ATOM     24  C   UNL     1      47.449   2.455   6.104  0.00  0.00    +0.000 C 
ATOM     25  N   UNL     1      48.797   2.546   6.309  0.00  0.00    +0.000 N 
ATOM     26  O   UNL     1      47.016   2.169   4.993  0.00  0.00    +0.000 OA
ATOM     27  H   UNL     1      49.257   2.773   7.175  0.00  0.00    +0.000 HD
ATOM     28  H   UNL     1      49.386   2.382   5.502  0.00  0.00    +0.000 HD
ENDBRANCH  20  24
ENDBRANCH  15  16
ENDBRANCH   1  15
TORSDOF 5
ENDMDL
MODEL 3
REMARK VINA RESULT:    -7.551      3.742      7.438
REMARK INTER + INTRA:         -10.354
REMARK INTER:                  -9.720
REMARK INTRA:                  -0.633
REMARK UNBOUND:                -0.596
REMARK  Name = 
REMARK  6 active torsions:
REMARK  status: ('A' for Active; 'I' for Inactive)
REMARK    1  A    between atoms: C_1  and  C_2
REMARK    2  A    between atoms: C_5  and  C_6
REMARK    3  A    between atoms: C_6  and  C_7
REMARK    4  A    between atoms: C_7  and  N_8
REMARK    5  A    between atoms: C_12  and  C_13
REMARK    6  A    between atoms: C_19  and  C_20
REMARK                            x       y       z     vdW  Elec       q    Type
REMARK                         _______ _______ _______ _____ _____    ______ ____
ROOT
ATOM      1  C   UNL     1      47.427   8.036  12.180  0.00  0.00    +0.000 C 
ENDROOT
BRANCH   1   6
ATOM      2  C   UNL     1      42.920   4.403  11.408  0.00  0.00    +0.000 C 
ATOM      3  C   UNL     1      44.101   5.340  11.474  0.00  0.00    +0.000 A 
ATOM      4  C   UNL     1      44.019   6.373  12.432  0.00  0.00    +0.000 A 
ATOM      5  C   UNL     1      45.078   7.251  12.655  0.00  0.00    +0.000 A 
ATOM      6  C   UNL     1      46.250   7.124  11.917  0.00  0.00    +0.000 A 
ATOM      7  C   UNL     1      46.311   6.142  10.913  0.00  0.00    +0.000 A 
ATOM      8  C   UNL     1      45.258   5.222  10.657  0.00  0.00    +0.000 A 
BRANCH   8   9
ATOM      9  C   UNL     1      45.444   4.193   9.582  0.00  0.00    +0.000 A 
ATOM     10  C   UNL     1      45.183   2.827   9.821  0.00  0.00    +0.000 A 
ATOM     11  C   UNL     1      45.366   1.848   8.833  0.00  0.00    +0.000 A 
ATOM     12  C   UNL     1      45.775   2.212   7.558  0.00  0.00    +0.000 A 
ATOM     13  C   UNL     1      46.042   3.546   7.285  0.00  0.00    +0.000 A 
ATOM     14  C   UNL     1      45.913   4.510   8.294  0.00  0.00    +0.000 A 
ENDBRANCH   8   9
ENDBRANCH   1   6
BRANCH   1  15
ATOM     15  C   UNL     1      48.699   7.253  12.504  0.00  0.00    +0.000 C 
BRANCH  15  16
ATOM     16  N   UNL     1      49.168   7.548  13.865  0.00  0.00    +0.000 N 
ATOM     17  C   UNL     1      48.736   6.595  14.807  0.00  0.00    +0.000 A 
ATOM     18  C   UNL     1      49.099   6.743  16.142  0.00  0.00    +0.000 A 
ATOM     19  C   UNL     1      48.676   5.796  17.080  0.00  0.00    +0.000 A 
ATOM     20  C   UNL     1      47.896   4.714  16.667  0.00  0.00    +0.000 A 
ATOM     21  C   UNL     1      47.595   4.639  15.322  0.00  0.00    +0.000 A 
ATOM     22  N   UNL     1      47.996   5.541  14.397  0.00  0.00    +0.000 NA
ATOM     23  H   UNL     1      48.878   8.470  14.183  0.00  0.00    +0.000 HD
BRANCH  20  24
ATOM     24  C   UNL     1      47.424   3.721  17.662  0.00  0.00    +0.000 C 
ATOM     25  N   UNL     1      48.018   3.677  18.892  0.00  0.00    +0.000 N 
ATOM     26  O   UNL     1      46.506   2.952  17.397  0.00  0.00    +0.000 OA
ATOM     27  H   UNL     1      48.775   4.258  19.213  0.00  0.00    +0.000 HD
ATOM     28  H   UNL     1      47.667   2.979  19.537  0.00  0.00    +0.000 HD
ENDBRANCH  20  24
ENDBRANCH  15  16
ENDBRANCH   1  15
TORSDOF 5
ENDMDL
MODEL 4
REMARK VINA RESULT:    -7.297      1.656      2.833
REMARK INTER + INTRA:         -10.026
REMARK INTER:                  -9.131
REMARK INTRA:                  -0.895
REMARK UNBOUND:                -0.596
REMARK  Name = 
REMARK  6 active torsions:
REMARK  status: ('A' for Active; 'I' for Inactive)
REMARK    1  A    between atoms: C_1  and  C_2
REMARK    2  A    between atoms: C_5  and  C_6
REMARK    3  A    between atoms: C_6  and  C_7
REMARK    4  A    between atoms: C_7  and  N_8
REMARK    5  A    between atoms: C_12  and  C_13
REMARK    6  A    between atoms: C_19  and  C_20
REMARK                            x       y       z     vdW  Elec       q    Type
REMARK                         _______ _______ _______ _____ _____    ______ ____
ROOT
ATOM      1  C   UNL     1      44.665   5.461  12.191  0.00  0.00    +0.000 C 
ENDROOT
BRANCH   1   6
ATOM      2  C   UNL     1      46.986  10.793  11.651  0.00  0.00    +0.000 C 
ATOM      3  C   UNL     1      46.471   9.396  11.894  0.00  0.00    +0.000 A 
ATOM      4  C   UNL     1      45.084   9.208  11.715  0.00  0.00    +0.000 A 
ATOM      5  C   UNL     1      44.495   7.950  11.822  0.00  0.00    +0.000 A 
ATOM      6  C   UNL     1      45.279   6.841  12.119  0.00  0.00    +0.000 A 
ATOM      7  C   UNL     1      46.650   7.033  12.368  0.00  0.00    +0.000 A 
ATOM      8  C   UNL     1      47.292   8.296  12.263  0.00  0.00    +0.000 A 
BRANCH   8   9
ATOM      9  C   UNL     1      48.767   8.380  12.518  0.00  0.00    +0.000 A 
ATOM     10  C   UNL     1      49.275   8.679  13.801  0.00  0.00    +0.000 A 
ATOM     11  C   UNL     1      50.651   8.776  14.055  0.00  0.00    +0.000 A 
ATOM     12  C   UNL     1      51.567   8.534  13.040  0.00  0.00    +0.000 A 
ATOM     13  C   UNL     1      51.106   8.237  11.765  0.00  0.00    +0.000 A 
ATOM     14  C   UNL     1      49.728   8.199  11.507  0.00  0.00    +0.000 A 
ENDBRANCH   8   9
ENDBRANCH   1   6
BRANCH   1  15
ATOM     15  C   UNL     1      43.911   5.102  10.911  0.00  0.00    +0.000 C 
BRANCH  15  16
ATOM     16  N   UNL     1      44.029   3.667  10.614  0.00  0.00    +0.000 N 
ATOM     17  C   UNL     1      44.858   3.408   9.505  0.00  0.00    +0.000 A 
ATOM     18  C   UNL     1      45.063   2.094   9.100  0.00  0.00    +0.000 A 
ATOM     19  C   UNL     1      45.889   1.833   8.002  0.00  0.00    +0.000 A 
ATOM     20  C   UNL     1      46.498   2.891   7.327  0.00  0.00    +0.000 A 
ATOM     21  C   UNL     1      46.250   4.163   7.806  0.00  0.00    +0.000 A 
ATOM     22  N   UNL     1      45.458   4.438   8.867  0.00  0.00    +0.000 NA
ATOM     23  H   UNL     1      43.126   3.230  10.449  0.00  0.00    +0.000 HD
BRANCH  20  24
ATOM     24  C   UNL     1      47.354   2.621   6.147  0.00  0.00    +0.000 C 
ATOM     25  N   UNL     1      48.709   2.550   6.310  0.00  0.00    +0.000 N 
ATOM     26  O   UNL     1      46.861   2.453   5.037  0.00  0.00    +0.000 OA
ATOM     27  H   UNL     1      49.216   2.673   7.171  0.00  0.00    +0.000 HD
ATOM     28  H   UNL     1      49.254   2.370   5.475  0.00  0.00    +0.000 HD
ENDBRANCH  20  24
ENDBRANCH  15  16
ENDBRANCH   1  15
TORSDOF 5
ENDMDL
MODEL 5
REMARK VINA RESULT:    -7.205      3.638      7.515
REMARK INTER + INTRA:          -9.907
REMARK INTER:                  -9.244
REMARK INTRA:                  -0.664
REMARK UNBOUND:                -0.596
REMARK  Name = 
REMARK  6 active torsions:
REMARK  status: ('A' for Active; 'I' for Inactive)
REMARK    1  A    between atoms: C_1  and  C_2
REMARK    2  A    between atoms: C_5  and  C_6
REMARK    3  A    between atoms: C_6  and  C_7
REMARK    4  A    between atoms: C_7  and  N_8
REMARK    5  A    between atoms: C_12  and  C_13
REMARK    6  A    between atoms: C_19  and  C_20
REMARK                            x       y       z     vdW  Elec       q    Type
REMARK                         _______ _______ _______ _____ _____    ______ ____
ROOT
ATOM      1  C   UNL     1      45.848   6.713  10.592  0.00  0.00    +0.000 C 
ENDROOT
BRANCH   1   6
ATOM      2  C   UNL     1      44.084   1.329   9.171  0.00  0.00    +0.000 C 
ATOM      3  C   UNL     1      44.552   2.744   9.406  0.00  0.00    +0.000 A 
ATOM      4  C   UNL     1      43.934   3.432  10.472  0.00  0.00    +0.000 A 
ATOM      5  C   UNL     1      44.336   4.711  10.850  0.00  0.00    +0.000 A 
ATOM      6  C   UNL     1      45.366   5.345  10.164  0.00  0.00    +0.000 A 
ATOM      7  C   UNL     1      45.938   4.693   9.057  0.00  0.00    +0.000 A 
ATOM      8  C   UNL     1      45.563   3.387   8.641  0.00  0.00    +0.000 A 
BRANCH   8   9
ATOM      9  C   UNL     1      46.264   2.775   7.465  0.00  0.00    +0.000 A 
ATOM     10  C   UNL     1      46.837   1.488   7.540  0.00  0.00    +0.000 A 
ATOM     11  C   UNL     1      47.509   0.906   6.456  0.00  0.00    +0.000 A 
ATOM     12  C   UNL     1      47.591   1.577   5.244  0.00  0.00    +0.000 A 
ATOM     13  C   UNL     1      47.040   2.845   5.131  0.00  0.00    +0.000 A 
ATOM     14  C   UNL     1      46.421   3.444   6.237  0.00  0.00    +0.000 A 
ENDBRANCH   8   9
ENDBRANCH   1   6
BRANCH   1  15
ATOM     15  C   UNL     1      45.475   7.025  12.041  0.00  0.00    +0.000 C 
BRANCH  15  16
ATOM     16  N   UNL     1      46.665   7.378  12.828  0.00  0.00    +0.000 N 
ATOM     17  C   UNL     1      46.991   6.401  13.788  0.00  0.00    +0.000 A 
ATOM     18  C   UNL     1      48.093   6.598  14.614  0.00  0.00    +0.000 A 
ATOM     19  C   UNL     1      48.422   5.629  15.566  0.00  0.00    +0.000 A 
ATOM     20  C   UNL     1      47.644   4.476  15.677  0.00  0.00    +0.000 A 
ATOM     21  C   UNL     1      46.577   4.356  14.808  0.00  0.00    +0.000 A 
ATOM     22  N   UNL     1      46.242   5.280  13.878  0.00  0.00    +0.000 NA
ATOM     23  H   UNL     1      46.565   8.273  13.301  0.00  0.00    +0.000 HD
BRANCH  20  24
ATOM     24  C   UNL     1      47.974   3.456  16.702  0.00  0.00    +0.000 C 
ATOM     25  N   UNL     1      46.977   2.966  17.499  0.00  0.00    +0.000 N 
ATOM     26  O   UNL     1      49.122   3.045  16.834  0.00  0.00    +0.000 OA
ATOM     27  H   UNL     1      46.007   3.232  17.476  0.00  0.00    +0.000 HD
ATOM     28  H   UNL     1      47.251   2.276  18.188  0.00  0.00    +0.000 HD
ENDBRANCH  20  24
ENDBRANCH  15  16
ENDBRANCH   1  15
TORSDOF 5
ENDMDL
MODEL 6
REMARK VINA RESULT:    -7.031      5.234      6.897
REMARK INTER + INTRA:          -9.682
REMARK INTER:                  -8.966
REMARK INTRA:                  -0.716
REMARK UNBOUND:                -0.596
REMARK  Name = 
REMARK  6 active torsions:
REMARK  status: ('A' for Active; 'I' for Inactive)
REMARK    1  A    between atoms: C_1  and  C_2
REMARK    2  A    between atoms: C_5  and  C_6
REMARK    3  A    between atoms: C_6  and  C_7
REMARK    4  A    between atoms: C_7  and  N_8
REMARK    5  A    between atoms: C_12  and  C_13
REMARK    6  A    between atoms: C_19  and  C_20
REMARK                            x       y       z     vdW  Elec       q    Type
REMARK                         _______ _______ _______ _____ _____    ______ ____
ROOT
ATOM      1  C   UNL     1      47.004   3.888  17.325  0.00  0.00    +0.000 C 
ENDROOT
BRANCH   1   6
ATOM      2  C   UNL     1      50.458   6.830  21.002  0.00  0.00    +0.000 C 
ATOM      3  C   UNL     1      49.518   6.189  20.011  0.00  0.00    +0.000 A 
ATOM      4  C   UNL     1      50.008   5.045  19.344  0.00  0.00    +0.000 A 
ATOM      5  C   UNL     1      49.210   4.309  18.471  0.00  0.00    +0.000 A 
ATOM      6  C   UNL     1      47.898   4.702  18.232  0.00  0.00    +0.000 A 
ATOM      7  C   UNL     1      47.428   5.880  18.838  0.00  0.00    +0.000 A 
ATOM      8  C   UNL     1      48.204   6.657  19.740  0.00  0.00    +0.000 A 
BRANCH   8   9
ATOM      9  C   UNL     1      47.589   7.879  20.355  0.00  0.00    +0.000 A 
ATOM     10  C   UNL     1      47.289   9.020  19.580  0.00  0.00    +0.000 A 
ATOM     11  C   UNL     1      46.729  10.176  20.140  0.00  0.00    +0.000 A 
ATOM     12  C   UNL     1      46.409  10.214  21.490  0.00  0.00    +0.000 A 
ATOM     13  C   UNL     1      46.689   9.112  22.285  0.00  0.00    +0.000 A 
ATOM     14  C   UNL     1      47.303   7.981  21.728  0.00  0.00    +0.000 A 
ENDBRANCH   8   9
ENDBRANCH   1   6
BRANCH   1  15
ATOM     15  C   UNL     1      47.520   3.858  15.887  0.00  0.00    +0.000 C 
BRANCH  15  16
ATOM     16  N   UNL     1      47.093   5.054  15.147  0.00  0.00    +0.000 N 
ATOM     17  C   UNL     1      46.394   4.741  13.965  0.00  0.00    +0.000 A 
ATOM     18  C   UNL     1      45.929   5.771  13.155  0.00  0.00    +0.000 A 
ATOM     19  C   UNL     1      45.231   5.465  11.983  0.00  0.00    +0.000 A 
ATOM     20  C   UNL     1      45.008   4.131  11.639  0.00  0.00    +0.000 A 
ATOM     21  C   UNL     1      45.493   3.173  12.508  0.00  0.00    +0.000 A 
ATOM     22  N   UNL     1      46.168   3.446  13.648  0.00  0.00    +0.000 NA
ATOM     23  H   UNL     1      47.873   5.660  14.908  0.00  0.00    +0.000 HD
BRANCH  20  24
ATOM     24  C   UNL     1      44.290   3.800  10.384  0.00  0.00    +0.000 C 
ATOM     25  N   UNL     1      43.975   4.805   9.514  0.00  0.00    +0.000 N 
ATOM     26  O   UNL     1      43.989   2.642  10.118  0.00  0.00    +0.000 OA
ATOM     27  H   UNL     1      44.173   5.785   9.633  0.00  0.00    +0.000 HD
ATOM     28  H   UNL     1      43.479   4.533   8.673  0.00  0.00    +0.000 HD
ENDBRANCH  20  24
ENDBRANCH  15  16
ENDBRANCH   1  15
TORSDOF 5
ENDMDL
MODEL 7
REMARK VINA RESULT:    -6.903      4.992      7.798
REMARK INTER + INTRA:          -9.517
REMARK INTER:                  -8.998
REMARK INTRA:                  -0.519
REMARK UNBOUND:                -0.596
REMARK  Name = 
REMARK  6 active torsions:
REMARK  status: ('A' for Active; 'I' for Inactive)
REMARK    1  A    between atoms: C_1  and  C_2
REMARK    2  A    between atoms: C_5  and  C_6
REMARK    3  A    between atoms: C_6  and  C_7
REMARK    4  A    between atoms: C_7  and  N_8
REMARK    5  A    between atoms: C_12  and  C_13
REMARK    6  A    between atoms: C_19  and  C_20
REMARK                            x       y       z     vdW  Elec       q    Type
REMARK                         _______ _______ _______ _____ _____    ______ ____
ROOT
ATOM      1  C   UNL     1      49.258   7.210  15.052  0.00  0.00    +0.000 C 
ENDROOT
BRANCH   1   6
ATOM      2  C   UNL     1      44.702   8.472  11.622  0.00  0.00    +0.000 C 
ATOM      3  C   UNL     1      45.918   8.059  12.413  0.00  0.00    +0.000 A 
ATOM      4  C   UNL     1      46.569   9.086  13.129  0.00  0.00    +0.000 A 
ATOM      5  C   UNL     1      47.650   8.823  13.968  0.00  0.00    +0.000 A 
ATOM      6  C   UNL     1      48.117   7.521  14.109  0.00  0.00    +0.000 A 
ATOM      7  C   UNL     1      47.518   6.505  13.344  0.00  0.00    +0.000 A 
ATOM      8  C   UNL     1      46.410   6.727  12.482  0.00  0.00    +0.000 A 
BRANCH   8   9
ATOM      9  C   UNL     1      45.828   5.562  11.739  0.00  0.00    +0.000 A 
ATOM     10  C   UNL     1      45.419   4.391  12.412  0.00  0.00    +0.000 A 
ATOM     11  C   UNL     1      44.887   3.287  11.732  0.00  0.00    +0.000 A 
ATOM     12  C   UNL     1      44.707   3.334  10.357  0.00  0.00    +0.000 A 
ATOM     13  C   UNL     1      45.098   4.468   9.659  0.00  0.00    +0.000 A 
ATOM     14  C   UNL     1      45.683   5.545  10.340  0.00  0.00    +0.000 A 
ENDBRANCH   8   9
ENDBRANCH   1   6
BRANCH   1  15
ATOM     15  C   UNL     1      48.763   6.865  16.456  0.00  0.00    +0.000 C 
BRANCH  15  16
ATOM     16  N   UNL     1      48.174   5.518  16.492  0.00  0.00    +0.000 N 
ATOM     17  C   UNL     1      49.118   4.521  16.806  0.00  0.00    +0.000 A 
ATOM     18  C   UNL     1      48.709   3.194  16.873  0.00  0.00    +0.000 A 
ATOM     19  C   UNL     1      49.641   2.201  17.189  0.00  0.00    +0.000 A 
ATOM     20  C   UNL     1      50.970   2.553  17.434  0.00  0.00    +0.000 A 
ATOM     21  C   UNL     1      51.285   3.895  17.359  0.00  0.00    +0.000 A 
ATOM     22  N   UNL     1      50.399   4.872  17.058  0.00  0.00    +0.000 NA
ATOM     23  H   UNL     1      47.723   5.270  15.615  0.00  0.00    +0.000 HD
BRANCH  20  24
ATOM     24  C   UNL     1      51.968   1.501  17.744  0.00  0.00    +0.000 C 
ATOM     25  N   UNL     1      51.534   0.268  18.143  0.00  0.00    +0.000 N 
ATOM     26  O   UNL     1      53.170   1.722  17.638  0.00  0.00    +0.000 OA
ATOM     27  H   UNL     1      50.577  -0.020  18.263  0.00  0.00    +0.000 HD
ATOM     28  H   UNL     1      52.252  -0.417  18.350  0.00  0.00    +0.000 HD
ENDBRANCH  20  24
ENDBRANCH  15  16
ENDBRANCH   1  15
TORSDOF 5
ENDMDL
MODEL 8
REMARK VINA RESULT:    -6.886      3.988      6.913
REMARK INTER + INTRA:          -9.495
REMARK INTER:                  -8.303
REMARK INTRA:                  -1.193
REMARK UNBOUND:                -0.596
REMARK  Name = 
REMARK  6 active torsions:
REMARK  status: ('A' for Active; 'I' for Inactive)
REMARK    1  A    between atoms: C_1  and  C_2
REMARK    2  A    between atoms: C_5  and  C_6
REMARK    3  A    between atoms: C_6  and  C_7
REMARK    4  A    between atoms: C_7  and  N_8
REMARK    5  A    between atoms: C_12  and  C_13
REMARK    6  A    between atoms: C_19  and  C_20
REMARK                            x       y       z     vdW  Elec       q    Type
REMARK                         _______ _______ _______ _____ _____    ______ ____
ROOT
ATOM      1  C   UNL     1      48.882   9.579  15.087  0.00  0.00    +0.000 C 
ENDROOT
BRANCH   1   6
ATOM      2  C   UNL     1      47.919   6.425  19.907  0.00  0.00    +0.000 C 
ATOM      3  C   UNL     1      48.131   7.131  18.591  0.00  0.00    +0.000 A 
ATOM      4  C   UNL     1      47.767   8.494  18.554  0.00  0.00    +0.000 A 
ATOM      5  C   UNL     1      47.992   9.283  17.428  0.00  0.00    +0.000 A 
ATOM      6  C   UNL     1      48.584   8.726  16.300  0.00  0.00    +0.000 A 
ATOM      7  C   UNL     1      48.885   7.353  16.306  0.00  0.00    +0.000 A 
ATOM      8  C   UNL     1      48.677   6.513  17.433  0.00  0.00    +0.000 A 
BRANCH   8   9
ATOM      9  C   UNL     1      49.065   5.068  17.339  0.00  0.00    +0.000 A 
ATOM     10  C   UNL     1      48.136   4.083  16.940  0.00  0.00    +0.000 A 
ATOM     11  C   UNL     1      48.477   2.725  16.861  0.00  0.00    +0.000 A 
ATOM     12  C   UNL     1      49.773   2.313  17.138  0.00  0.00    +0.000 A 
ATOM     13  C   UNL     1      50.714   3.252  17.534  0.00  0.00    +0.000 A 
ATOM     14  C   UNL     1      50.350   4.599  17.667  0.00  0.00    +0.000 A 
ENDBRANCH   8   9
ENDBRANCH   1   6
BRANCH   1  15
ATOM     15  C   UNL     1      48.726   8.796  13.784  0.00  0.00    +0.000 C 
BRANCH  15  16
ATOM     16  N   UNL     1      47.356   8.908  13.261  0.00  0.00    +0.000 N 
ATOM     17  C   UNL     1      46.703   7.663  13.178  0.00  0.00    +0.000 A 
ATOM     18  C   UNL     1      45.400   7.608  12.696  0.00  0.00    +0.000 A 
ATOM     19  C   UNL     1      44.746   6.375  12.616  0.00  0.00    +0.000 A 
ATOM     20  C   UNL     1      45.407   5.214  13.020  0.00  0.00    +0.000 A 
ATOM     21  C   UNL     1      46.694   5.362  13.498  0.00  0.00    +0.000 A 
ATOM     22  N   UNL     1      47.345   6.545  13.587  0.00  0.00    +0.000 NA
ATOM     23  H   UNL     1      47.327   9.348  12.345  0.00  0.00    +0.000 HD
BRANCH  20  24
ATOM     24  C   UNL     1      44.727   3.900  12.913  0.00  0.00    +0.000 C 
ATOM     25  N   UNL     1      45.420   2.831  12.420  0.00  0.00    +0.000 N 
ATOM     26  O   UNL     1      43.562   3.764  13.270  0.00  0.00    +0.000 OA
ATOM     27  H   UNL     1      46.374   2.831  12.100  0.00  0.00    +0.000 HD
ATOM     28  H   UNL     1      44.913   1.956  12.360  0.00  0.00    +0.000 HD
ENDBRANCH  20  24
ENDBRANCH  15  16
ENDBRANCH   1  15
TORSDOF 5
ENDMDL
MODEL 9
REMARK VINA RESULT:    -6.840      4.603      7.460
REMARK INTER + INTRA:          -9.435
REMARK INTER:                  -8.387
REMARK INTRA:                  -1.048
REMARK UNBOUND:                -0.596
REMARK  Name = 
REMARK  6 active torsions:
REMARK  status: ('A' for Active; 'I' for Inactive)
REMARK    1  A    between atoms: C_1  and  C_2
REMARK    2  A    between atoms: C_5  and  C_6
REMARK    3  A    between atoms: C_6  and  C_7
REMARK    4  A    between atoms: C_7  and  N_8
REMARK    5  A    between atoms: C_12  and  C_13
REMARK    6  A    between atoms: C_19  and  C_20
REMARK                            x       y       z     vdW  Elec       q    Type
REMARK                         _______ _______ _______ _____ _____    ______ ____
ROOT
ATOM      1  C   UNL     1      49.397   8.056  15.574  0.00  0.00    +0.000 C 
ENDROOT
BRANCH   1   6
ATOM      2  C   UNL     1      49.056   4.599  20.268  0.00  0.00    +0.000 C 
ATOM      3  C   UNL     1      49.151   5.380  18.981  0.00  0.00    +0.000 A 
ATOM      4  C   UNL     1      48.373   6.555  18.911  0.00  0.00    +0.000 A 
ATOM      5  C   UNL     1      48.436   7.412  17.814  0.00  0.00    +0.000 A 
ATOM      6  C   UNL     1      49.279   7.113  16.749  0.00  0.00    +0.000 A 
ATOM      7  C   UNL     1      50.004   5.909  16.782  0.00  0.00    +0.000 A 
ATOM      8  C   UNL     1      49.973   5.010  17.882  0.00  0.00    +0.000 A 
BRANCH   8   9
ATOM      9  C   UNL     1      50.813   3.769  17.824  0.00  0.00    +0.000 A 
ATOM     10  C   UNL     1      52.167   3.779  18.224  0.00  0.00    +0.000 A 
ATOM     11  C   UNL     1      52.972   2.633  18.162  0.00  0.00    +0.000 A 
ATOM     12  C   UNL     1      52.435   1.425  17.738  0.00  0.00    +0.000 A 
ATOM     13  C   UNL     1      51.108   1.375  17.336  0.00  0.00    +0.000 A 
ATOM     14  C   UNL     1      50.326   2.539  17.346  0.00  0.00    +0.000 A 
ENDBRANCH   8   9
ENDBRANCH   1   6
BRANCH   1  15
ATOM     15  C   UNL     1      49.667   7.312  14.266  0.00  0.00    +0.000 C 
BRANCH  15  16
ATOM     16  N   UNL     1      48.677   7.670  13.241  0.00  0.00    +0.000 N 
ATOM     17  C   UNL     1      47.716   6.660  13.038  0.00  0.00    +0.000 A 
ATOM     18  C   UNL     1      46.714   6.853  12.093  0.00  0.00    +0.000 A 
ATOM     19  C   UNL     1      45.756   5.855  11.892  0.00  0.00    +0.000 A 
ATOM     20  C   UNL     1      45.815   4.679  12.640  0.00  0.00    +0.000 A 
ATOM     21  C   UNL     1      46.835   4.577  13.565  0.00  0.00    +0.000 A 
ATOM     22  N   UNL     1      47.770   5.531  13.779  0.00  0.00    +0.000 NA
ATOM     23  H   UNL     1      49.108   7.888  12.346  0.00  0.00    +0.000 HD
BRANCH  20  24
ATOM     24  C   UNL     1      44.815   3.606  12.412  0.00  0.00    +0.000 C 
ATOM     25  N   UNL     1      44.977   2.760  11.351  0.00  0.00    +0.000 N 
ATOM     26  O   UNL     1      43.859   3.467  13.166  0.00  0.00    +0.000 OA
ATOM     27  H   UNL     1      45.721   2.786  10.673  0.00  0.00    +0.000 HD
ATOM     28  H   UNL     1      44.267   2.048  11.232  0.00  0.00    +0.000 HD
ENDBRANCH  20  24
ENDBRANCH  15  16
ENDBRANCH   1  15
TORSDOF 5
ENDMDL
