MODEL 1
REMARK VINA RESULT:    -8.056      0.000      0.000
REMARK INTER + INTRA:         -12.075
REMARK INTER:                 -11.352
REMARK INTRA:                  -0.723
REMARK UNBOUND:                -0.723
REMARK  Name = 
REMARK  8 active torsions:
REMARK  status: ('A' for Active; 'I' for Inactive)
REMARK    1  A    between atoms: C_1  and  O_2
REMARK    2  A    between atoms: O_2  and  C_3
REMARK    3  A    between atoms: C_7  and  C_8
REMARK    4  A    between atoms: N_10  and  C_11
REMARK    5  A    between atoms: C_11  and  C_12
REMARK    6  A    between atoms: C_15  and  C_16
REMARK    7  A    between atoms: C_16  and  N_17
REMARK    8  A    between atoms: C_18  and  C_20
REMARK                            x       y       z     vdW  Elec       q    Type
REMARK                         _______ _______ _______ _____ _____    ______ ____
ROOT
ATOM      1  C   UNL     1      44.582   5.387  11.300  0.00  0.00    +0.000 A 
ATOM      2  C   UNL     1      44.265   6.745  11.452  0.00  0.00    +0.000 A 
ATOM      3  C   UNL     1      45.107   7.615  12.167  0.00  0.00    +0.000 A 
ATOM      4  C   UNL     1      46.284   7.149  12.770  0.00  0.00    +0.000 A 
ATOM      5  C   UNL     1      46.574   5.781  12.666  0.00  0.00    +0.000 A 
ATOM      6  C   UNL     1      45.745   4.916  11.928  0.00  0.00    +0.000 A 
ENDROOT
BRANCH   1   7
ATOM      7  C   UNL     1      43.715   4.466  10.459  0.00  0.00    +0.000 C 
BRANCH   7  10
ATOM      8  C   UNL     1      45.420   4.159   8.654  0.00  0.00    +0.000 C 
ATOM      9  O   UNL     1      45.630   5.361   8.516  0.00  0.00    +0.000 OA
ATOM     10  N   UNL     1      44.514   3.643   9.563  0.00  0.00    +0.000 N 
ATOM     11  H   UNL     1      44.296   2.658   9.537  0.00  0.00    +0.000 HD
BRANCH   8  16
ATOM     12  C   UNL     1      46.825   0.834   7.440  0.00  0.00    +0.000 A 
ATOM     13  C   UNL     1      47.366   1.192   6.204  0.00  0.00    +0.000 A 
ATOM     14  C   UNL     1      47.343   2.518   5.787  0.00  0.00    +0.000 A 
ATOM     15  C   UNL     1      46.753   3.497   6.589  0.00  0.00    +0.000 A 
ATOM     16  C   UNL     1      46.167   3.156   7.820  0.00  0.00    +0.000 A 
ATOM     17  C   UNL     1      46.228   1.816   8.245  0.00  0.00    +0.000 A 
BRANCH  12  19
ATOM     18  C   UNL     1      46.612  -1.483   6.979  0.00  0.00    +0.000 C 
ATOM     19  O   UNL     1      46.805  -0.444   7.937  0.00  0.00    +0.000 OA
ENDBRANCH  12  19
ENDBRANCH   8  16
ENDBRANCH   7  10
ENDBRANCH   1   7
BRANCH   4  20
ATOM     20  C   UNL     1      47.215   8.087  13.514  0.00  0.00    +0.000 C 
BRANCH  20  21
ATOM     21  N   UNL     1      47.699   7.515  14.748  0.00  0.00    +0.000 N 
ATOM     22  C   UNL     1      48.967   7.000  14.875  0.00  0.00    +0.000 C 
ATOM     23  O   UNL     1      49.779   7.000  13.954  0.00  0.00    +0.000 OA
ATOM     24  H   UNL     1      46.995   7.206  15.408  0.00  0.00    +0.000 HD
BRANCH  22  25
ATOM     25  C   UNL     1      49.324   6.504  16.215  0.00  0.00    +0.000 A 
ATOM     26  C   UNL     1      50.297   7.152  16.963  0.00  0.00    +0.000 A 
ATOM     27  S   UNL     1      50.563   6.448  18.496  0.00  0.00    +0.000 S 
ATOM     28  C   UNL     1      49.408   5.226  18.202  0.00  0.00    +0.000 A 
ATOM     29  N   UNL     1      49.170   4.259  19.117  0.00  0.00    +0.000 NA
ATOM     30  C   UNL     1      48.286   3.384  18.747  0.00  0.00    +0.000 A 
ATOM     31  N   UNL     1      47.623   3.405  17.554  0.00  0.00    +0.000 N 
ATOM     32  C   UNL     1      47.795   4.399  16.621  0.00  0.00    +0.000 A 
ATOM     33  O   UNL     1      47.117   4.442  15.601  0.00  0.00    +0.000 OA
ATOM     34  C   UNL     1      48.808   5.384  16.964  0.00  0.00    +0.000 A 
ATOM     35  H   UNL     1      46.924   2.706  17.336  0.00  0.00    +0.000 HD
ENDBRANCH  22  25
ENDBRANCH  20  21
ENDBRANCH   4  20
TORSDOF 7
ENDMDL
MODEL 2
REMARK VINA RESULT:    -7.978      1.001      1.446
REMARK INTER + INTRA:         -11.966
REMARK INTER:                 -11.102
REMARK INTRA:                  -0.864
REMARK UNBOUND:                -0.723
REMARK  Name = 
REMARK  8 active torsions:
REMARK  status: ('A' for Active; 'I' for Inactive)
REMARK    1  A    between atoms: C_1  and  O_2
REMARK    2  A    between atoms: O_2  and  C_3
REMARK    3  A    between atoms: C_7  and  C_8
REMARK    4  A    between atoms: N_10  and  C_11
REMARK    5  A    between atoms: C_11  and  C_12
REMARK    6  A    between atoms: C_15  and  C_16
REMARK    7  A    between atoms: C_16  and  N_17
REMARK    8  A    between atoms: C_18  and  C_20
REMARK                            x       y       z     vdW  Elec       q    Type
REMARK                         _______ _______ _______ _____ _____    ______ ____
ROOT
ATOM      1  C   UNL     1      44.683   5.815  11.336  0.00  0.00    +0.000 A 
ATOM      2  C   UNL     1      44.680   7.215  11.423  0.00  0.00    +0.000 A 
ATOM      3  C   UNL     1      45.671   7.902  12.146  0.00  0.00    +0.000 A 
ATOM      4  C   UNL     1      46.687   7.210  12.819  0.00  0.00    +0.000 A 
ATOM      5  C   UNL     1      46.659   5.808  12.779  0.00  0.00    +0.000 A 
ATOM      6  C   UNL     1      45.682   5.121  12.034  0.00  0.00    +0.000 A 
ENDROOT
BRANCH   1   7
ATOM      7  C   UNL     1      43.660   5.077  10.489  0.00  0.00    +0.000 C 
BRANCH   7  10
ATOM      8  C   UNL     1      45.256   4.252   8.748  0.00  0.00    +0.000 C 
ATOM      9  O   UNL     1      45.693   5.369   8.483  0.00  0.00    +0.000 OA
ATOM     10  N   UNL     1      44.276   4.023   9.697  0.00  0.00    +0.000 N 
ATOM     11  H   UNL     1      43.871   3.102   9.775  0.00  0.00    +0.000 HD
BRANCH   8  16
ATOM     12  C   UNL     1      46.899   2.085   6.081  0.00  0.00    +0.000 A 
ATOM     13  C   UNL     1      46.985   0.854   6.734  0.00  0.00    +0.000 A 
ATOM     14  C   UNL     1      46.453   0.698   8.009  0.00  0.00    +0.000 A 
ATOM     15  C   UNL     1      45.852   1.780   8.657  0.00  0.00    +0.000 A 
ATOM     16  C   UNL     1      45.787   3.039   8.036  0.00  0.00    +0.000 A 
ATOM     17  C   UNL     1      46.299   3.173   6.732  0.00  0.00    +0.000 A 
BRANCH  12  19
ATOM     18  C   UNL     1      47.287   1.259   3.893  0.00  0.00    +0.000 C 
ATOM     19  O   UNL     1      47.389   2.334   4.825  0.00  0.00    +0.000 OA
ENDBRANCH  12  19
ENDBRANCH   8  16
ENDBRANCH   7  10
ENDBRANCH   1   7
BRANCH   4  20
ATOM     20  C   UNL     1      47.779   7.945  13.572  0.00  0.00    +0.000 C 
BRANCH  20  21
ATOM     21  N   UNL     1      48.025   7.377  14.876  0.00  0.00    +0.000 N 
ATOM     22  C   UNL     1      49.282   7.009  15.295  0.00  0.00    +0.000 C 
ATOM     23  O   UNL     1      50.282   7.147  14.596  0.00  0.00    +0.000 OA
ATOM     24  H   UNL     1      47.230   6.956  15.341  0.00  0.00    +0.000 HD
BRANCH  22  25
ATOM     25  C   UNL     1      49.371   6.495  16.673  0.00  0.00    +0.000 A 
ATOM     26  C   UNL     1      50.016   7.236  17.653  0.00  0.00    +0.000 A 
ATOM     27  S   UNL     1      50.004   6.494  19.191  0.00  0.00    +0.000 S 
ATOM     28  C   UNL     1      49.162   5.134  18.594  0.00  0.00    +0.000 A 
ATOM     29  N   UNL     1      48.859   4.092  19.402  0.00  0.00    +0.000 NA
ATOM     30  C   UNL     1      48.242   3.119  18.805  0.00  0.00    +0.000 A 
ATOM     31  N   UNL     1      47.898   3.110  17.484  0.00  0.00    +0.000 N 
ATOM     32  C   UNL     1      48.137   4.170  16.643  0.00  0.00    +0.000 A 
ATOM     33  O   UNL     1      47.733   4.170  15.487  0.00  0.00    +0.000 OA
ATOM     34  C   UNL     1      48.868   5.271  17.247  0.00  0.00    +0.000 A 
ATOM     35  H   UNL     1      47.392   2.330  17.085  0.00  0.00    +0.000 HD
ENDBRANCH  22  25
ENDBRANCH  20  21
ENDBRANCH   4  20
TORSDOF 7
ENDMDL
MODEL 3
REMARK VINA RESULT:    -7.733      2.104      2.659
REMARK INTER + INTRA:         -11.621
REMARK INTER:                 -10.592
REMARK INTRA:                  -1.029
REMARK UNBOUND:                -0.723
REMARK  Name = 
REMARK  8 active torsions:
REMARK  status: ('A' for Active; 'I' for Inactive)
REMARK    1  A    between atoms: C_1  and  O_2
REMARK    2  A    between atoms: O_2  and  C_3
REMARK    3  A    between atoms: C_7  and  C_8
REMARK    4  A    between atoms: N_10  and  C_11
REMARK    5  A    between atoms: C_11  and  C_12
REMARK    6  A    between atoms: C_15  and  C_16
REMARK    7  A    between atoms: C_16  and  N_17
REMARK    8  A    between atoms: C_18  and  C_20
REMARK                            x       y       z     vdW  Elec       q    Type
REMARK                         _______ _______ _______ _____ _____    ______ ____
ROOT
ATOM      1  C   UNL     1      45.036   5.650  11.682  0.00  0.00    +0.000 A 
ATOM      2  C   UNL     1      45.242   7.031  11.801  0.00  0.00    +0.000 A 
ATOM      3  C   UNL     1      46.264   7.548  12.617  0.00  0.00    +0.000 A 
ATOM      4  C   UNL     1      47.100   6.699  13.355  0.00  0.00    +0.000 A 
ATOM      5  C   UNL     1      46.859   5.319  13.280  0.00  0.00    +0.000 A 
ATOM      6  C   UNL     1      45.853   4.801  12.443  0.00  0.00    +0.000 A 
ENDROOT
BRANCH   1   7
ATOM      7  C   UNL     1      43.985   5.089  10.738  0.00  0.00    +0.000 C 
BRANCH   7  10
ATOM      8  C   UNL     1      45.396   4.239   8.855  0.00  0.00    +0.000 C 
ATOM      9  O   UNL     1      45.796   5.351   8.526  0.00  0.00    +0.000 OA
ATOM     10  N   UNL     1      44.522   4.023   9.906  0.00  0.00    +0.000 N 
ATOM     11  H   UNL     1      44.134   3.102  10.043  0.00  0.00    +0.000 HD
BRANCH   8  16
ATOM     12  C   UNL     1      46.938   2.046   6.150  0.00  0.00    +0.000 A 
ATOM     13  C   UNL     1      46.932   0.793   6.766  0.00  0.00    +0.000 A 
ATOM     14  C   UNL     1      46.369   0.636   8.028  0.00  0.00    +0.000 A 
ATOM     15  C   UNL     1      45.830   1.736   8.699  0.00  0.00    +0.000 A 
ATOM     16  C   UNL     1      45.858   3.014   8.116  0.00  0.00    +0.000 A 
ATOM     17  C   UNL     1      46.400   3.152   6.824  0.00  0.00    +0.000 A 
BRANCH  12  19
ATOM     18  C   UNL     1      47.078   1.397   3.873  0.00  0.00    +0.000 C 
ATOM     19  O   UNL     1      47.464   2.298   4.909  0.00  0.00    +0.000 OA
ENDBRANCH  12  19
ENDBRANCH   8  16
ENDBRANCH   7  10
ENDBRANCH   1   7
BRANCH   4  20
ATOM     20  C   UNL     1      48.226   7.246  14.210  0.00  0.00    +0.000 C 
BRANCH  20  21
ATOM     21  N   UNL     1      48.114   6.841  15.591  0.00  0.00    +0.000 N 
ATOM     22  C   UNL     1      49.183   6.359  16.308  0.00  0.00    +0.000 C 
ATOM     23  O   UNL     1      50.308   6.250  15.829  0.00  0.00    +0.000 OA
ATOM     24  H   UNL     1      47.183   6.611  15.918  0.00  0.00    +0.000 HD
BRANCH  22  25
ATOM     25  C   UNL     1      48.914   6.040  17.720  0.00  0.00    +0.000 A 
ATOM     26  C   UNL     1      49.194   4.775  18.217  0.00  0.00    +0.000 A 
ATOM     27  S   UNL     1      48.837   4.595  19.876  0.00  0.00    +0.000 S 
ATOM     28  C   UNL     1      48.259   6.197  19.987  0.00  0.00    +0.000 A 
ATOM     29  N   UNL     1      47.763   6.680  21.149  0.00  0.00    +0.000 NA
ATOM     30  C   UNL     1      47.336   7.904  21.076  0.00  0.00    +0.000 A 
ATOM     31  N   UNL     1      47.376   8.677  19.952  0.00  0.00    +0.000 N 
ATOM     32  C   UNL     1      47.923   8.244  18.767  0.00  0.00    +0.000 A 
ATOM     33  O   UNL     1      48.030   8.991  17.803  0.00  0.00    +0.000 OA
ATOM     34  C   UNL     1      48.375   6.862  18.777  0.00  0.00    +0.000 A 
ATOM     35  H   UNL     1      47.052   9.635  19.968  0.00  0.00    +0.000 HD
ENDBRANCH  22  25
ENDBRANCH  20  21
ENDBRANCH   4  20
TORSDOF 7
ENDMDL
MODEL 4
REMARK VINA RESULT:    -7.621      5.562      9.870
REMARK INTER + INTRA:         -11.462
REMARK INTER:                 -10.571
REMARK INTRA:                  -0.891
REMARK UNBOUND:                -0.723
REMARK  Name = 
REMARK  8 active torsions:
REMARK  status: ('A' for Active; 'I' for Inactive)
REMARK    1  A    between atoms: C_1  and  O_2
REMARK    2  A    between atoms: O_2  and  C_3
REMARK    3  A    between atoms: C_7  and  C_8
REMARK    4  A    between atoms: N_10  and  C_11
REMARK    5  A    between atoms: C_11  and  C_12
REMARK    6  A    between atoms: C_15  and  C_16
REMARK    7  A    between atoms: C_16  and  N_17
REMARK    8  A    between atoms: C_18  and  C_20
REMARK                            x       y       z     vdW  Elec       q    Type
REMARK                         _______ _______ _______ _____ _____    ______ ____
ROOT
ATOM      1  C   UNL     1      51.458   3.070  17.647  0.00  0.00    +0.000 A 
ATOM      2  C   UNL     1      50.818   4.302  17.837  0.00  0.00    +0.000 A 
ATOM      3  C   UNL     1      49.437   4.448  17.615  0.00  0.00    +0.000 A 
ATOM      4  C   UNL     1      48.657   3.369  17.177  0.00  0.00    +0.000 A 
ATOM      5  C   UNL     1      49.306   2.151  16.933  0.00  0.00    +0.000 A 
ATOM      6  C   UNL     1      50.683   1.998  17.180  0.00  0.00    +0.000 A 
ENDROOT
BRANCH   1   7
ATOM      7  C   UNL     1      52.933   2.892  17.964  0.00  0.00    +0.000 C 
BRANCH   7  10
ATOM      8  C   UNL     1      54.162   0.755  18.392  0.00  0.00    +0.000 C 
ATOM      9  O   UNL     1      54.490   1.060  19.534  0.00  0.00    +0.000 OA
ATOM     10  N   UNL     1      53.416   1.578  17.567  0.00  0.00    +0.000 N 
ATOM     11  H   UNL     1      53.290   1.322  16.599  0.00  0.00    +0.000 HD
BRANCH   8  16
ATOM     12  C   UNL     1      54.722  -2.999  18.076  0.00  0.00    +0.000 A 
ATOM     13  C   UNL     1      55.088  -3.117  16.734  0.00  0.00    +0.000 A 
ATOM     14  C   UNL     1      55.223  -1.982  15.943  0.00  0.00    +0.000 A 
ATOM     15  C   UNL     1      54.967  -0.718  16.478  0.00  0.00    +0.000 A 
ATOM     16  C   UNL     1      54.560  -0.576  17.816  0.00  0.00    +0.000 A 
ATOM     17  C   UNL     1      54.461  -1.730  18.614  0.00  0.00    +0.000 A 
BRANCH  12  19
ATOM     18  C   UNL     1      53.223  -4.397  19.270  0.00  0.00    +0.000 C 
ATOM     19  O   UNL     1      54.567  -4.058  18.934  0.00  0.00    +0.000 OA
ENDBRANCH  12  19
ENDBRANCH   8  16
ENDBRANCH   7  10
ENDBRANCH   1   7
BRANCH   4  20
ATOM     20  C   UNL     1      47.161   3.509  16.968  0.00  0.00    +0.000 C 
BRANCH  20  21
ATOM     21  N   UNL     1      46.837   4.487  15.957  0.00  0.00    +0.000 N 
ATOM     22  C   UNL     1      46.920   4.213  14.612  0.00  0.00    +0.000 C 
ATOM     23  O   UNL     1      47.264   3.117  14.177  0.00  0.00    +0.000 OA
ATOM     24  H   UNL     1      46.866   5.458  16.244  0.00  0.00    +0.000 HD
BRANCH  22  25
ATOM     25  C   UNL     1      46.503   5.301  13.711  0.00  0.00    +0.000 A 
ATOM     26  C   UNL     1      47.348   6.376  13.476  0.00  0.00    +0.000 A 
ATOM     27  S   UNL     1      46.706   7.528  12.392  0.00  0.00    +0.000 S 
ATOM     28  C   UNL     1      45.254   6.648  12.223  0.00  0.00    +0.000 A 
ATOM     29  N   UNL     1      44.246   7.110  11.447  0.00  0.00    +0.000 NA
ATOM     30  C   UNL     1      43.194   6.349  11.435  0.00  0.00    +0.000 A 
ATOM     31  N   UNL     1      43.077   5.173  12.119  0.00  0.00    +0.000 N 
ATOM     32  C   UNL     1      44.096   4.642  12.872  0.00  0.00    +0.000 A 
ATOM     33  O   UNL     1      43.994   3.540  13.397  0.00  0.00    +0.000 OA
ATOM     34  C   UNL     1      45.284   5.475  12.959  0.00  0.00    +0.000 A 
ATOM     35  H   UNL     1      42.238   4.612  12.045  0.00  0.00    +0.000 HD
ENDBRANCH  22  25
ENDBRANCH  20  21
ENDBRANCH   4  20
TORSDOF 7
ENDMDL
MODEL 5
REMARK VINA RESULT:    -7.432      4.327      7.613
REMARK INTER + INTRA:         -11.197
REMARK INTER:                 -10.085
REMARK INTRA:                  -1.111
REMARK UNBOUND:                -0.723
REMARK  Name = 
REMARK  8 active torsions:
REMARK  status: ('A' for Active; 'I' for Inactive)
REMARK    1  A    between atoms: C_1  and  O_2
REMARK    2  A    between atoms: O_2  and  C_3
REMARK    3  A    between atoms: C_7  and  C_8
REMARK    4  A    between atoms: N_10  and  C_11
REMARK    5  A    between atoms: C_11  and  C_12
REMARK    6  A    between atoms: C_15  and  C_16
REMARK    7  A    between atoms: C_16  and  N_17
REMARK    8  A    between atoms: C_18  and  C_20
REMARK                            x       y       z     vdW  Elec       q    Type
REMARK                         _______ _______ _______ _____ _____    ______ ____
ROOT
ATOM      1  C   UNL     1      44.994   8.998  11.911  0.00  0.00    +0.000 A 
ATOM      2  C   UNL     1      44.357   7.856  11.405  0.00  0.00    +0.000 A 
ATOM      3  C   UNL     1      44.698   6.569  11.858  0.00  0.00    +0.000 A 
ATOM      4  C   UNL     1      45.701   6.383  12.820  0.00  0.00    +0.000 A 
ATOM      5  C   UNL     1      46.377   7.519  13.286  0.00  0.00    +0.000 A 
ATOM      6  C   UNL     1      46.018   8.809  12.851  0.00  0.00    +0.000 A 
ENDROOT
BRANCH   1   7
ATOM      7  C   UNL     1      44.570  10.391  11.481  0.00  0.00    +0.000 C 
BRANCH   7  10
ATOM      8  C   UNL     1      42.124  10.676  11.041  0.00  0.00    +0.000 C 
ATOM      9  O   UNL     1      42.210  10.407   9.847  0.00  0.00    +0.000 OA
ATOM     10  N   UNL     1      43.210  10.694  11.899  0.00  0.00    +0.000 N 
ATOM     11  H   UNL     1      43.091  11.047  12.836  0.00  0.00    +0.000 HD
BRANCH   8  16
ATOM     12  C   UNL     1      38.418  10.469  11.895  0.00  0.00    +0.000 A 
ATOM     13  C   UNL     1      38.311  11.417  12.914  0.00  0.00    +0.000 A 
ATOM     14  C   UNL     1      39.416  12.176  13.284  0.00  0.00    +0.000 A 
ATOM     15  C   UNL     1      40.648  11.976  12.656  0.00  0.00    +0.000 A 
ATOM     16  C   UNL     1      40.790  11.001  11.654  0.00  0.00    +0.000 A 
ATOM     17  C   UNL     1      39.655  10.265  11.266  0.00  0.00    +0.000 A 
BRANCH  12  19
ATOM     18  C   UNL     1      36.072  10.155  11.745  0.00  0.00    +0.000 C 
ATOM     19  O   UNL     1      37.386   9.679  11.459  0.00  0.00    +0.000 OA
ENDBRANCH  12  19
ENDBRANCH   8  16
ENDBRANCH   7  10
ENDBRANCH   1   7
BRANCH   4  20
ATOM     20  C   UNL     1      46.051   5.002  13.339  0.00  0.00    +0.000 C 
BRANCH  20  21
ATOM     21  N   UNL     1      46.655   5.045  14.649  0.00  0.00    +0.000 N 
ATOM     22  C   UNL     1      47.378   3.995  15.163  0.00  0.00    +0.000 C 
ATOM     23  O   UNL     1      47.571   2.954  14.541  0.00  0.00    +0.000 OA
ATOM     24  H   UNL     1      46.267   5.716  15.302  0.00  0.00    +0.000 HD
BRANCH  22  25
ATOM     25  C   UNL     1      47.973   4.219  16.492  0.00  0.00    +0.000 A 
ATOM     26  C   UNL     1      47.697   3.347  17.537  0.00  0.00    +0.000 A 
ATOM     27  S   UNL     1      48.489   3.752  18.994  0.00  0.00    +0.000 S 
ATOM     28  C   UNL     1      49.207   5.132  18.291  0.00  0.00    +0.000 A 
ATOM     29  N   UNL     1      49.994   5.956  19.019  0.00  0.00    +0.000 NA
ATOM     30  C   UNL     1      50.448   6.978  18.360  0.00  0.00    +0.000 A 
ATOM     31  N   UNL     1      50.189   7.231  17.043  0.00  0.00    +0.000 N 
ATOM     32  C   UNL     1      49.442   6.391  16.254  0.00  0.00    +0.000 A 
ATOM     33  O   UNL     1      49.305   6.596  15.054  0.00  0.00    +0.000 OA
ATOM     34  C   UNL     1      48.868   5.252  16.952  0.00  0.00    +0.000 A 
ATOM     35  H   UNL     1      50.596   8.033  16.580  0.00  0.00    +0.000 HD
ENDBRANCH  22  25
ENDBRANCH  20  21
ENDBRANCH   4  20
TORSDOF 7
ENDMDL
MODEL 6
REMARK VINA RESULT:    -7.385      3.504      4.778
REMARK INTER + INTRA:         -11.129
REMARK INTER:                 -10.162
REMARK INTRA:                  -0.968
REMARK UNBOUND:                -0.723
REMARK  Name = 
REMARK  8 active torsions:
REMARK  status: ('A' for Active; 'I' for Inactive)
REMARK    1  A    between atoms: C_1  and  O_2
REMARK    2  A    between atoms: O_2  and  C_3
REMARK    3  A    between atoms: C_7  and  C_8
REMARK    4  A    between atoms: N_10  and  C_11
REMARK    5  A    between atoms: C_11  and  C_12
REMARK    6  A    between atoms: C_15  and  C_16
REMARK    7  A    between atoms: C_16  and  N_17
REMARK    8  A    between atoms: C_18  and  C_20
REMARK                            x       y       z     vdW  Elec       q    Type
REMARK                         _______ _______ _______ _____ _____    ______ ____
ROOT
ATOM      1  C   UNL     1      47.124   5.974  13.963  0.00  0.00    +0.000 A 
ATOM      2  C   UNL     1      46.765   4.709  14.449  0.00  0.00    +0.000 A 
ATOM      3  C   UNL     1      47.336   4.190  15.626  0.00  0.00    +0.000 A 
ATOM      4  C   UNL     1      48.298   4.914  16.342  0.00  0.00    +0.000 A 
ATOM      5  C   UNL     1      48.699   6.156  15.827  0.00  0.00    +0.000 A 
ATOM      6  C   UNL     1      48.109   6.686  14.664  0.00  0.00    +0.000 A 
ENDROOT
BRANCH   1   7
ATOM      7  C   UNL     1      46.449   6.568  12.739  0.00  0.00    +0.000 C 
BRANCH   7  10
ATOM      8  C   UNL     1      45.096   5.420  10.975  0.00  0.00    +0.000 C 
ATOM      9  O   UNL     1      44.092   6.098  11.169  0.00  0.00    +0.000 OA
ATOM     10  N   UNL     1      46.272   5.578  11.687  0.00  0.00    +0.000 N 
ATOM     11  H   UNL     1      47.015   4.906  11.567  0.00  0.00    +0.000 HD
BRANCH   8  16
ATOM     12  C   UNL     1      45.876   3.592   7.726  0.00  0.00    +0.000 A 
ATOM     13  C   UNL     1      45.331   2.331   7.975  0.00  0.00    +0.000 A 
ATOM     14  C   UNL     1      44.650   2.085   9.162  0.00  0.00    +0.000 A 
ATOM     15  C   UNL     1      44.530   3.089  10.125  0.00  0.00    +0.000 A 
ATOM     16  C   UNL     1      45.102   4.355   9.914  0.00  0.00    +0.000 A 
ATOM     17  C   UNL     1      45.759   4.601   8.694  0.00  0.00    +0.000 A 
BRANCH  12  19
ATOM     18  C   UNL     1      46.698   2.898   5.613  0.00  0.00    +0.000 C 
ATOM     19  O   UNL     1      46.559   3.931   6.586  0.00  0.00    +0.000 OA
ENDBRANCH  12  19
ENDBRANCH   8  16
ENDBRANCH   7  10
ENDBRANCH   1   7
BRANCH   4  20
ATOM     20  C   UNL     1      48.894   4.378  17.630  0.00  0.00    +0.000 C 
BRANCH  20  21
ATOM     21  N   UNL     1      50.282   4.011  17.482  0.00  0.00    +0.000 N 
ATOM     22  C   UNL     1      51.196   4.158  18.497  0.00  0.00    +0.000 C 
ATOM     23  O   UNL     1      50.896   4.600  19.603  0.00  0.00    +0.000 OA
ATOM     24  H   UNL     1      50.634   3.954  16.533  0.00  0.00    +0.000 HD
BRANCH  22  25
ATOM     25  C   UNL     1      52.560   3.685  18.203  0.00  0.00    +0.000 A 
ATOM     26  C   UNL     1      53.641   4.545  18.338  0.00  0.00    +0.000 A 
ATOM     27  S   UNL     1      55.143   3.819  17.973  0.00  0.00    +0.000 S 
ATOM     28  C   UNL     1      54.399   2.332  17.586  0.00  0.00    +0.000 A 
ATOM     29  N   UNL     1      55.129   1.278  17.158  0.00  0.00    +0.000 NA
ATOM     30  C   UNL     1      54.426   0.224  16.876  0.00  0.00    +0.000 A 
ATOM     31  N   UNL     1      53.070   0.139  16.997  0.00  0.00    +0.000 N 
ATOM     32  C   UNL     1      52.297   1.166  17.482  0.00  0.00    +0.000 A 
ATOM     33  O   UNL     1      51.094   1.028  17.668  0.00  0.00    +0.000 OA
ATOM     34  C   UNL     1      53.027   2.390  17.771  0.00  0.00    +0.000 A 
ATOM     35  H   UNL     1      52.583  -0.723  16.786  0.00  0.00    +0.000 HD
ENDBRANCH  22  25
ENDBRANCH  20  21
ENDBRANCH   4  20
TORSDOF 7
ENDMDL
MODEL 7
REMARK VINA RESULT:    -7.368      1.960      2.836
REMARK INTER + INTRA:         -11.106
REMARK INTER:                  -9.953
REMARK INTRA:                  -1.153
REMARK UNBOUND:                -0.723
REMARK  Name = 
REMARK  8 active torsions:
REMARK  status: ('A' for Active; 'I' for Inactive)
REMARK    1  A    between atoms: C_1  and  O_2
REMARK    2  A    between atoms: O_2  and  C_3
REMARK    3  A    between atoms: C_7  and  C_8
REMARK    4  A    between atoms: N_10  and  C_11
REMARK    5  A    between atoms: C_11  and  C_12
REMARK    6  A    between atoms: C_15  and  C_16
REMARK    7  A    between atoms: C_16  and  N_17
REMARK    8  A    between atoms: C_18  and  C_20
REMARK                            x       y       z     vdW  Elec       q    Type
REMARK                         _______ _______ _______ _____ _____    ______ ____
ROOT
ATOM      1  C   UNL     1      45.773   7.517  12.410  0.00  0.00    +0.000 A 
ATOM      2  C   UNL     1      45.916   8.812  12.929  0.00  0.00    +0.000 A 
ATOM      3  C   UNL     1      47.005   9.152  13.751  0.00  0.00    +0.000 A 
ATOM      4  C   UNL     1      47.976   8.202  14.095  0.00  0.00    +0.000 A 
ATOM      5  C   UNL     1      47.804   6.893  13.623  0.00  0.00    +0.000 A 
ATOM      6  C   UNL     1      46.728   6.558  12.779  0.00  0.00    +0.000 A 
ENDROOT
BRANCH   1   7
ATOM      7  C   UNL     1      44.641   7.171  11.457  0.00  0.00    +0.000 C 
BRANCH   7  10
ATOM      8  C   UNL     1      44.253   4.901  10.479  0.00  0.00    +0.000 C 
ATOM      9  O   UNL     1      43.231   4.692  11.126  0.00  0.00    +0.000 OA
ATOM     10  N   UNL     1      44.994   6.065  10.580  0.00  0.00    +0.000 N 
ATOM     11  H   UNL     1      45.890   6.120  10.118  0.00  0.00    +0.000 HD
BRANCH   8  16
ATOM     12  C   UNL     1      45.998   3.365   7.463  0.00  0.00    +0.000 A 
ATOM     13  C   UNL     1      45.923   2.002   7.758  0.00  0.00    +0.000 A 
ATOM     14  C   UNL     1      45.250   1.568   8.895  0.00  0.00    +0.000 A 
ATOM     15  C   UNL     1      44.668   2.494   9.763  0.00  0.00    +0.000 A 
ATOM     16  C   UNL     1      44.762   3.873   9.508  0.00  0.00    +0.000 A 
ATOM     17  C   UNL     1      45.417   4.296   8.336  0.00  0.00    +0.000 A 
BRANCH  12  19
ATOM     18  C   UNL     1      47.023   2.947   5.365  0.00  0.00    +0.000 C 
ATOM     19  O   UNL     1      46.634   3.887   6.366  0.00  0.00    +0.000 OA
ENDBRANCH  12  19
ENDBRANCH   8  16
ENDBRANCH   7  10
ENDBRANCH   1   7
BRANCH   4  20
ATOM     20  C   UNL     1      49.171   8.569  14.953  0.00  0.00    +0.000 C 
BRANCH  20  21
ATOM     21  N   UNL     1      49.873   7.407  15.443  0.00  0.00    +0.000 N 
ATOM     22  C   UNL     1      50.551   7.405  16.639  0.00  0.00    +0.000 C 
ATOM     23  O   UNL     1      50.598   8.385  17.378  0.00  0.00    +0.000 OA
ATOM     24  H   UNL     1      50.130   6.712  14.753  0.00  0.00    +0.000 HD
BRANCH  22  25
ATOM     25  C   UNL     1      51.168   6.123  17.021  0.00  0.00    +0.000 A 
ATOM     26  C   UNL     1      52.526   6.059  17.303  0.00  0.00    +0.000 A 
ATOM     27  S   UNL     1      53.060   4.499  17.746  0.00  0.00    +0.000 S 
ATOM     28  C   UNL     1      51.498   3.841  17.543  0.00  0.00    +0.000 A 
ATOM     29  N   UNL     1      51.268   2.522  17.734  0.00  0.00    +0.000 NA
ATOM     30  C   UNL     1      50.040   2.160  17.518  0.00  0.00    +0.000 A 
ATOM     31  N   UNL     1      49.035   3.005  17.143  0.00  0.00    +0.000 N 
ATOM     32  C   UNL     1      49.214   4.359  16.993  0.00  0.00    +0.000 A 
ATOM     33  O   UNL     1      48.273   5.104  16.747  0.00  0.00    +0.000 OA
ATOM     34  C   UNL     1      50.582   4.814  17.178  0.00  0.00    +0.000 A 
ATOM     35  H   UNL     1      48.091   2.664  17.017  0.00  0.00    +0.000 HD
ENDBRANCH  22  25
ENDBRANCH  20  21
ENDBRANCH   4  20
TORSDOF 7
ENDMDL
MODEL 8
REMARK VINA RESULT:    -7.270      2.476      3.771
REMARK INTER + INTRA:         -10.968
REMARK INTER:                  -9.788
REMARK INTRA:                  -1.180
REMARK UNBOUND:                -0.723
REMARK  Name = 
REMARK  8 active torsions:
REMARK  status: ('A' for Active; 'I' for Inactive)
REMARK    1  A    between atoms: C_1  and  O_2
REMARK    2  A    between atoms: O_2  and  C_3
REMARK    3  A    between atoms: C_7  and  C_8
REMARK    4  A    between atoms: N_10  and  C_11
REMARK    5  A    between atoms: C_11  and  C_12
REMARK    6  A    between atoms: C_15  and  C_16
REMARK    7  A    between atoms: C_16  and  N_17
REMARK    8  A    between atoms: C_18  and  C_20
REMARK                            x       y       z     vdW  Elec       q    Type
REMARK                         _______ _______ _______ _____ _____    ______ ____
ROOT
ATOM      1  C   UNL     1      46.287   7.747  12.412  0.00  0.00    +0.000 A 
ATOM      2  C   UNL     1      47.348   6.831  12.368  0.00  0.00    +0.000 A 
ATOM      3  C   UNL     1      48.457   6.960  13.223  0.00  0.00    +0.000 A 
ATOM      4  C   UNL     1      48.548   8.020  14.135  0.00  0.00    +0.000 A 
ATOM      5  C   UNL     1      47.514   8.967  14.141  0.00  0.00    +0.000 A 
ATOM      6  C   UNL     1      46.392   8.824  13.304  0.00  0.00    +0.000 A 
ENDROOT
BRANCH   1   7
ATOM      7  C   UNL     1      45.052   7.563  11.546  0.00  0.00    +0.000 C 
BRANCH   7  10
ATOM      8  C   UNL     1      44.536   5.210  10.868  0.00  0.00    +0.000 C 
ATOM      9  O   UNL     1      43.799   4.995  11.826  0.00  0.00    +0.000 OA
ATOM     10  N   UNL     1      45.181   6.416  10.659  0.00  0.00    +0.000 N 
ATOM     11  H   UNL     1      45.871   6.486   9.926  0.00  0.00    +0.000 HD
BRANCH   8  16
ATOM     12  C   UNL     1      45.777   3.484   7.708  0.00  0.00    +0.000 A 
ATOM     13  C   UNL     1      45.444   2.153   7.966  0.00  0.00    +0.000 A 
ATOM     14  C   UNL     1      44.757   1.815   9.126  0.00  0.00    +0.000 A 
ATOM     15  C   UNL     1      44.419   2.801  10.056  0.00  0.00    +0.000 A 
ATOM     16  C   UNL     1      44.777   4.143   9.837  0.00  0.00    +0.000 A 
ATOM     17  C   UNL     1      45.441   4.475   8.642  0.00  0.00    +0.000 A 
BRANCH  12  19
ATOM     18  C   UNL     1      47.007   2.893   5.769  0.00  0.00    +0.000 C 
ATOM     19  O   UNL     1      46.447   3.914   6.592  0.00  0.00    +0.000 OA
ENDBRANCH  12  19
ENDBRANCH   8  16
ENDBRANCH   7  10
ENDBRANCH   1   7
BRANCH   4  20
ATOM     20  C   UNL     1      49.725   8.147  15.084  0.00  0.00    +0.000 C 
BRANCH  20  21
ATOM     21  N   UNL     1      50.146   6.871  15.610  0.00  0.00    +0.000 N 
ATOM     22  C   UNL     1      49.607   6.329  16.752  0.00  0.00    +0.000 C 
ATOM     23  O   UNL     1      48.722   6.884  17.397  0.00  0.00    +0.000 OA
ATOM     24  H   UNL     1      51.059   6.542  15.316  0.00  0.00    +0.000 HD
BRANCH  22  25
ATOM     25  C   UNL     1      50.108   4.995  17.125  0.00  0.00    +0.000 A 
ATOM     26  C   UNL     1      49.235   3.919  17.208  0.00  0.00    +0.000 A 
ATOM     27  S   UNL     1      49.996   2.451  17.633  0.00  0.00    +0.000 S 
ATOM     28  C   UNL     1      51.521   3.207  17.756  0.00  0.00    +0.000 A 
ATOM     29  N   UNL     1      52.618   2.507  18.124  0.00  0.00    +0.000 NA
ATOM     30  C   UNL     1      53.701   3.218  18.199  0.00  0.00    +0.000 A 
ATOM     31  N   UNL     1      53.775   4.554  17.929  0.00  0.00    +0.000 N 
ATOM     32  C   UNL     1      52.697   5.290  17.498  0.00  0.00    +0.000 A 
ATOM     33  O   UNL     1      52.815   6.465  17.173  0.00  0.00    +0.000 OA
ATOM     34  C   UNL     1      51.445   4.554  17.439  0.00  0.00    +0.000 A 
ATOM     35  H   UNL     1      54.658   5.046  17.981  0.00  0.00    +0.000 HD
ENDBRANCH  22  25
ENDBRANCH  20  21
ENDBRANCH   4  20
TORSDOF 7
ENDMDL
MODEL 9
REMARK VINA RESULT:    -7.154      2.398      3.664
REMARK INTER + INTRA:         -10.804
REMARK INTER:                  -9.834
REMARK INTRA:                  -0.970
REMARK UNBOUND:                -0.723
REMARK  Name = 
REMARK  8 active torsions:
REMARK  status: ('A' for Active; 'I' for Inactive)
REMARK    1  A    between atoms: C_1  and  O_2
REMARK    2  A    between atoms: O_2  and  C_3
REMARK    3  A    between atoms: C_7  and  C_8
REMARK    4  A    between atoms: N_10  and  C_11
REMARK    5  A    between atoms: C_11  and  C_12
REMARK    6  A    between atoms: C_15  and  C_16
REMARK    7  A    between atoms: C_16  and  N_17
REMARK    8  A    between atoms: C_18  and  C_20
REMARK                            x       y       z     vdW  Elec       q    Type
REMARK                         _______ _______ _______ _____ _____    ______ ____
ROOT
ATOM      1  C   UNL     1      46.641   7.718  12.446  0.00  0.00    +0.000 A 
ATOM      2  C   UNL     1      47.777   6.979  12.087  0.00  0.00    +0.000 A 
ATOM      3  C   UNL     1      48.923   6.963  12.902  0.00  0.00    +0.000 A 
ATOM      4  C   UNL     1      48.975   7.701  14.092  0.00  0.00    +0.000 A 
ATOM      5  C   UNL     1      47.860   8.484  14.424  0.00  0.00    +0.000 A 
ATOM      6  C   UNL     1      46.704   8.480  13.622  0.00  0.00    +0.000 A 
ENDROOT
BRANCH   1   7
ATOM      7  C   UNL     1      45.374   7.672  11.608  0.00  0.00    +0.000 C 
BRANCH   7  10
ATOM      8  C   UNL     1      44.871   5.287  11.043  0.00  0.00    +0.000 C 
ATOM      9  O   UNL     1      44.393   5.027  12.143  0.00  0.00    +0.000 OA
ATOM     10  N   UNL     1      45.368   6.533  10.703  0.00  0.00    +0.000 N 
ATOM     11  H   UNL     1      45.862   6.645   9.830  0.00  0.00    +0.000 HD
BRANCH   8  16
ATOM     12  C   UNL     1      45.717   3.547   7.762  0.00  0.00    +0.000 A 
ATOM     13  C   UNL     1      45.272   2.247   8.011  0.00  0.00    +0.000 A 
ATOM     14  C   UNL     1      44.636   1.942   9.209  0.00  0.00    +0.000 A 
ATOM     15  C   UNL     1      44.462   2.927  10.183  0.00  0.00    +0.000 A 
ATOM     16  C   UNL     1      44.934   4.233   9.972  0.00  0.00    +0.000 A 
ATOM     17  C   UNL     1      45.545   4.537   8.742  0.00  0.00    +0.000 A 
BRANCH  12  19
ATOM     18  C   UNL     1      46.925   2.902   5.826  0.00  0.00    +0.000 C 
ATOM     19  O   UNL     1      46.349   3.944   6.612  0.00  0.00    +0.000 OA
ENDBRANCH  12  19
ENDBRANCH   8  16
ENDBRANCH   7  10
ENDBRANCH   1   7
BRANCH   4  20
ATOM     20  C   UNL     1      50.194   7.662  14.993  0.00  0.00    +0.000 C 
BRANCH  20  21
ATOM     21  N   UNL     1      49.854   7.368  16.365  0.00  0.00    +0.000 N 
ATOM     22  C   UNL     1      49.294   6.172  16.746  0.00  0.00    +0.000 C 
ATOM     23  O   UNL     1      49.055   5.267  15.951  0.00  0.00    +0.000 OA
ATOM     24  H   UNL     1      49.731   8.164  16.979  0.00  0.00    +0.000 HD
BRANCH  22  25
ATOM     25  C   UNL     1      49.058   6.009  18.191  0.00  0.00    +0.000 A 
ATOM     26  C   UNL     1      49.453   4.845  18.836  0.00  0.00    +0.000 A 
ATOM     27  S   UNL     1      49.116   4.842  20.510  0.00  0.00    +0.000 S 
ATOM     28  C   UNL     1      48.395   6.387  20.429  0.00  0.00    +0.000 A 
ATOM     29  N   UNL     1      47.860   6.965  21.529  0.00  0.00    +0.000 NA
ATOM     30  C   UNL     1      47.325   8.127  21.311  0.00  0.00    +0.000 A 
ATOM     31  N   UNL     1      47.293   8.754  20.098  0.00  0.00    +0.000 N 
ATOM     32  C   UNL     1      47.874   8.228  18.970  0.00  0.00    +0.000 A 
ATOM     33  O   UNL     1      47.911   8.856  17.919  0.00  0.00    +0.000 OA
ATOM     34  C   UNL     1      48.449   6.904  19.145  0.00  0.00    +0.000 A 
ATOM     35  H   UNL     1      46.883   9.674  20.001  0.00  0.00    +0.000 HD
ENDBRANCH  22  25
ENDBRANCH  20  21
ENDBRANCH   4  20
TORSDOF 7
ENDMDL
