MODEL 1
REMARK VINA RESULT:    -8.102      0.000      0.000
REMARK INTER + INTRA:         -13.609
REMARK INTER:                 -12.365
REMARK INTRA:                  -1.244
REMARK UNBOUND:                -1.244
REMARK  Name = 
REMARK  10 active torsions:
REMARK  status: ('A' for Active; 'I' for Inactive)
REMARK    1  A    between atoms: C_1  and  C_2
REMARK    2  A    between atoms: C_2  and  C_3
REMARK    3  A    between atoms: C_3  and  C_4
REMARK    4  A    between atoms: C_4  and  N_5
REMARK    5  A    between atoms: C_4  and  C_13
REMARK    6  A    between atoms: N_5  and  C_6
REMARK    7  A    between atoms: C_6  and  C_7
REMARK    8  A    between atoms: C_16  and  C_17
REMARK    9  A    between atoms: C_17  and  N_18
REMARK   10  A    between atoms: C_19  and  C_21
REMARK                            x       y       z     vdW  Elec       q    Type
REMARK                         _______ _______ _______ _____ _____    ______ ____
ROOT
ATOM      1  C   UNL     1      45.758   4.535  12.393  0.00  0.00    +0.000 A 
ATOM      2  C   UNL     1      46.408   4.241  13.605  0.00  0.00    +0.000 A 
ATOM      3  C   UNL     1      47.339   5.127  14.159  0.00  0.00    +0.000 A 
ATOM      4  C   UNL     1      47.590   6.361  13.551  0.00  0.00    +0.000 A 
ATOM      5  C   UNL     1      46.965   6.650  12.336  0.00  0.00    +0.000 A 
ATOM      6  C   UNL     1      46.077   5.746  11.758  0.00  0.00    +0.000 A 
ENDROOT
BRANCH   1   7
ATOM      7  C   UNL     1      44.818   3.507  11.750  0.00  0.00    +0.000 C 
BRANCH   7   8
ATOM      8  N   UNL     1      44.696   3.728  10.297  0.00  0.00    +0.000 NA
ATOM      9  H   UNL     1      45.557   4.159   9.960  0.00  0.00    +0.000 HD
BRANCH   8  10
ATOM     10  C   UNL     1      44.517   2.472   9.539  0.00  0.00    +0.000 C 
BRANCH  10  11
ATOM     11  C   UNL     1      45.541   2.320   8.435  0.00  0.00    +0.000 A 
ATOM     12  C   UNL     1      45.865   3.411   7.638  0.00  0.00    +0.000 A 
ATOM     13  C   UNL     1      46.881   3.269   6.701  0.00  0.00    +0.000 A 
ATOM     14  C   UNL     1      47.528   2.045   6.572  0.00  0.00    +0.000 A 
ATOM     15  C   UNL     1      47.121   0.999   7.382  0.00  0.00    +0.000 A 
ATOM     16  N   UNL     1      46.150   1.110   8.311  0.00  0.00    +0.000 NA
ENDBRANCH  10  11
ENDBRANCH   8  10
ENDBRANCH   7   8
BRANCH   7  17
ATOM     17  C   UNL     1      43.424   3.536  12.449  0.00  0.00    +0.000 C 
BRANCH  17  19
ATOM     18  C   UNL     1      42.291   5.684  11.819  0.00  0.00    +0.000 C 
ATOM     19  C   UNL     1      42.916   4.885  12.964  0.00  0.00    +0.000 C 
ENDBRANCH  17  19
ENDBRANCH   7  17
ENDBRANCH   1   7
BRANCH   4  20
ATOM     20  C   UNL     1      48.521   7.368  14.162  0.00  0.00    +0.000 C 
BRANCH  20  21
ATOM     21  N   UNL     1      48.402   7.407  15.594  0.00  0.00    +0.000 N 
ATOM     22  C   UNL     1      49.385   6.878  16.391  0.00  0.00    +0.000 C 
ATOM     23  O   UNL     1      50.412   6.391  15.925  0.00  0.00    +0.000 OA
ATOM     24  H   UNL     1      47.474   7.552  15.978  0.00  0.00    +0.000 HD
BRANCH  22  25
ATOM     25  C   UNL     1      49.179   6.988  17.839  0.00  0.00    +0.000 A 
ATOM     26  C   UNL     1      49.189   8.239  18.443  0.00  0.00    +0.000 A 
ATOM     27  S   UNL     1      48.873   8.190  20.118  0.00  0.00    +0.000 S 
ATOM     28  C   UNL     1      48.778   6.491  20.106  0.00  0.00    +0.000 A 
ATOM     29  N   UNL     1      48.548   5.795  21.251  0.00  0.00    +0.000 NA
ATOM     30  C   UNL     1      48.529   4.512  21.100  0.00  0.00    +0.000 A 
ATOM     31  N   UNL     1      48.709   3.862  19.906  0.00  0.00    +0.000 N 
ATOM     32  C   UNL     1      48.920   4.522  18.715  0.00  0.00    +0.000 A 
ATOM     33  O   UNL     1      49.055   3.918  17.664  0.00  0.00    +0.000 OA
ATOM     34  C   UNL     1      48.959   5.970  18.837  0.00  0.00    +0.000 A 
ATOM     35  H   UNL     1      48.676   2.854  19.848  0.00  0.00    +0.000 HD
ENDBRANCH  22  25
ENDBRANCH  20  21
ENDBRANCH   4  20
TORSDOF 9
ENDMDL
MODEL 2
REMARK VINA RESULT:    -8.045      2.198      2.576
REMARK INTER + INTRA:         -13.522
REMARK INTER:                 -12.244
REMARK INTRA:                  -1.277
REMARK UNBOUND:                -1.244
REMARK  Name = 
REMARK  10 active torsions:
REMARK  status: ('A' for Active; 'I' for Inactive)
REMARK    1  A    between atoms: C_1  and  C_2
REMARK    2  A    between atoms: C_2  and  C_3
REMARK    3  A    between atoms: C_3  and  C_4
REMARK    4  A    between atoms: C_4  and  N_5
REMARK    5  A    between atoms: C_4  and  C_13
REMARK    6  A    between atoms: N_5  and  C_6
REMARK    7  A    between atoms: C_6  and  C_7
REMARK    8  A    between atoms: C_16  and  C_17
REMARK    9  A    between atoms: C_17  and  N_18
REMARK   10  A    between atoms: C_19  and  C_21
REMARK                            x       y       z     vdW  Elec       q    Type
REMARK                         _______ _______ _______ _____ _____    ______ ____
ROOT
ATOM      1  C   UNL     1      45.868   4.485  12.642  0.00  0.00    +0.000 A 
ATOM      2  C   UNL     1      46.296   4.045  13.908  0.00  0.00    +0.000 A 
ATOM      3  C   UNL     1      47.177   4.811  14.680  0.00  0.00    +0.000 A 
ATOM      4  C   UNL     1      47.594   6.070  14.236  0.00  0.00    +0.000 A 
ATOM      5  C   UNL     1      47.192   6.503  12.970  0.00  0.00    +0.000 A 
ATOM      6  C   UNL     1      46.356   5.718  12.180  0.00  0.00    +0.000 A 
ENDROOT
BRANCH   1   7
ATOM      7  C   UNL     1      44.984   3.585  11.768  0.00  0.00    +0.000 C 
BRANCH   7   8
ATOM      8  N   UNL     1      45.039   3.993  10.353  0.00  0.00    +0.000 NA
ATOM      9  H   UNL     1      46.015   4.145  10.095  0.00  0.00    +0.000 HD
BRANCH   8  10
ATOM     10  C   UNL     1      44.506   2.963   9.438  0.00  0.00    +0.000 C 
BRANCH  10  11
ATOM     11  C   UNL     1      45.524   2.536   8.402  0.00  0.00    +0.000 A 
ATOM     12  C   UNL     1      46.011   3.464   7.489  0.00  0.00    +0.000 A 
ATOM     13  C   UNL     1      47.019   3.070   6.618  0.00  0.00    +0.000 A 
ATOM     14  C   UNL     1      47.496   1.765   6.667  0.00  0.00    +0.000 A 
ATOM     15  C   UNL     1      46.932   0.895   7.583  0.00  0.00    +0.000 A 
ATOM     16  N   UNL     1      45.965   1.250   8.452  0.00  0.00    +0.000 NA
ENDBRANCH  10  11
ENDBRANCH   8  10
ENDBRANCH   7   8
BRANCH   7  17
ATOM     17  C   UNL     1      43.519   3.581  12.303  0.00  0.00    +0.000 C 
BRANCH  17  19
ATOM     18  C   UNL     1      42.357   5.728  11.726  0.00  0.00    +0.000 C 
ATOM     19  C   UNL     1      42.962   4.894  12.858  0.00  0.00    +0.000 C 
ENDBRANCH  17  19
ENDBRANCH   7  17
ENDBRANCH   1   7
BRANCH   4  20
ATOM     20  C   UNL     1      48.473   6.953  15.075  0.00  0.00    +0.000 C 
BRANCH  20  21
ATOM     21  N   UNL     1      49.588   6.230  15.624  0.00  0.00    +0.000 N 
ATOM     22  C   UNL     1      49.574   5.815  16.932  0.00  0.00    +0.000 C 
ATOM     23  O   UNL     1      48.610   6.007  17.668  0.00  0.00    +0.000 OA
ATOM     24  H   UNL     1      50.472   6.298  15.132  0.00  0.00    +0.000 HD
BRANCH  22  25
ATOM     25  C   UNL     1      50.749   5.065  17.389  0.00  0.00    +0.000 A 
ATOM     26  C   UNL     1      51.850   5.746  17.888  0.00  0.00    +0.000 A 
ATOM     27  S   UNL     1      53.099   4.721  18.431  0.00  0.00    +0.000 S 
ATOM     28  C   UNL     1      52.239   3.331  17.956  0.00  0.00    +0.000 A 
ATOM     29  N   UNL     1      52.768   2.089  18.122  0.00  0.00    +0.000 NA
ATOM     30  C   UNL     1      52.017   1.130  17.693  0.00  0.00    +0.000 A 
ATOM     31  N   UNL     1      50.782   1.298  17.122  0.00  0.00    +0.000 N 
ATOM     32  C   UNL     1      50.191   2.531  16.955  0.00  0.00    +0.000 A 
ATOM     33  O   UNL     1      49.081   2.648  16.463  0.00  0.00    +0.000 OA
ATOM     34  C   UNL     1      51.005   3.645  17.416  0.00  0.00    +0.000 A 
ATOM     35  H   UNL     1      50.237   0.506  16.811  0.00  0.00    +0.000 HD
ENDBRANCH  22  25
ENDBRANCH  20  21
ENDBRANCH   4  20
TORSDOF 9
ENDMDL
MODEL 3
REMARK VINA RESULT:    -7.678      1.430      1.994
REMARK INTER + INTRA:         -12.961
REMARK INTER:                 -11.522
REMARK INTRA:                  -1.439
REMARK UNBOUND:                -1.244
REMARK  Name = 
REMARK  10 active torsions:
REMARK  status: ('A' for Active; 'I' for Inactive)
REMARK    1  A    between atoms: C_1  and  C_2
REMARK    2  A    between atoms: C_2  and  C_3
REMARK    3  A    between atoms: C_3  and  C_4
REMARK    4  A    between atoms: C_4  and  N_5
REMARK    5  A    between atoms: C_4  and  C_13
REMARK    6  A    between atoms: N_5  and  C_6
REMARK    7  A    between atoms: C_6  and  C_7
REMARK    8  A    between atoms: C_16  and  C_17
REMARK    9  A    between atoms: C_17  and  N_18
REMARK   10  A    between atoms: C_19  and  C_21
REMARK                            x       y       z     vdW  Elec       q    Type
REMARK                         _______ _______ _______ _____ _____    ______ ____
ROOT
ATOM      1  C   UNL     1      45.463   4.391  12.343  0.00  0.00    +0.000 A 
ATOM      2  C   UNL     1      45.871   3.936  13.611  0.00  0.00    +0.000 A 
ATOM      3  C   UNL     1      46.870   4.600  14.330  0.00  0.00    +0.000 A 
ATOM      4  C   UNL     1      47.436   5.778  13.832  0.00  0.00    +0.000 A 
ATOM      5  C   UNL     1      47.053   6.222  12.564  0.00  0.00    +0.000 A 
ATOM      6  C   UNL     1      46.096   5.532  11.825  0.00  0.00    +0.000 A 
ENDROOT
BRANCH   1   7
ATOM      7  C   UNL     1      44.440   3.590  11.526  0.00  0.00    +0.000 C 
BRANCH   7   8
ATOM      8  N   UNL     1      45.103   2.582  10.680  0.00  0.00    +0.000 NA
ATOM      9  H   UNL     1      44.979   1.664  11.108  0.00  0.00    +0.000 HD
BRANCH   8  10
ATOM     10  C   UNL     1      44.526   2.505   9.322  0.00  0.00    +0.000 C 
BRANCH  10  11
ATOM     11  C   UNL     1      45.589   2.333   8.257  0.00  0.00    +0.000 A 
ATOM     12  C   UNL     1      45.893   3.390   7.408  0.00  0.00    +0.000 A 
ATOM     13  C   UNL     1      46.942   3.238   6.510  0.00  0.00    +0.000 A 
ATOM     14  C   UNL     1      47.642   2.037   6.472  0.00  0.00    +0.000 A 
ATOM     15  C   UNL     1      47.253   1.023   7.329  0.00  0.00    +0.000 A 
ATOM     16  N   UNL     1      46.251   1.145   8.222  0.00  0.00    +0.000 NA
ENDBRANCH  10  11
ENDBRANCH   8  10
ENDBRANCH   7   8
BRANCH   7  17
ATOM     17  C   UNL     1      43.554   4.553  10.677  0.00  0.00    +0.000 C 
BRANCH  17  19
ATOM     18  C   UNL     1      42.878   6.874  11.346  0.00  0.00    +0.000 C 
ATOM     19  C   UNL     1      42.508   5.391  11.415  0.00  0.00    +0.000 C 
ENDBRANCH  17  19
ENDBRANCH   7  17
ENDBRANCH   1   7
BRANCH   4  20
ATOM     20  C   UNL     1      48.451   6.560  14.614  0.00  0.00    +0.000 C 
BRANCH  20  21
ATOM     21  N   UNL     1      48.258   6.418  16.032  0.00  0.00    +0.000 N 
ATOM     22  C   UNL     1      49.290   6.012  16.839  0.00  0.00    +0.000 C 
ATOM     23  O   UNL     1      50.416   5.793  16.400  0.00  0.00    +0.000 OA
ATOM     24  H   UNL     1      47.303   6.333  16.363  0.00  0.00    +0.000 HD
BRANCH  22  25
ATOM     25  C   UNL     1      48.997   5.921  18.274  0.00  0.00    +0.000 A 
ATOM     26  C   UNL     1      49.289   4.752  18.963  0.00  0.00    +0.000 A 
ATOM     27  S   UNL     1      48.943   4.839  20.631  0.00  0.00    +0.000 S 
ATOM     28  C   UNL     1      48.330   6.419  20.477  0.00  0.00    +0.000 A 
ATOM     29  N   UNL     1      47.834   7.085  21.554  0.00  0.00    +0.000 NA
ATOM     30  C   UNL     1      47.377   8.263  21.286  0.00  0.00    +0.000 A 
ATOM     31  N   UNL     1      47.381   8.841  20.042  0.00  0.00    +0.000 N 
ATOM     32  C   UNL     1      47.894   8.218  18.926  0.00  0.00    +0.000 A 
ATOM     33  O   UNL     1      47.904   8.765  17.835  0.00  0.00    +0.000 OA
ATOM     34  C   UNL     1      48.412   6.883  19.176  0.00  0.00    +0.000 A 
ATOM     35  H   UNL     1      47.016   9.771  19.896  0.00  0.00    +0.000 HD
ENDBRANCH  22  25
ENDBRANCH  20  21
ENDBRANCH   4  20
TORSDOF 9
ENDMDL
MODEL 4
REMARK VINA RESULT:    -7.162      4.043      6.157
REMARK INTER + INTRA:         -12.174
REMARK INTER:                 -10.871
REMARK INTRA:                  -1.302
REMARK UNBOUND:                -1.244
REMARK  Name = 
REMARK  10 active torsions:
REMARK  status: ('A' for Active; 'I' for Inactive)
REMARK    1  A    between atoms: C_1  and  C_2
REMARK    2  A    between atoms: C_2  and  C_3
REMARK    3  A    between atoms: C_3  and  C_4
REMARK    4  A    between atoms: C_4  and  N_5
REMARK    5  A    between atoms: C_4  and  C_13
REMARK    6  A    between atoms: N_5  and  C_6
REMARK    7  A    between atoms: C_6  and  C_7
REMARK    8  A    between atoms: C_16  and  C_17
REMARK    9  A    between atoms: C_17  and  N_18
REMARK   10  A    between atoms: C_19  and  C_21
REMARK                            x       y       z     vdW  Elec       q    Type
REMARK                         _______ _______ _______ _____ _____    ______ ____
ROOT
ATOM      1  C   UNL     1      45.655   4.638  12.207  0.00  0.00    +0.000 A 
ATOM      2  C   UNL     1      46.330   4.267  13.384  0.00  0.00    +0.000 A 
ATOM      3  C   UNL     1      47.409   5.017  13.865  0.00  0.00    +0.000 A 
ATOM      4  C   UNL     1      47.794   6.196  13.220  0.00  0.00    +0.000 A 
ATOM      5  C   UNL     1      47.144   6.558  12.038  0.00  0.00    +0.000 A 
ATOM      6  C   UNL     1      46.103   5.784  11.531  0.00  0.00    +0.000 A 
ENDROOT
BRANCH   1   7
ATOM      7  C   UNL     1      44.541   3.747  11.640  0.00  0.00    +0.000 C 
BRANCH   7   8
ATOM      8  N   UNL     1      45.098   2.621  10.869  0.00  0.00    +0.000 NA
ATOM      9  H   UNL     1      44.911   1.755  11.375  0.00  0.00    +0.000 HD
BRANCH   8  10
ATOM     10  C   UNL     1      44.481   2.481   9.533  0.00  0.00    +0.000 C 
BRANCH  10  11
ATOM     11  C   UNL     1      45.515   2.390   8.432  0.00  0.00    +0.000 A 
ATOM     12  C   UNL     1      45.799   3.509   7.657  0.00  0.00    +0.000 A 
ATOM     13  C   UNL     1      46.824   3.426   6.723  0.00  0.00    +0.000 A 
ATOM     14  C   UNL     1      47.521   2.231   6.575  0.00  0.00    +0.000 A 
ATOM     15  C   UNL     1      47.152   1.155   7.363  0.00  0.00    +0.000 A 
ATOM     16  N   UNL     1      46.173   1.209   8.288  0.00  0.00    +0.000 NA
ENDBRANCH  10  11
ENDBRANCH   8  10
ENDBRANCH   7   8
BRANCH   7  17
ATOM     17  C   UNL     1      43.555   4.595  10.779  0.00  0.00    +0.000 C 
BRANCH  17  19
ATOM     18  C   UNL     1      42.698   5.303  13.028  0.00  0.00    +0.000 C 
ATOM     19  C   UNL     1      42.489   5.409  11.515  0.00  0.00    +0.000 C 
ENDBRANCH  17  19
ENDBRANCH   7  17
ENDBRANCH   1   7
BRANCH   4  20
ATOM     20  C   UNL     1      48.895   7.067  13.755  0.00  0.00    +0.000 C 
BRANCH  20  21
ATOM     21  N   UNL     1      49.423   7.942  12.744  0.00  0.00    +0.000 N 
ATOM     22  C   UNL     1      50.403   8.851  13.051  0.00  0.00    +0.000 C 
ATOM     23  O   UNL     1      50.892   8.930  14.175  0.00  0.00    +0.000 OA
ATOM     24  H   UNL     1      48.864   8.075  11.908  0.00  0.00    +0.000 HD
BRANCH  22  25
ATOM     25  C   UNL     1      50.891   9.680  11.944  0.00  0.00    +0.000 A 
ATOM     26  C   UNL     1      52.251   9.727  11.666  0.00  0.00    +0.000 A 
ATOM     27  S   UNL     1      52.638  10.688  10.312  0.00  0.00    +0.000 S 
ATOM     28  C   UNL     1      51.009  11.128  10.090  0.00  0.00    +0.000 A 
ATOM     29  N   UNL     1      50.642  11.975   9.091  0.00  0.00    +0.000 NA
ATOM     30  C   UNL     1      49.379  12.243   9.058  0.00  0.00    +0.000 A 
ATOM     31  N   UNL     1      48.447  11.734   9.926  0.00  0.00    +0.000 N 
ATOM     32  C   UNL     1      48.764  10.854  10.937  0.00  0.00    +0.000 A 
ATOM     33  O   UNL     1      47.910  10.400  11.681  0.00  0.00    +0.000 OA
ATOM     34  C   UNL     1      50.179  10.529  11.020  0.00  0.00    +0.000 A 
ATOM     35  H   UNL     1      47.470  11.975   9.845  0.00  0.00    +0.000 HD
ENDBRANCH  22  25
ENDBRANCH  20  21
ENDBRANCH   4  20
TORSDOF 9
ENDMDL
MODEL 5
REMARK VINA RESULT:    -7.131      3.530      8.613
REMARK INTER + INTRA:         -12.126
REMARK INTER:                 -10.274
REMARK INTRA:                  -1.852
REMARK UNBOUND:                -1.244
REMARK  Name = 
REMARK  10 active torsions:
REMARK  status: ('A' for Active; 'I' for Inactive)
REMARK    1  A    between atoms: C_1  and  C_2
REMARK    2  A    between atoms: C_2  and  C_3
REMARK    3  A    between atoms: C_3  and  C_4
REMARK    4  A    between atoms: C_4  and  N_5
REMARK    5  A    between atoms: C_4  and  C_13
REMARK    6  A    between atoms: N_5  and  C_6
REMARK    7  A    between atoms: C_6  and  C_7
REMARK    8  A    between atoms: C_16  and  C_17
REMARK    9  A    between atoms: C_17  and  N_18
REMARK   10  A    between atoms: C_19  and  C_21
REMARK                            x       y       z     vdW  Elec       q    Type
REMARK                         _______ _______ _______ _____ _____    ______ ____
ROOT
ATOM      1  C   UNL     1      48.543   7.939  16.474  0.00  0.00    +0.000 A 
ATOM      2  C   UNL     1      48.855   6.793  15.719  0.00  0.00    +0.000 A 
ATOM      3  C   UNL     1      48.769   6.802  14.323  0.00  0.00    +0.000 A 
ATOM      4  C   UNL     1      48.439   7.978  13.642  0.00  0.00    +0.000 A 
ATOM      5  C   UNL     1      48.105   9.113  14.385  0.00  0.00    +0.000 A 
ATOM      6  C   UNL     1      48.141   9.089  15.777  0.00  0.00    +0.000 A 
ENDROOT
BRANCH   1   7
ATOM      7  C   UNL     1      48.545   7.879  18.008  0.00  0.00    +0.000 C 
BRANCH   7   8
ATOM      8  N   UNL     1      47.336   7.208  18.517  0.00  0.00    +0.000 NA
ATOM      9  H   UNL     1      46.765   6.917  17.723  0.00  0.00    +0.000 HD
BRANCH   8  10
ATOM     10  C   UNL     1      47.642   5.991  19.298  0.00  0.00    +0.000 C 
BRANCH  10  11
ATOM     11  C   UNL     1      48.006   4.819  18.411  0.00  0.00    +0.000 A 
ATOM     12  C   UNL     1      49.292   4.295  18.452  0.00  0.00    +0.000 A 
ATOM     13  C   UNL     1      49.568   3.157  17.705  0.00  0.00    +0.000 A 
ATOM     14  C   UNL     1      48.566   2.588  16.928  0.00  0.00    +0.000 A 
ATOM     15  C   UNL     1      47.321   3.192  16.917  0.00  0.00    +0.000 A 
ATOM     16  N   UNL     1      47.017   4.286  17.643  0.00  0.00    +0.000 NA
ENDBRANCH  10  11
ENDBRANCH   8  10
ENDBRANCH   7   8
BRANCH   7  17
ATOM     17  C   UNL     1      48.694   9.313  18.605  0.00  0.00    +0.000 C 
BRANCH  17  19
ATOM     18  C   UNL     1      47.351  11.430  18.680  0.00  0.00    +0.000 C 
ATOM     19  C   UNL     1      47.439   9.982  19.167  0.00  0.00    +0.000 C 
ENDBRANCH  17  19
ENDBRANCH   7  17
ENDBRANCH   1   7
BRANCH   4  20
ATOM     20  C   UNL     1      48.417   8.043  12.142  0.00  0.00    +0.000 C 
BRANCH  20  21
ATOM     21  N   UNL     1      47.701   6.936  11.569  0.00  0.00    +0.000 N 
ATOM     22  C   UNL     1      46.335   6.977  11.447  0.00  0.00    +0.000 C 
ATOM     23  O   UNL     1      45.679   7.960  11.780  0.00  0.00    +0.000 OA
ATOM     24  H   UNL     1      48.178   6.041  11.541  0.00  0.00    +0.000 HD
BRANCH  22  25
ATOM     25  C   UNL     1      45.702   5.807  10.828  0.00  0.00    +0.000 A 
ATOM     26  C   UNL     1      45.845   5.587   9.465  0.00  0.00    +0.000 A 
ATOM     27  S   UNL     1      45.100   4.152   8.923  0.00  0.00    +0.000 S 
ATOM     28  C   UNL     1      44.502   3.810  10.480  0.00  0.00    +0.000 A 
ATOM     29  N   UNL     1      43.741   2.708  10.711  0.00  0.00    +0.000 NA
ATOM     30  C   UNL     1      43.334   2.588  11.930  0.00  0.00    +0.000 A 
ATOM     31  N   UNL     1      43.627   3.465  12.943  0.00  0.00    +0.000 N 
ATOM     32  C   UNL     1      44.415   4.582  12.767  0.00  0.00    +0.000 A 
ATOM     33  O   UNL     1      44.677   5.333  13.692  0.00  0.00    +0.000 OA
ATOM     34  C   UNL     1      44.890   4.764  11.405  0.00  0.00    +0.000 A 
ATOM     35  H   UNL     1      43.285   3.314  13.882  0.00  0.00    +0.000 HD
ENDBRANCH  22  25
ENDBRANCH  20  21
ENDBRANCH   4  20
TORSDOF 9
ENDMDL
MODEL 6
REMARK VINA RESULT:    -7.079      2.129      2.727
REMARK INTER + INTRA:         -12.047
REMARK INTER:                 -10.899
REMARK INTRA:                  -1.148
REMARK UNBOUND:                -1.244
REMARK  Name = 
REMARK  10 active torsions:
REMARK  status: ('A' for Active; 'I' for Inactive)
REMARK    1  A    between atoms: C_1  and  C_2
REMARK    2  A    between atoms: C_2  and  C_3
REMARK    3  A    between atoms: C_3  and  C_4
REMARK    4  A    between atoms: C_4  and  N_5
REMARK    5  A    between atoms: C_4  and  C_13
REMARK    6  A    between atoms: N_5  and  C_6
REMARK    7  A    between atoms: C_6  and  C_7
REMARK    8  A    between atoms: C_16  and  C_17
REMARK    9  A    between atoms: C_17  and  N_18
REMARK   10  A    between atoms: C_19  and  C_21
REMARK                            x       y       z     vdW  Elec       q    Type
REMARK                         _______ _______ _______ _____ _____    ______ ____
ROOT
ATOM      1  C   UNL     1      45.731   6.025  11.815  0.00  0.00    +0.000 A 
ATOM      2  C   UNL     1      45.609   7.427  11.859  0.00  0.00    +0.000 A 
ATOM      3  C   UNL     1      46.394   8.194  12.726  0.00  0.00    +0.000 A 
ATOM      4  C   UNL     1      47.371   7.585  13.520  0.00  0.00    +0.000 A 
ATOM      5  C   UNL     1      47.482   6.193  13.499  0.00  0.00    +0.000 A 
ATOM      6  C   UNL     1      46.666   5.425  12.673  0.00  0.00    +0.000 A 
ENDROOT
BRANCH   1   7
ATOM      7  C   UNL     1      44.791   5.194  10.932  0.00  0.00    +0.000 C 
BRANCH   7   8
ATOM      8  N   UNL     1      45.267   5.149   9.538  0.00  0.00    +0.000 NA
ATOM      9  H   UNL     1      46.272   4.973   9.542  0.00  0.00    +0.000 HD
BRANCH   8  10
ATOM     10  C   UNL     1      44.642   4.063   8.754  0.00  0.00    +0.000 C 
BRANCH  10  11
ATOM     11  C   UNL     1      45.662   3.261   7.973  0.00  0.00    +0.000 A 
ATOM     12  C   UNL     1      45.911   1.938   8.317  0.00  0.00    +0.000 A 
ATOM     13  C   UNL     1      46.774   1.196   7.521  0.00  0.00    +0.000 A 
ATOM     14  C   UNL     1      47.377   1.797   6.421  0.00  0.00    +0.000 A 
ATOM     15  C   UNL     1      47.102   3.129   6.168  0.00  0.00    +0.000 A 
ATOM     16  N   UNL     1      46.257   3.870   6.912  0.00  0.00    +0.000 NA
ENDBRANCH  10  11
ENDBRANCH   8  10
ENDBRANCH   7   8
BRANCH   7  17
ATOM     17  C   UNL     1      43.335   5.749  11.019  0.00  0.00    +0.000 C 
BRANCH  17  19
ATOM     18  C   UNL     1      43.199   4.201  12.988  0.00  0.00    +0.000 C 
ATOM     19  C   UNL     1      42.463   5.274  12.183  0.00  0.00    +0.000 C 
ENDBRANCH  17  19
ENDBRANCH   7  17
ENDBRANCH   1   7
BRANCH   4  20
ATOM     20  C   UNL     1      48.286   8.387  14.402  0.00  0.00    +0.000 C 
BRANCH  20  21
ATOM     21  N   UNL     1      49.422   7.618  14.832  0.00  0.00    +0.000 N 
ATOM     22  C   UNL     1      49.703   7.476  16.167  0.00  0.00    +0.000 C 
ATOM     23  O   UNL     1      48.987   7.959  17.040  0.00  0.00    +0.000 OA
ATOM     24  H   UNL     1      50.152   7.447  14.148  0.00  0.00    +0.000 HD
BRANCH  22  25
ATOM     25  C   UNL     1      50.870   6.654  16.502  0.00  0.00    +0.000 A 
ATOM     26  C   UNL     1      52.146   7.116  16.210  0.00  0.00    +0.000 A 
ATOM     27  S   UNL     1      53.387   6.066  16.722  0.00  0.00    +0.000 S 
ATOM     28  C   UNL     1      52.261   4.925  17.293  0.00  0.00    +0.000 A 
ATOM     29  N   UNL     1      52.671   3.752  17.845  0.00  0.00    +0.000 NA
ATOM     30  C   UNL     1      51.709   2.970  18.209  0.00  0.00    +0.000 A 
ATOM     31  N   UNL     1      50.375   3.259  18.081  0.00  0.00    +0.000 N 
ATOM     32  C   UNL     1      49.908   4.443  17.553  0.00  0.00    +0.000 A 
ATOM     33  O   UNL     1      48.715   4.681  17.472  0.00  0.00    +0.000 OA
ATOM     34  C   UNL     1      50.957   5.352  17.119  0.00  0.00    +0.000 A 
ATOM     35  H   UNL     1      49.667   2.609  18.393  0.00  0.00    +0.000 HD
ENDBRANCH  22  25
ENDBRANCH  20  21
ENDBRANCH   4  20
TORSDOF 9
ENDMDL
MODEL 7
REMARK VINA RESULT:    -7.057      4.660      9.668
REMARK INTER + INTRA:         -12.014
REMARK INTER:                 -10.582
REMARK INTRA:                  -1.432
REMARK UNBOUND:                -1.244
REMARK  Name = 
REMARK  10 active torsions:
REMARK  status: ('A' for Active; 'I' for Inactive)
REMARK    1  A    between atoms: C_1  and  C_2
REMARK    2  A    between atoms: C_2  and  C_3
REMARK    3  A    between atoms: C_3  and  C_4
REMARK    4  A    between atoms: C_4  and  N_5
REMARK    5  A    between atoms: C_4  and  C_13
REMARK    6  A    between atoms: N_5  and  C_6
REMARK    7  A    between atoms: C_6  and  C_7
REMARK    8  A    between atoms: C_16  and  C_17
REMARK    9  A    between atoms: C_17  and  N_18
REMARK   10  A    between atoms: C_19  and  C_21
REMARK                            x       y       z     vdW  Elec       q    Type
REMARK                         _______ _______ _______ _____ _____    ______ ____
ROOT
ATOM      1  C   UNL     1      51.415   3.500  17.953  0.00  0.00    +0.000 A 
ATOM      2  C   UNL     1      50.573   4.611  18.145  0.00  0.00    +0.000 A 
ATOM      3  C   UNL     1      49.232   4.579  17.749  0.00  0.00    +0.000 A 
ATOM      4  C   UNL     1      48.680   3.410  17.217  0.00  0.00    +0.000 A 
ATOM      5  C   UNL     1      49.515   2.310  17.001  0.00  0.00    +0.000 A 
ATOM      6  C   UNL     1      50.862   2.360  17.348  0.00  0.00    +0.000 A 
ENDROOT
BRANCH   1   7
ATOM      7  C   UNL     1      52.907   3.590  18.299  0.00  0.00    +0.000 C 
BRANCH   7   8
ATOM      8  N   UNL     1      53.239   2.745  19.461  0.00  0.00    +0.000 NA
ATOM      9  H   UNL     1      52.579   1.968  19.498  0.00  0.00    +0.000 HD
BRANCH   8  10
ATOM     10  C   UNL     1      54.592   2.158  19.374  0.00  0.00    +0.000 C 
BRANCH  10  11
ATOM     11  C   UNL     1      54.625   0.925  18.496  0.00  0.00    +0.000 A 
ATOM     12  C   UNL     1      55.004   1.035  17.164  0.00  0.00    +0.000 A 
ATOM     13  C   UNL     1      55.125  -0.126  16.410  0.00  0.00    +0.000 A 
ATOM     14  C   UNL     1      54.848  -1.355  16.997  0.00  0.00    +0.000 A 
ATOM     15  C   UNL     1      54.444  -1.374  18.320  0.00  0.00    +0.000 A 
ATOM     16  N   UNL     1      54.333  -0.268  19.082  0.00  0.00    +0.000 NA
ENDBRANCH  10  11
ENDBRANCH   8  10
ENDBRANCH   7   8
BRANCH   7  17
ATOM     17  C   UNL     1      53.318   5.076  18.540  0.00  0.00    +0.000 C 
BRANCH  17  19
ATOM     18  C   UNL     1      53.386   6.237  16.318  0.00  0.00    +0.000 C 
ATOM     19  C   UNL     1      54.222   5.740  17.499  0.00  0.00    +0.000 C 
ENDBRANCH  17  19
ENDBRANCH   7  17
ENDBRANCH   1   7
BRANCH   4  20
ATOM     20  C   UNL     1      47.225   3.315  16.857  0.00  0.00    +0.000 C 
BRANCH  20  21
ATOM     21  N   UNL     1      46.837   4.338  15.925  0.00  0.00    +0.000 N 
ATOM     22  C   UNL     1      46.929   4.123  14.574  0.00  0.00    +0.000 C 
ATOM     23  O   UNL     1      47.304   3.050  14.108  0.00  0.00    +0.000 OA
ATOM     24  H   UNL     1      46.786   5.289  16.276  0.00  0.00    +0.000 HD
BRANCH  22  25
ATOM     25  C   UNL     1      46.487   5.221  13.708  0.00  0.00    +0.000 A 
ATOM     26  C   UNL     1      47.297   6.336  13.542  0.00  0.00    +0.000 A 
ATOM     27  S   UNL     1      46.661   7.486  12.455  0.00  0.00    +0.000 S 
ATOM     28  C   UNL     1      45.249   6.564  12.221  0.00  0.00    +0.000 A 
ATOM     29  N   UNL     1      44.254   7.003  11.404  0.00  0.00    +0.000 NA
ATOM     30  C   UNL     1      43.232   6.216  11.341  0.00  0.00    +0.000 A 
ATOM     31  N   UNL     1      43.117   5.025  12.013  0.00  0.00    +0.000 N 
ATOM     32  C   UNL     1      44.106   4.525  12.831  0.00  0.00    +0.000 A 
ATOM     33  O   UNL     1      43.986   3.453  13.399  0.00  0.00    +0.000 OA
ATOM     34  C   UNL     1      45.276   5.383  12.941  0.00  0.00    +0.000 A 
ATOM     35  H   UNL     1      42.294   4.448  11.917  0.00  0.00    +0.000 HD
ENDBRANCH  22  25
ENDBRANCH  20  21
ENDBRANCH   4  20
TORSDOF 9
ENDMDL
MODEL 8
REMARK VINA RESULT:    -6.960      1.857      2.429
REMARK INTER + INTRA:         -11.866
REMARK INTER:                 -10.647
REMARK INTRA:                  -1.219
REMARK UNBOUND:                -1.244
REMARK  Name = 
REMARK  10 active torsions:
REMARK  status: ('A' for Active; 'I' for Inactive)
REMARK    1  A    between atoms: C_1  and  C_2
REMARK    2  A    between atoms: C_2  and  C_3
REMARK    3  A    between atoms: C_3  and  C_4
REMARK    4  A    between atoms: C_4  and  N_5
REMARK    5  A    between atoms: C_4  and  C_13
REMARK    6  A    between atoms: N_5  and  C_6
REMARK    7  A    between atoms: C_6  and  C_7
REMARK    8  A    between atoms: C_16  and  C_17
REMARK    9  A    between atoms: C_17  and  N_18
REMARK   10  A    between atoms: C_19  and  C_21
REMARK                            x       y       z     vdW  Elec       q    Type
REMARK                         _______ _______ _______ _____ _____    ______ ____
ROOT
ATOM      1  C   UNL     1      45.708   4.518  12.242  0.00  0.00    +0.000 A 
ATOM      2  C   UNL     1      46.315   4.288  13.491  0.00  0.00    +0.000 A 
ATOM      3  C   UNL     1      47.227   5.202  14.030  0.00  0.00    +0.000 A 
ATOM      4  C   UNL     1      47.500   6.403  13.368  0.00  0.00    +0.000 A 
ATOM      5  C   UNL     1      46.919   6.628  12.118  0.00  0.00    +0.000 A 
ATOM      6  C   UNL     1      46.051   5.695  11.557  0.00  0.00    +0.000 A 
ENDROOT
BRANCH   1   7
ATOM      7  C   UNL     1      44.790   3.457  11.621  0.00  0.00    +0.000 C 
BRANCH   7   8
ATOM      8  N   UNL     1      44.708   3.612  10.158  0.00  0.00    +0.000 NA
ATOM      9  H   UNL     1      45.547   4.094   9.833  0.00  0.00    +0.000 HD
BRANCH   8  10
ATOM     10  C   UNL     1      44.652   2.317   9.446  0.00  0.00    +0.000 C 
BRANCH  10  11
ATOM     11  C   UNL     1      45.667   2.236   8.327  0.00  0.00    +0.000 A 
ATOM     12  C   UNL     1      45.930   3.357   7.549  0.00  0.00    +0.000 A 
ATOM     13  C   UNL     1      46.939   3.282   6.597  0.00  0.00    +0.000 A 
ATOM     14  C   UNL     1      47.640   2.093   6.435  0.00  0.00    +0.000 A 
ATOM     15  C   UNL     1      47.292   1.012   7.226  0.00  0.00    +0.000 A 
ATOM     16  N   UNL     1      46.330   1.058   8.169  0.00  0.00    +0.000 NA
ENDBRANCH  10  11
ENDBRANCH   8  10
ENDBRANCH   7   8
BRANCH   7  17
ATOM     17  C   UNL     1      43.377   3.510  12.280  0.00  0.00    +0.000 C 
BRANCH  17  19
ATOM     18  C   UNL     1      42.266   5.706  11.791  0.00  0.00    +0.000 C 
ATOM     19  C   UNL     1      42.921   4.845  12.873  0.00  0.00    +0.000 C 
ENDBRANCH  17  19
ENDBRANCH   7  17
ENDBRANCH   1   7
BRANCH   4  20
ATOM     20  C   UNL     1      48.410   7.442  13.958  0.00  0.00    +0.000 C 
BRANCH  20  21
ATOM     21  N   UNL     1      49.026   6.984  15.174  0.00  0.00    +0.000 N 
ATOM     22  C   UNL     1      48.919   7.716  16.329  0.00  0.00    +0.000 C 
ATOM     23  O   UNL     1      48.271   8.759  16.384  0.00  0.00    +0.000 OA
ATOM     24  H   UNL     1      49.765   6.294  15.088  0.00  0.00    +0.000 HD
BRANCH  22  25
ATOM     25  C   UNL     1      49.562   7.151  17.520  0.00  0.00    +0.000 A 
ATOM     26  C   UNL     1      49.033   6.014  18.114  0.00  0.00    +0.000 A 
ATOM     27  S   UNL     1      49.938   5.456  19.447  0.00  0.00    +0.000 S 
ATOM     28  C   UNL     1      51.030   6.755  19.319  0.00  0.00    +0.000 A 
ATOM     29  N   UNL     1      52.062   6.892  20.194  0.00  0.00    +0.000 NA
ATOM     30  C   UNL     1      52.794   7.937  19.994  0.00  0.00    +0.000 A 
ATOM     31  N   UNL     1      52.596   8.853  18.993  0.00  0.00    +0.000 N 
ATOM     32  C   UNL     1      51.582   8.745  18.065  0.00  0.00    +0.000 A 
ATOM     33  O   UNL     1      51.443   9.563  17.171  0.00  0.00    +0.000 OA
ATOM     34  C   UNL     1      50.724   7.587  18.256  0.00  0.00    +0.000 A 
ATOM     35  H   UNL     1      53.208   9.648  18.882  0.00  0.00    +0.000 HD
ENDBRANCH  22  25
ENDBRANCH  20  21
ENDBRANCH   4  20
TORSDOF 9
ENDMDL
MODEL 9
REMARK VINA RESULT:    -6.843      3.880      5.546
REMARK INTER + INTRA:         -11.687
REMARK INTER:                 -10.172
REMARK INTRA:                  -1.514
REMARK UNBOUND:                -1.244
REMARK  Name = 
REMARK  10 active torsions:
REMARK  status: ('A' for Active; 'I' for Inactive)
REMARK    1  A    between atoms: C_1  and  C_2
REMARK    2  A    between atoms: C_2  and  C_3
REMARK    3  A    between atoms: C_3  and  C_4
REMARK    4  A    between atoms: C_4  and  N_5
REMARK    5  A    between atoms: C_4  and  C_13
REMARK    6  A    between atoms: N_5  and  C_6
REMARK    7  A    between atoms: C_6  and  C_7
REMARK    8  A    between atoms: C_16  and  C_17
REMARK    9  A    between atoms: C_17  and  N_18
REMARK   10  A    between atoms: C_19  and  C_21
REMARK                            x       y       z     vdW  Elec       q    Type
REMARK                         _______ _______ _______ _____ _____    ______ ____
ROOT
ATOM      1  C   UNL     1      45.793   6.235  11.828  0.00  0.00    +0.000 A 
ATOM      2  C   UNL     1      45.539   7.617  11.915  0.00  0.00    +0.000 A 
ATOM      3  C   UNL     1      46.286   8.437  12.766  0.00  0.00    +0.000 A 
ATOM      4  C   UNL     1      47.354   7.909  13.499  0.00  0.00    +0.000 A 
ATOM      5  C   UNL     1      47.598   6.535  13.436  0.00  0.00    +0.000 A 
ATOM      6  C   UNL     1      46.820   5.710  12.627  0.00  0.00    +0.000 A 
ENDROOT
BRANCH   1   7
ATOM      7  C   UNL     1      44.896   5.336  10.967  0.00  0.00    +0.000 C 
BRANCH   7   8
ATOM      8  N   UNL     1      45.380   5.272   9.576  0.00  0.00    +0.000 NA
ATOM      9  H   UNL     1      46.371   5.025   9.587  0.00  0.00    +0.000 HD
BRANCH   8  10
ATOM     10  C   UNL     1      44.688   4.240   8.775  0.00  0.00    +0.000 C 
BRANCH  10  11
ATOM     11  C   UNL     1      45.659   3.319   8.068  0.00  0.00    +0.000 A 
ATOM     12  C   UNL     1      45.818   2.012   8.511  0.00  0.00    +0.000 A 
ATOM     13  C   UNL     1      46.637   1.159   7.781  0.00  0.00    +0.000 A 
ATOM     14  C   UNL     1      47.284   1.636   6.647  0.00  0.00    +0.000 A 
ATOM     15  C   UNL     1      47.098   2.961   6.293  0.00  0.00    +0.000 A 
ATOM     16  N   UNL     1      46.298   3.808   6.971  0.00  0.00    +0.000 NA
ENDBRANCH  10  11
ENDBRANCH   8  10
ENDBRANCH   7   8
BRANCH   7  17
ATOM     17  C   UNL     1      43.416   5.826  11.032  0.00  0.00    +0.000 C 
BRANCH  17  19
ATOM     18  C   UNL     1      43.266   4.202  12.939  0.00  0.00    +0.000 C 
ATOM     19  C   UNL     1      42.562   5.348  12.209  0.00  0.00    +0.000 C 
ENDBRANCH  17  19
ENDBRANCH   7  17
ENDBRANCH   1   7
BRANCH   4  20
ATOM     20  C   UNL     1      48.228   8.777  14.359  0.00  0.00    +0.000 C 
BRANCH  20  21
ATOM     21  N   UNL     1      49.517   8.996  13.761  0.00  0.00    +0.000 N 
ATOM     22  C   UNL     1      50.630   8.361  14.250  0.00  0.00    +0.000 C 
ATOM     23  O   UNL     1      50.570   7.561  15.181  0.00  0.00    +0.000 OA
ATOM     24  H   UNL     1      49.628   9.828  13.191  0.00  0.00    +0.000 HD
BRANCH  22  25
ATOM     25  C   UNL     1      51.893   8.633  13.556  0.00  0.00    +0.000 A 
ATOM     26  C   UNL     1      52.959   9.182  14.255  0.00  0.00    +0.000 A 
ATOM     27  S   UNL     1      54.367   9.375  13.313  0.00  0.00    +0.000 S 
ATOM     28  C   UNL     1      53.580   8.795  11.920  0.00  0.00    +0.000 A 
ATOM     29  N   UNL     1      54.230   8.723  10.727  0.00  0.00    +0.000 NA
ATOM     30  C   UNL     1      53.503   8.290   9.751  0.00  0.00    +0.000 A 
ATOM     31  N   UNL     1      52.189   7.914   9.860  0.00  0.00    +0.000 N 
ATOM     32  C   UNL     1      51.494   7.944  11.049  0.00  0.00    +0.000 A 
ATOM     33  O   UNL     1      50.331   7.582  11.120  0.00  0.00    +0.000 OA
ATOM     34  C   UNL     1      52.269   8.434  12.177  0.00  0.00    +0.000 A 
ATOM     35  H   UNL     1      51.674   7.576   9.060  0.00  0.00    +0.000 HD
ENDBRANCH  22  25
ENDBRANCH  20  21
ENDBRANCH   4  20
TORSDOF 9
ENDMDL
