MODEL 1
REMARK VINA RESULT:    -6.647      0.000      0.000
REMARK INTER + INTRA:          -9.997
REMARK INTER:                  -9.368
REMARK INTRA:                  -0.630
REMARK UNBOUND:                -0.630
REMARK  Name = 
REMARK  10 active torsions:
REMARK  status: ('A' for Active; 'I' for Inactive)
REMARK    1  A    between atoms: C_1  and  C_2
REMARK    2  A    between atoms: C_2  and  C_3
REMARK    3  A    between atoms: C_2  and  C_4
REMARK    4  A    between atoms: C_2  and  O_5
REMARK    5  A    between atoms: O_5  and  C_6
REMARK    6  A    between atoms: C_6  and  C_8
REMARK    7  A    between atoms: C_11  and  O_12
REMARK    8  A    between atoms: O_12  and  C_13
REMARK    9  A    between atoms: C_13  and  C_14
REMARK   10  A    between atoms: C_19  and  C_20
REMARK                            x       y       z     vdW  Elec       q    Type
REMARK                         _______ _______ _______ _____ _____    ______ ____
ROOT
ATOM      1  C   UNL     1      46.981   4.387  15.033  0.00  0.00    +0.000 C 
ENDROOT
BRANCH   1   2
ATOM      2  C   UNL     1      46.773   5.079  13.703  0.00  0.00    +0.000 A 
ATOM      3  C   UNL     1      47.667   6.048  13.242  0.00  0.00    +0.000 A 
ATOM      4  C   UNL     1      47.409   6.705  12.043  0.00  0.00    +0.000 A 
ATOM      5  F   UNL     1      48.259   7.646  11.614  0.00  0.00    +0.000 F 
ATOM      6  C   UNL     1      46.282   6.403  11.280  0.00  0.00    +0.000 A 
ATOM      7  C   UNL     1      45.373   5.421  11.705  0.00  0.00    +0.000 A 
ATOM      8  C   UNL     1      45.621   4.811  12.943  0.00  0.00    +0.000 A 
BRANCH   7   9
ATOM      9  C   UNL     1      44.152   5.082  10.847  0.00  0.00    +0.000 C 
ATOM     10  C   UNL     1      43.024   4.308  11.563  0.00  0.00    +0.000 C 
ATOM     11  C   UNL     1      43.383   2.836  11.796  0.00  0.00    +0.000 C 
ATOM     12  N   UNL     1      43.730   2.153  10.551  0.00  0.00    +0.000 NA
ATOM     13  C   UNL     1      44.841   2.829   9.877  0.00  0.00    +0.000 C 
ATOM     14  C   UNL     1      44.517   4.292   9.572  0.00  0.00    +0.000 C 
ATOM     15  H   UNL     1      42.917   2.149   9.936  0.00  0.00    +0.000 HD
ENDBRANCH   7   9
ENDBRANCH   1   2
BRANCH   1  16
ATOM     16  O   UNL     1      48.262   4.744  15.571  0.00  0.00    +0.000 OA
BRANCH  16  20
ATOM     17  C   UNL     1      47.933   6.699  19.186  0.00  0.00    +0.000 A 
ATOM     18  C   UNL     1      47.211   5.525  18.966  0.00  0.00    +0.000 A 
ATOM     19  C   UNL     1      47.318   4.880  17.731  0.00  0.00    +0.000 A 
ATOM     20  C   UNL     1      48.163   5.416  16.770  0.00  0.00    +0.000 A 
ATOM     21  N   UNL     1      48.859   6.557  16.945  0.00  0.00    +0.000 NA
ATOM     22  C   UNL     1      48.724   7.174  18.144  0.00  0.00    +0.000 A 
BRANCH  17  23
ATOM     23  C   UNL     1      47.928   7.469  20.447  0.00  0.00    +0.000 C 
ATOM     24  O   UNL     1      47.265   7.115  21.409  0.00  0.00    +0.000 OA
BRANCH  23  25
ATOM     25  O   UNL     1      48.720   8.566  20.368  0.00  0.00    +0.000 OA
BRANCH  25  27
ATOM     26  C   UNL     1      48.162  10.313  22.020  0.00  0.00    +0.000 C 
ATOM     27  C   UNL     1      48.132   9.887  20.546  0.00  0.00    +0.000 C 
ATOM     28  C   UNL     1      46.716   9.949  19.957  0.00  0.00    +0.000 C 
ATOM     29  C   UNL     1      49.026  10.850  19.749  0.00  0.00    +0.000 C 
ENDBRANCH  25  27
ENDBRANCH  23  25
ENDBRANCH  17  23
ENDBRANCH  16  20
ENDBRANCH   1  16
TORSDOF 7
ENDMDL
MODEL 2
REMARK VINA RESULT:    -6.525      3.718      8.242
REMARK INTER + INTRA:          -9.825
REMARK INTER:                  -9.482
REMARK INTRA:                  -0.343
REMARK UNBOUND:                -0.630
REMARK  Name = 
REMARK  10 active torsions:
REMARK  status: ('A' for Active; 'I' for Inactive)
REMARK    1  A    between atoms: C_1  and  C_2
REMARK    2  A    between atoms: C_2  and  C_3
REMARK    3  A    between atoms: C_2  and  C_4
REMARK    4  A    between atoms: C_2  and  O_5
REMARK    5  A    between atoms: O_5  and  C_6
REMARK    6  A    between atoms: C_6  and  C_8
REMARK    7  A    between atoms: C_11  and  O_12
REMARK    8  A    between atoms: O_12  and  C_13
REMARK    9  A    between atoms: C_13  and  C_14
REMARK   10  A    between atoms: C_19  and  C_20
REMARK                            x       y       z     vdW  Elec       q    Type
REMARK                         _______ _______ _______ _____ _____    ______ ____
ROOT
ATOM      1  C   UNL     1      48.809   8.203  15.149  0.00  0.00    +0.000 C 
ENDROOT
BRANCH   1   2
ATOM      2  C   UNL     1      49.772   7.277  15.862  0.00  0.00    +0.000 A 
ATOM      3  C   UNL     1      51.151   7.374  15.666  0.00  0.00    +0.000 A 
ATOM      4  C   UNL     1      51.998   6.466  16.292  0.00  0.00    +0.000 A 
ATOM      5  F   UNL     1      53.319   6.551  16.086  0.00  0.00    +0.000 F 
ATOM      6  C   UNL     1      51.500   5.467  17.127  0.00  0.00    +0.000 A 
ATOM      7  C   UNL     1      50.120   5.354  17.362  0.00  0.00    +0.000 A 
ATOM      8  C   UNL     1      49.279   6.243  16.677  0.00  0.00    +0.000 A 
BRANCH   7   9
ATOM      9  C   UNL     1      49.587   4.269  18.300  0.00  0.00    +0.000 C 
ATOM     10  C   UNL     1      49.328   2.891  17.653  0.00  0.00    +0.000 C 
ATOM     11  C   UNL     1      48.068   2.884  16.780  0.00  0.00    +0.000 C 
ATOM     12  N   UNL     1      46.883   3.305  17.525  0.00  0.00    +0.000 NA
ATOM     13  C   UNL     1      47.074   4.637  18.102  0.00  0.00    +0.000 C 
ATOM     14  C   UNL     1      48.291   4.689  19.026  0.00  0.00    +0.000 C 
ATOM     15  H   UNL     1      46.708   2.636  18.275  0.00  0.00    +0.000 HD
ENDBRANCH   7   9
ENDBRANCH   1   2
BRANCH   1  16
ATOM     16  O   UNL     1      48.757   7.870  13.755  0.00  0.00    +0.000 OA
BRANCH  16  20
ATOM     17  C   UNL     1      45.865   5.064  12.882  0.00  0.00    +0.000 A 
ATOM     18  C   UNL     1      45.589   6.421  12.704  0.00  0.00    +0.000 A 
ATOM     19  C   UNL     1      46.572   7.364  13.018  0.00  0.00    +0.000 A 
ATOM     20  C   UNL     1      47.804   6.916  13.474  0.00  0.00    +0.000 A 
ATOM     21  N   UNL     1      48.094   5.615  13.674  0.00  0.00    +0.000 NA
ATOM     22  C   UNL     1      47.118   4.722  13.380  0.00  0.00    +0.000 A 
BRANCH  17  23
ATOM     23  C   UNL     1      44.927   3.966  12.572  0.00  0.00    +0.000 C 
ATOM     24  O   UNL     1      44.009   3.677  13.322  0.00  0.00    +0.000 OA
BRANCH  23  25
ATOM     25  O   UNL     1      45.235   3.362  11.397  0.00  0.00    +0.000 OA
BRANCH  25  27
ATOM     26  C   UNL     1      45.639   4.714   9.372  0.00  0.00    +0.000 C 
ATOM     27  C   UNL     1      44.641   3.856  10.162  0.00  0.00    +0.000 C 
ATOM     28  C   UNL     1      43.330   4.605  10.437  0.00  0.00    +0.000 C 
ATOM     29  C   UNL     1      44.316   2.608   9.328  0.00  0.00    +0.000 C 
ENDBRANCH  25  27
ENDBRANCH  23  25
ENDBRANCH  17  23
ENDBRANCH  16  20
ENDBRANCH   1  16
TORSDOF 7
ENDMDL
MODEL 3
REMARK VINA RESULT:    -6.523      2.044      2.867
REMARK INTER + INTRA:          -9.821
REMARK INTER:                  -8.934
REMARK INTRA:                  -0.887
REMARK UNBOUND:                -0.630
REMARK  Name = 
REMARK  10 active torsions:
REMARK  status: ('A' for Active; 'I' for Inactive)
REMARK    1  A    between atoms: C_1  and  C_2
REMARK    2  A    between atoms: C_2  and  C_3
REMARK    3  A    between atoms: C_2  and  C_4
REMARK    4  A    between atoms: C_2  and  O_5
REMARK    5  A    between atoms: O_5  and  C_6
REMARK    6  A    between atoms: C_6  and  C_8
REMARK    7  A    between atoms: C_11  and  O_12
REMARK    8  A    between atoms: O_12  and  C_13
REMARK    9  A    between atoms: C_13  and  C_14
REMARK   10  A    between atoms: C_19  and  C_20
REMARK                            x       y       z     vdW  Elec       q    Type
REMARK                         _______ _______ _______ _____ _____    ______ ____
ROOT
ATOM      1  C   UNL     1      48.836   6.913  12.968  0.00  0.00    +0.000 C 
ENDROOT
BRANCH   1   2
ATOM      2  C   UNL     1      47.445   7.272  12.491  0.00  0.00    +0.000 A 
ATOM      3  C   UNL     1      46.953   8.574  12.604  0.00  0.00    +0.000 A 
ATOM      4  C   UNL     1      45.648   8.852  12.210  0.00  0.00    +0.000 A 
ATOM      5  F   UNL     1      45.175  10.098  12.337  0.00  0.00    +0.000 F 
ATOM      6  C   UNL     1      44.823   7.857  11.688  0.00  0.00    +0.000 A 
ATOM      7  C   UNL     1      45.292   6.542  11.543  0.00  0.00    +0.000 A 
ATOM      8  C   UNL     1      46.591   6.271  11.998  0.00  0.00    +0.000 A 
BRANCH   7   9
ATOM      9  C   UNL     1      44.384   5.464  10.946  0.00  0.00    +0.000 C 
ATOM     10  C   UNL     1      42.973   5.358  11.566  0.00  0.00    +0.000 C 
ATOM     11  C   UNL     1      42.992   4.704  12.952  0.00  0.00    +0.000 C 
ATOM     12  N   UNL     1      43.615   3.382  12.925  0.00  0.00    +0.000 NA
ATOM     13  C   UNL     1      44.980   3.458  12.399  0.00  0.00    +0.000 C 
ATOM     14  C   UNL     1      45.015   4.056  10.992  0.00  0.00    +0.000 C 
ATOM     15  H   UNL     1      43.060   2.765  12.332  0.00  0.00    +0.000 HD
ENDBRANCH   7   9
ENDBRANCH   1   2
BRANCH   1  16
ATOM     16  O   UNL     1      49.213   7.770  14.055  0.00  0.00    +0.000 OA
BRANCH  16  20
ATOM     17  C   UNL     1      48.416   6.159  17.766  0.00  0.00    +0.000 A 
ATOM     18  C   UNL     1      48.600   7.537  17.635  0.00  0.00    +0.000 A 
ATOM     19  C   UNL     1      48.886   8.069  16.374  0.00  0.00    +0.000 A 
ATOM     20  C   UNL     1      48.950   7.210  15.286  0.00  0.00    +0.000 A 
ATOM     21  N   UNL     1      48.796   5.874  15.384  0.00  0.00    +0.000 NA
ATOM     22  C   UNL     1      48.539   5.380  16.620  0.00  0.00    +0.000 A 
BRANCH  17  23
ATOM     23  C   UNL     1      48.091   5.470  19.031  0.00  0.00    +0.000 C 
ATOM     24  O   UNL     1      48.428   4.315  19.235  0.00  0.00    +0.000 OA
BRANCH  23  25
ATOM     25  O   UNL     1      47.394   6.271  19.874  0.00  0.00    +0.000 OA
BRANCH  25  27
ATOM     26  C   UNL     1      49.463   6.699  21.149  0.00  0.00    +0.000 C 
ATOM     27  C   UNL     1      47.935   6.563  21.194  0.00  0.00    +0.000 C 
ATOM     28  C   UNL     1      47.479   5.522  22.224  0.00  0.00    +0.000 C 
ATOM     29  C   UNL     1      47.344   7.924  21.593  0.00  0.00    +0.000 C 
ENDBRANCH  25  27
ENDBRANCH  23  25
ENDBRANCH  17  23
ENDBRANCH  16  20
ENDBRANCH   1  16
TORSDOF 7
ENDMDL
MODEL 4
REMARK VINA RESULT:    -6.465      2.943      3.998
REMARK INTER + INTRA:          -9.740
REMARK INTER:                  -9.229
REMARK INTRA:                  -0.511
REMARK UNBOUND:                -0.630
REMARK  Name = 
REMARK  10 active torsions:
REMARK  status: ('A' for Active; 'I' for Inactive)
REMARK    1  A    between atoms: C_1  and  C_2
REMARK    2  A    between atoms: C_2  and  C_3
REMARK    3  A    between atoms: C_2  and  C_4
REMARK    4  A    between atoms: C_2  and  O_5
REMARK    5  A    between atoms: O_5  and  C_6
REMARK    6  A    between atoms: C_6  and  C_8
REMARK    7  A    between atoms: C_11  and  O_12
REMARK    8  A    between atoms: O_12  and  C_13
REMARK    9  A    between atoms: C_13  and  C_14
REMARK   10  A    between atoms: C_19  and  C_20
REMARK                            x       y       z     vdW  Elec       q    Type
REMARK                         _______ _______ _______ _____ _____    ______ ____
ROOT
ATOM      1  C   UNL     1      47.290   4.022  14.735  0.00  0.00    +0.000 C 
ENDROOT
BRANCH   1   2
ATOM      2  C   UNL     1      46.955   4.868  13.525  0.00  0.00    +0.000 A 
ATOM      3  C   UNL     1      47.745   5.961  13.163  0.00  0.00    +0.000 A 
ATOM      4  C   UNL     1      47.370   6.749  12.080  0.00  0.00    +0.000 A 
ATOM      5  F   UNL     1      48.121   7.807  11.748  0.00  0.00    +0.000 F 
ATOM      6  C   UNL     1      46.228   6.462  11.336  0.00  0.00    +0.000 A 
ATOM      7  C   UNL     1      45.422   5.359  11.661  0.00  0.00    +0.000 A 
ATOM      8  C   UNL     1      45.785   4.610  12.790  0.00  0.00    +0.000 A 
BRANCH   7   9
ATOM      9  C   UNL     1      44.183   5.039  10.821  0.00  0.00    +0.000 C 
ATOM     10  C   UNL     1      43.058   4.273  11.552  0.00  0.00    +0.000 C 
ATOM     11  C   UNL     1      43.404   2.796  11.770  0.00  0.00    +0.000 C 
ATOM     12  N   UNL     1      43.723   2.117  10.515  0.00  0.00    +0.000 NA
ATOM     13  C   UNL     1      44.830   2.784   9.827  0.00  0.00    +0.000 C 
ATOM     14  C   UNL     1      44.517   4.253   9.536  0.00  0.00    +0.000 C 
ATOM     15  H   UNL     1      42.900   2.126   9.914  0.00  0.00    +0.000 HD
ENDBRANCH   7   9
ENDBRANCH   1   2
BRANCH   1  16
ATOM     16  O   UNL     1      47.028   4.764  15.934  0.00  0.00    +0.000 OA
BRANCH  16  20
ATOM     17  C   UNL     1      50.190   4.710  18.579  0.00  0.00    +0.000 A 
ATOM     18  C   UNL     1      48.965   4.155  18.954  0.00  0.00    +0.000 A 
ATOM     19  C   UNL     1      47.896   4.194  18.054  0.00  0.00    +0.000 A 
ATOM     20  C   UNL     1      48.097   4.761  16.804  0.00  0.00    +0.000 A 
ATOM     21  N   UNL     1      49.261   5.320  16.419  0.00  0.00    +0.000 NA
ATOM     22  C   UNL     1      50.277   5.287  17.316  0.00  0.00    +0.000 A 
BRANCH  17  23
ATOM     23  C   UNL     1      51.404   4.719  19.421  0.00  0.00    +0.000 C 
ATOM     24  O   UNL     1      51.341   4.626  20.636  0.00  0.00    +0.000 OA
BRANCH  23  25
ATOM     25  O   UNL     1      52.530   4.846  18.676  0.00  0.00    +0.000 OA
BRANCH  25  27
ATOM     26  C   UNL     1      52.737   2.433  18.199  0.00  0.00    +0.000 C 
ATOM     27  C   UNL     1      53.460   3.729  18.590  0.00  0.00    +0.000 C 
ATOM     28  C   UNL     1      54.260   3.571  19.890  0.00  0.00    +0.000 C 
ATOM     29  C   UNL     1      54.441   4.089  17.464  0.00  0.00    +0.000 C 
ENDBRANCH  25  27
ENDBRANCH  23  25
ENDBRANCH  17  23
ENDBRANCH  16  20
ENDBRANCH   1  16
TORSDOF 7
ENDMDL
MODEL 5
REMARK VINA RESULT:    -6.381      2.361      3.589
REMARK INTER + INTRA:          -9.622
REMARK INTER:                  -8.603
REMARK INTRA:                  -1.019
REMARK UNBOUND:                -0.630
REMARK  Name = 
REMARK  10 active torsions:
REMARK  status: ('A' for Active; 'I' for Inactive)
REMARK    1  A    between atoms: C_1  and  C_2
REMARK    2  A    between atoms: C_2  and  C_3
REMARK    3  A    between atoms: C_2  and  C_4
REMARK    4  A    between atoms: C_2  and  O_5
REMARK    5  A    between atoms: O_5  and  C_6
REMARK    6  A    between atoms: C_6  and  C_8
REMARK    7  A    between atoms: C_11  and  O_12
REMARK    8  A    between atoms: O_12  and  C_13
REMARK    9  A    between atoms: C_13  and  C_14
REMARK   10  A    between atoms: C_19  and  C_20
REMARK                            x       y       z     vdW  Elec       q    Type
REMARK                         _______ _______ _______ _____ _____    ______ ____
ROOT
ATOM      1  C   UNL     1      49.149   7.159  12.563  0.00  0.00    +0.000 C 
ENDROOT
BRANCH   1   2
ATOM      2  C   UNL     1      47.637   7.116  12.513  0.00  0.00    +0.000 A 
ATOM      3  C   UNL     1      46.890   8.248  12.182  0.00  0.00    +0.000 A 
ATOM      4  C   UNL     1      45.500   8.184  12.206  0.00  0.00    +0.000 A 
ATOM      5  F   UNL     1      44.788   9.278  11.906  0.00  0.00    +0.000 F 
ATOM      6  C   UNL     1      44.835   7.005  12.536  0.00  0.00    +0.000 A 
ATOM      7  C   UNL     1      45.556   5.843  12.854  0.00  0.00    +0.000 A 
ATOM      8  C   UNL     1      46.955   5.943  12.881  0.00  0.00    +0.000 A 
BRANCH   7   9
ATOM      9  C   UNL     1      44.814   4.547  13.193  0.00  0.00    +0.000 C 
ATOM     10  C   UNL     1      45.279   3.290  12.426  0.00  0.00    +0.000 C 
ATOM     11  C   UNL     1      44.806   3.287  10.967  0.00  0.00    +0.000 C 
ATOM     12  N   UNL     1      43.354   3.416  10.863  0.00  0.00    +0.000 NA
ATOM     13  C   UNL     1      42.887   4.634  11.528  0.00  0.00    +0.000 C 
ATOM     14  C   UNL     1      43.287   4.665  13.004  0.00  0.00    +0.000 C 
ATOM     15  H   UNL     1      42.916   2.605  11.300  0.00  0.00    +0.000 HD
ENDBRANCH   7   9
ENDBRANCH   1   2
BRANCH   1  16
ATOM     16  O   UNL     1      49.577   8.271  13.363  0.00  0.00    +0.000 OA
BRANCH  16  20
ATOM     17  C   UNL     1      49.615   7.431  17.399  0.00  0.00    +0.000 A 
ATOM     18  C   UNL     1      48.867   8.509  16.924  0.00  0.00    +0.000 A 
ATOM     19  C   UNL     1      48.875   8.794  15.555  0.00  0.00    +0.000 A 
ATOM     20  C   UNL     1      49.608   7.975  14.708  0.00  0.00    +0.000 A 
ATOM     21  N   UNL     1      50.354   6.938  15.138  0.00  0.00    +0.000 NA
ATOM     22  C   UNL     1      50.345   6.694  16.472  0.00  0.00    +0.000 A 
BRANCH  17  23
ATOM     23  C   UNL     1      49.680   7.008  18.813  0.00  0.00    +0.000 C 
ATOM     24  O   UNL     1      49.688   7.820  19.724  0.00  0.00    +0.000 OA
BRANCH  23  25
ATOM     25  O   UNL     1      49.733   5.658  18.931  0.00  0.00    +0.000 OA
BRANCH  25  27
ATOM     26  C   UNL     1      47.267   5.680  19.028  0.00  0.00    +0.000 C 
ATOM     27  C   UNL     1      48.558   4.933  19.392  0.00  0.00    +0.000 C 
ATOM     28  C   UNL     1      48.644   4.634  20.895  0.00  0.00    +0.000 C 
ATOM     29  C   UNL     1      48.569   3.597  18.635  0.00  0.00    +0.000 C 
ENDBRANCH  25  27
ENDBRANCH  23  25
ENDBRANCH  17  23
ENDBRANCH  16  20
ENDBRANCH   1  16
TORSDOF 7
ENDMDL
MODEL 6
REMARK VINA RESULT:    -6.291      3.391      8.308
REMARK INTER + INTRA:          -9.494
REMARK INTER:                  -8.472
REMARK INTRA:                  -1.023
REMARK UNBOUND:                -0.630
REMARK  Name = 
REMARK  10 active torsions:
REMARK  status: ('A' for Active; 'I' for Inactive)
REMARK    1  A    between atoms: C_1  and  C_2
REMARK    2  A    between atoms: C_2  and  C_3
REMARK    3  A    between atoms: C_2  and  C_4
REMARK    4  A    between atoms: C_2  and  O_5
REMARK    5  A    between atoms: O_5  and  C_6
REMARK    6  A    between atoms: C_6  and  C_8
REMARK    7  A    between atoms: C_11  and  O_12
REMARK    8  A    between atoms: O_12  and  C_13
REMARK    9  A    between atoms: C_13  and  C_14
REMARK   10  A    between atoms: C_19  and  C_20
REMARK                            x       y       z     vdW  Elec       q    Type
REMARK                         _______ _______ _______ _____ _____    ______ ____
ROOT
ATOM      1  C   UNL     1      49.529   8.695  13.988  0.00  0.00    +0.000 C 
ENDROOT
BRANCH   1   2
ATOM      2  C   UNL     1      49.076   8.663  15.432  0.00  0.00    +0.000 A 
ATOM      3  C   UNL     1      48.485   9.777  16.032  0.00  0.00    +0.000 A 
ATOM      4  C   UNL     1      48.137   9.728  17.377  0.00  0.00    +0.000 A 
ATOM      5  F   UNL     1      47.587  10.805  17.953  0.00  0.00    +0.000 F 
ATOM      6  C   UNL     1      48.351   8.581  18.140  0.00  0.00    +0.000 A 
ATOM      7  C   UNL     1      48.926   7.436  17.563  0.00  0.00    +0.000 A 
ATOM      8  C   UNL     1      49.321   7.525  16.220  0.00  0.00    +0.000 A 
BRANCH   7   9
ATOM      9  C   UNL     1      49.134   6.175  18.404  0.00  0.00    +0.000 C 
ATOM     10  C   UNL     1      49.230   4.851  17.614  0.00  0.00    +0.000 C 
ATOM     11  C   UNL     1      47.867   4.386  17.088  0.00  0.00    +0.000 C 
ATOM     12  N   UNL     1      46.884   4.246  18.161  0.00  0.00    +0.000 NA
ATOM     13  C   UNL     1      46.725   5.504  18.892  0.00  0.00    +0.000 C 
ATOM     14  C   UNL     1      48.049   5.990  19.486  0.00  0.00    +0.000 C 
ATOM     15  H   UNL     1      47.198   3.520  18.806  0.00  0.00    +0.000 HD
ENDBRANCH   7   9
ENDBRANCH   1   2
BRANCH   1  16
ATOM     16  O   UNL     1      48.402   8.919  13.130  0.00  0.00    +0.000 OA
BRANCH  16  20
ATOM     17  C   UNL     1      45.915   5.649  12.795  0.00  0.00    +0.000 A 
ATOM     18  C   UNL     1      45.373   6.935  12.767  0.00  0.00    +0.000 A 
ATOM     19  C   UNL     1      46.225   8.036  12.897  0.00  0.00    +0.000 A 
ATOM     20  C   UNL     1      47.589   7.812  13.024  0.00  0.00    +0.000 A 
ATOM     21  N   UNL     1      48.140   6.583  13.073  0.00  0.00    +0.000 NA
ATOM     22  C   UNL     1      47.291   5.531  12.964  0.00  0.00    +0.000 A 
BRANCH  17  23
ATOM     23  C   UNL     1      45.134   4.403  12.648  0.00  0.00    +0.000 C 
ATOM     24  O   UNL     1      44.358   4.028  13.512  0.00  0.00    +0.000 OA
BRANCH  23  25
ATOM     25  O   UNL     1      45.406   3.776  11.477  0.00  0.00    +0.000 OA
BRANCH  25  27
ATOM     26  C   UNL     1      45.476   5.010   9.340  0.00  0.00    +0.000 C 
ATOM     27  C   UNL     1      44.648   4.128  10.285  0.00  0.00    +0.000 C 
ATOM     28  C   UNL     1      43.307   4.779  10.651  0.00  0.00    +0.000 C 
ATOM     29  C   UNL     1      44.357   2.800   9.569  0.00  0.00    +0.000 C 
ENDBRANCH  25  27
ENDBRANCH  23  25
ENDBRANCH  17  23
ENDBRANCH  16  20
ENDBRANCH   1  16
TORSDOF 7
ENDMDL
MODEL 7
REMARK VINA RESULT:    -6.200      3.453      7.869
REMARK INTER + INTRA:          -9.366
REMARK INTER:                  -8.596
REMARK INTRA:                  -0.771
REMARK UNBOUND:                -0.630
REMARK  Name = 
REMARK  10 active torsions:
REMARK  status: ('A' for Active; 'I' for Inactive)
REMARK    1  A    between atoms: C_1  and  C_2
REMARK    2  A    between atoms: C_2  and  C_3
REMARK    3  A    between atoms: C_2  and  C_4
REMARK    4  A    between atoms: C_2  and  O_5
REMARK    5  A    between atoms: O_5  and  C_6
REMARK    6  A    between atoms: C_6  and  C_8
REMARK    7  A    between atoms: C_11  and  O_12
REMARK    8  A    between atoms: O_12  and  C_13
REMARK    9  A    between atoms: C_13  and  C_14
REMARK   10  A    between atoms: C_19  and  C_20
REMARK                            x       y       z     vdW  Elec       q    Type
REMARK                         _______ _______ _______ _____ _____    ______ ____
ROOT
ATOM      1  C   UNL     1      50.138   7.433  15.067  0.00  0.00    +0.000 C 
ENDROOT
BRANCH   1   2
ATOM      2  C   UNL     1      49.353   7.106  16.319  0.00  0.00    +0.000 A 
ATOM      3  C   UNL     1      48.840   8.114  17.137  0.00  0.00    +0.000 A 
ATOM      4  C   UNL     1      48.176   7.774  18.311  0.00  0.00    +0.000 A 
ATOM      5  F   UNL     1      47.702   8.744  19.103  0.00  0.00    +0.000 F 
ATOM      6  C   UNL     1      47.996   6.442  18.681  0.00  0.00    +0.000 A 
ATOM      7  C   UNL     1      48.482   5.403  17.871  0.00  0.00    +0.000 A 
ATOM      8  C   UNL     1      49.197   5.768  16.721  0.00  0.00    +0.000 A 
BRANCH   7   9
ATOM      9  C   UNL     1      48.257   3.944  18.275  0.00  0.00    +0.000 C 
ATOM     10  C   UNL     1      49.531   3.082  18.410  0.00  0.00    +0.000 C 
ATOM     11  C   UNL     1      50.130   2.708  17.049  0.00  0.00    +0.000 C 
ATOM     12  N   UNL     1      49.162   2.021  16.196  0.00  0.00    +0.000 NA
ATOM     13  C   UNL     1      47.965   2.840  15.997  0.00  0.00    +0.000 C 
ATOM     14  C   UNL     1      47.295   3.200  17.324  0.00  0.00    +0.000 C 
ATOM     15  H   UNL     1      48.897   1.140  16.637  0.00  0.00    +0.000 HD
ENDBRANCH   7   9
ENDBRANCH   1   2
BRANCH   1  16
ATOM     16  O   UNL     1      49.521   8.531  14.379  0.00  0.00    +0.000 OA
BRANCH  16  20
ATOM     17  C   UNL     1      46.274   7.316  12.147  0.00  0.00    +0.000 A 
ATOM     18  C   UNL     1      47.525   6.739  11.919  0.00  0.00    +0.000 A 
ATOM     19  C   UNL     1      48.621   7.171  12.672  0.00  0.00    +0.000 A 
ATOM     20  C   UNL     1      48.424   8.143  13.642  0.00  0.00    +0.000 A 
ATOM     21  N   UNL     1      47.233   8.732  13.872  0.00  0.00    +0.000 NA
ATOM     22  C   UNL     1      46.190   8.310  13.117  0.00  0.00    +0.000 A 
BRANCH  17  23
ATOM     23  C   UNL     1      45.033   6.941  11.440  0.00  0.00    +0.000 C 
ATOM     24  O   UNL     1      44.134   7.746  11.253  0.00  0.00    +0.000 OA
BRANCH  23  25
ATOM     25  O   UNL     1      45.045   5.639  11.062  0.00  0.00    +0.000 OA
BRANCH  25  27
ATOM     26  C   UNL     1      43.481   5.299  12.941  0.00  0.00    +0.000 C 
ATOM     27  C   UNL     1      44.414   4.641  11.915  0.00  0.00    +0.000 C 
ATOM     28  C   UNL     1      45.460   3.740  12.583  0.00  0.00    +0.000 C 
ATOM     29  C   UNL     1      43.560   3.773  10.978  0.00  0.00    +0.000 C 
ENDBRANCH  25  27
ENDBRANCH  23  25
ENDBRANCH  17  23
ENDBRANCH  16  20
ENDBRANCH   1  16
TORSDOF 7
ENDMDL
MODEL 8
REMARK VINA RESULT:    -6.153      1.677      1.986
REMARK INTER + INTRA:          -9.301
REMARK INTER:                  -8.898
REMARK INTRA:                  -0.403
REMARK UNBOUND:                -0.630
REMARK  Name = 
REMARK  10 active torsions:
REMARK  status: ('A' for Active; 'I' for Inactive)
REMARK    1  A    between atoms: C_1  and  C_2
REMARK    2  A    between atoms: C_2  and  C_3
REMARK    3  A    between atoms: C_2  and  C_4
REMARK    4  A    between atoms: C_2  and  O_5
REMARK    5  A    between atoms: O_5  and  C_6
REMARK    6  A    between atoms: C_6  and  C_8
REMARK    7  A    between atoms: C_11  and  O_12
REMARK    8  A    between atoms: O_12  and  C_13
REMARK    9  A    between atoms: C_13  and  C_14
REMARK   10  A    between atoms: C_19  and  C_20
REMARK                            x       y       z     vdW  Elec       q    Type
REMARK                         _______ _______ _______ _____ _____    ______ ____
ROOT
ATOM      1  C   UNL     1      47.267   3.681  14.774  0.00  0.00    +0.000 C 
ENDROOT
BRANCH   1   2
ATOM      2  C   UNL     1      46.937   4.644  13.653  0.00  0.00    +0.000 A 
ATOM      3  C   UNL     1      47.708   5.787  13.428  0.00  0.00    +0.000 A 
ATOM      4  C   UNL     1      47.337   6.679  12.428  0.00  0.00    +0.000 A 
ATOM      5  F   UNL     1      48.069   7.783  12.228  0.00  0.00    +0.000 F 
ATOM      6  C   UNL     1      46.218   6.448  11.630  0.00  0.00    +0.000 A 
ATOM      7  C   UNL     1      45.432   5.299  11.816  0.00  0.00    +0.000 A 
ATOM      8  C   UNL     1      45.790   4.441  12.867  0.00  0.00    +0.000 A 
BRANCH   7   9
ATOM      9  C   UNL     1      44.219   5.044  10.918  0.00  0.00    +0.000 C 
ATOM     10  C   UNL     1      43.057   4.261  11.568  0.00  0.00    +0.000 C 
ATOM     11  C   UNL     1      43.373   2.769  11.722  0.00  0.00    +0.000 C 
ATOM     12  N   UNL     1      43.726   2.150  10.446  0.00  0.00    +0.000 NA
ATOM     13  C   UNL     1      44.867   2.832   9.832  0.00  0.00    +0.000 C 
ATOM     14  C   UNL     1      44.587   4.319   9.606  0.00  0.00    +0.000 C 
ATOM     15  H   UNL     1      42.925   2.204   9.817  0.00  0.00    +0.000 HD
ENDBRANCH   7   9
ENDBRANCH   1   2
BRANCH   1  16
ATOM     16  O   UNL     1      46.511   4.020  15.944  0.00  0.00    +0.000 OA
BRANCH  16  20
ATOM     17  C   UNL     1      48.965   4.913  19.134  0.00  0.00    +0.000 A 
ATOM     18  C   UNL     1      49.471   4.187  18.054  0.00  0.00    +0.000 A 
ATOM     19  C   UNL     1      48.624   3.876  16.986  0.00  0.00    +0.000 A 
ATOM     20  C   UNL     1      47.312   4.326  17.023  0.00  0.00    +0.000 A 
ATOM     21  N   UNL     1      46.790   5.013  18.059  0.00  0.00    +0.000 NA
ATOM     22  C   UNL     1      47.626   5.285  19.091  0.00  0.00    +0.000 A 
BRANCH  17  23
ATOM     23  C   UNL     1      49.753   5.325  20.315  0.00  0.00    +0.000 C 
ATOM     24  O   UNL     1      50.810   4.786  20.598  0.00  0.00    +0.000 OA
BRANCH  23  25
ATOM     25  O   UNL     1      49.147   6.328  20.996  0.00  0.00    +0.000 OA
BRANCH  25  27
ATOM     26  C   UNL     1      51.032   7.594  21.962  0.00  0.00    +0.000 C 
ATOM     27  C   UNL     1      49.787   7.634  21.065  0.00  0.00    +0.000 C 
ATOM     28  C   UNL     1      48.794   8.717  21.507  0.00  0.00    +0.000 C 
ATOM     29  C   UNL     1      50.239   7.953  19.631  0.00  0.00    +0.000 C 
ENDBRANCH  25  27
ENDBRANCH  23  25
ENDBRANCH  17  23
ENDBRANCH  16  20
ENDBRANCH   1  16
TORSDOF 7
ENDMDL
MODEL 9
REMARK VINA RESULT:    -6.079      3.586      8.165
REMARK INTER + INTRA:          -9.197
REMARK INTER:                  -8.466
REMARK INTRA:                  -0.731
REMARK UNBOUND:                -0.630
REMARK  Name = 
REMARK  10 active torsions:
REMARK  status: ('A' for Active; 'I' for Inactive)
REMARK    1  A    between atoms: C_1  and  C_2
REMARK    2  A    between atoms: C_2  and  C_3
REMARK    3  A    between atoms: C_2  and  C_4
REMARK    4  A    between atoms: C_2  and  O_5
REMARK    5  A    between atoms: O_5  and  C_6
REMARK    6  A    between atoms: C_6  and  C_8
REMARK    7  A    between atoms: C_11  and  O_12
REMARK    8  A    between atoms: O_12  and  C_13
REMARK    9  A    between atoms: C_13  and  C_14
REMARK   10  A    between atoms: C_19  and  C_20
REMARK                            x       y       z     vdW  Elec       q    Type
REMARK                         _______ _______ _______ _____ _____    ______ ____
ROOT
ATOM      1  C   UNL     1      48.183   9.219  15.339  0.00  0.00    +0.000 C 
ENDROOT
BRANCH   1   2
ATOM      2  C   UNL     1      49.250   8.221  15.735  0.00  0.00    +0.000 A 
ATOM      3  C   UNL     1      50.559   8.334  15.261  0.00  0.00    +0.000 A 
ATOM      4  C   UNL     1      51.497   7.363  15.599  0.00  0.00    +0.000 A 
ATOM      5  F   UNL     1      52.746   7.466  15.127  0.00  0.00    +0.000 F 
ATOM      6  C   UNL     1      51.161   6.285  16.416  0.00  0.00    +0.000 A 
ATOM      7  C   UNL     1      49.859   6.152  16.925  0.00  0.00    +0.000 A 
ATOM      8  C   UNL     1      48.915   7.110  16.527  0.00  0.00    +0.000 A 
BRANCH   7   9
ATOM      9  C   UNL     1      49.509   4.977  17.841  0.00  0.00    +0.000 C 
ATOM     10  C   UNL     1      48.646   3.865  17.204  0.00  0.00    +0.000 C 
ATOM     11  C   UNL     1      47.182   4.288  17.034  0.00  0.00    +0.000 C 
ATOM     12  N   UNL     1      46.583   4.708  18.299  0.00  0.00    +0.000 NA
ATOM     13  C   UNL     1      47.344   5.805  18.899  0.00  0.00    +0.000 C 
ATOM     14  C   UNL     1      48.805   5.420  19.141  0.00  0.00    +0.000 C 
ATOM     15  H   UNL     1      46.573   3.915  18.941  0.00  0.00    +0.000 HD
ENDBRANCH   7   9
ENDBRANCH   1   2
BRANCH   1  16
ATOM     16  O   UNL     1      48.294   9.522  13.942  0.00  0.00    +0.000 OA
BRANCH  16  20
ATOM     17  C   UNL     1      46.313   6.809  11.552  0.00  0.00    +0.000 A 
ATOM     18  C   UNL     1      47.701   6.930  11.457  0.00  0.00    +0.000 A 
ATOM     19  C   UNL     1      48.359   7.865  12.261  0.00  0.00    +0.000 A 
ATOM     20  C   UNL     1      47.612   8.625  13.150  0.00  0.00    +0.000 A 
ATOM     21  N   UNL     1      46.270   8.544  13.252  0.00  0.00    +0.000 NA
ATOM     22  C   UNL     1      45.653   7.643  12.448  0.00  0.00    +0.000 A 
BRANCH  17  23
ATOM     23  C   UNL     1      45.497   5.851  10.779  0.00  0.00    +0.000 C 
ATOM     24  O   UNL     1      45.840   5.463   9.673  0.00  0.00    +0.000 OA
BRANCH  23  25
ATOM     25  O   UNL     1      44.371   5.498  11.447  0.00  0.00    +0.000 OA
BRANCH  25  27
ATOM     26  C   UNL     1      43.270   4.156  13.200  0.00  0.00    +0.000 C 
ATOM     27  C   UNL     1      44.279   4.173  12.044  0.00  0.00    +0.000 C 
ATOM     28  C   UNL     1      45.659   3.662  12.477  0.00  0.00    +0.000 C 
ATOM     29  C   UNL     1      43.752   3.252  10.933  0.00  0.00    +0.000 C 
ENDBRANCH  25  27
ENDBRANCH  23  25
ENDBRANCH  17  23
ENDBRANCH  16  20
ENDBRANCH   1  16
TORSDOF 7
ENDMDL
