MODEL 1
REMARK VINA RESULT:    -8.114      0.000      0.000
REMARK INTER + INTRA:         -12.656
REMARK INTER:                 -11.434
REMARK INTRA:                  -1.222
REMARK UNBOUND:                -1.222
REMARK  Name = 
REMARK  7 active torsions:
REMARK  status: ('A' for Active; 'I' for Inactive)
REMARK    1  A    between atoms: C_2  and  C_20
REMARK    2  A    between atoms: N_3  and  C_4
REMARK    3  A    between atoms: C_4  and  C_5
REMARK    4  A    between atoms: C_8  and  C_9
REMARK    5  A    between atoms: C_9  and  N_10
REMARK    6  A    between atoms: N_10  and  C_11
REMARK    7  A    between atoms: C_11  and  C_12
REMARK                            x       y       z     vdW  Elec       q    Type
REMARK                         _______ _______ _______ _____ _____    ______ ____
ROOT
ATOM      1  C   UNL     1      46.799   7.838  13.227  0.00  0.00    +0.000 C 
ENDROOT
BRANCH   1   2
ATOM      2  C   UNL     1      46.013   6.792  12.482  0.00  0.00    +0.000 A 
ATOM      3  C   UNL     1      46.290   6.530  11.136  0.00  0.00    +0.000 A 
ATOM      4  C   UNL     1      45.597   5.531  10.450  0.00  0.00    +0.000 A 
ATOM      5  C   UNL     1      44.599   4.779  11.089  0.00  0.00    +0.000 A 
ATOM      6  C   UNL     1      44.289   5.073  12.423  0.00  0.00    +0.000 A 
ATOM      7  C   UNL     1      44.985   6.075  13.112  0.00  0.00    +0.000 A 
BRANCH   5   8
ATOM      8  C   UNL     1      43.871   3.682  10.343  0.00  0.00    +0.000 C 
BRANCH   8   9
ATOM      9  N   UNL     1      44.666   2.455  10.326  0.00  0.00    +0.000 NA
ATOM     10  H   UNL     1      44.326   1.837  11.065  0.00  0.00    +0.000 HD
BRANCH   9  11
ATOM     11  C   UNL     1      44.560   1.749   9.043  0.00  0.00    +0.000 C 
BRANCH  11  12
ATOM     12  C   UNL     1      45.772   1.992   8.171  0.00  0.00    +0.000 A 
ATOM     13  C   UNL     1      46.003   3.237   7.599  0.00  0.00    +0.000 A 
ATOM     14  C   UNL     1      47.144   3.420   6.829  0.00  0.00    +0.000 A 
ATOM     15  C   UNL     1      47.992   2.344   6.663  0.00  0.00    +0.000 A 
ATOM     16  N   UNL     1      47.751   1.140   7.216  0.00  0.00    +0.000 NA
ATOM     17  N   UNL     1      46.630   0.962   7.980  0.00  0.00    +0.000 NA
ENDBRANCH  11  12
ENDBRANCH   9  11
ENDBRANCH   8   9
ENDBRANCH   5   8
ENDBRANCH   1   2
BRANCH   1  20
ATOM     18  O   UNL     1      49.425   6.805  13.479  0.00  0.00    +0.000 OA
ATOM     19  C   UNL     1      48.697   6.856  14.467  0.00  0.00    +0.000 C 
ATOM     20  N   UNL     1      47.404   7.301  14.414  0.00  0.00    +0.000 N 
ATOM     21  H   UNL     1      46.916   7.501  15.280  0.00  0.00    +0.000 HD
BRANCH  19  22
ATOM     22  C   UNL     1      49.152   6.387  15.781  0.00  0.00    +0.000 A 
ATOM     23  C   UNL     1      50.196   7.033  16.432  0.00  0.00    +0.000 A 
ATOM     24  S   UNL     1      50.592   6.340  17.940  0.00  0.00    +0.000 S 
ATOM     25  C   UNL     1      49.359   5.176  17.794  0.00  0.00    +0.000 A 
ATOM     26  N   UNL     1      49.129   4.268  18.778  0.00  0.00    +0.000 NA
ATOM     27  C   UNL     1      48.145   3.468  18.550  0.00  0.00    +0.000 A 
ATOM     28  N   UNL     1      47.370   3.484  17.416  0.00  0.00    +0.000 N 
ATOM     29  C   UNL     1      47.615   4.329  16.365  0.00  0.00    +0.000 A 
ATOM     30  O   UNL     1      47.000   4.213  15.309  0.00  0.00    +0.000 OA
ATOM     31  C   UNL     1      48.675   5.291  16.595  0.00  0.00    +0.000 A 
ATOM     32  H   UNL     1      46.638   2.802  17.281  0.00  0.00    +0.000 HD
ENDBRANCH  19  22
ENDBRANCH   1  20
TORSDOF 7
ENDMDL
MODEL 2
REMARK VINA RESULT:    -7.949      1.464      1.823
REMARK INTER + INTRA:         -12.424
REMARK INTER:                 -11.373
REMARK INTRA:                  -1.051
REMARK UNBOUND:                -1.222
REMARK  Name = 
REMARK  7 active torsions:
REMARK  status: ('A' for Active; 'I' for Inactive)
REMARK    1  A    between atoms: C_2  and  C_20
REMARK    2  A    between atoms: N_3  and  C_4
REMARK    3  A    between atoms: C_4  and  C_5
REMARK    4  A    between atoms: C_8  and  C_9
REMARK    5  A    between atoms: C_9  and  N_10
REMARK    6  A    between atoms: N_10  and  C_11
REMARK    7  A    between atoms: C_11  and  C_12
REMARK                            x       y       z     vdW  Elec       q    Type
REMARK                         _______ _______ _______ _____ _____    ______ ____
ROOT
ATOM      1  C   UNL     1      48.175   6.747  13.332  0.00  0.00    +0.000 C 
ENDROOT
BRANCH   1   2
ATOM      2  C   UNL     1      46.967   6.114  12.693  0.00  0.00    +0.000 A 
ATOM      3  C   UNL     1      46.224   5.155  13.391  0.00  0.00    +0.000 A 
ATOM      4  C   UNL     1      45.078   4.594  12.823  0.00  0.00    +0.000 A 
ATOM      5  C   UNL     1      44.654   4.969  11.539  0.00  0.00    +0.000 A 
ATOM      6  C   UNL     1      45.424   5.894  10.823  0.00  0.00    +0.000 A 
ATOM      7  C   UNL     1      46.574   6.456  11.391  0.00  0.00    +0.000 A 
BRANCH   5   8
ATOM      8  C   UNL     1      43.396   4.374  10.944  0.00  0.00    +0.000 C 
BRANCH   8   9
ATOM      9  N   UNL     1      43.673   3.780   9.638  0.00  0.00    +0.000 NA
ATOM     10  H   UNL     1      44.210   4.449   9.083  0.00  0.00    +0.000 HD
BRANCH   9  11
ATOM     11  C   UNL     1      44.450   2.540   9.753  0.00  0.00    +0.000 C 
BRANCH  11  12
ATOM     12  C   UNL     1      45.475   2.419   8.646  0.00  0.00    +0.000 A 
ATOM     13  C   UNL     1      45.843   3.525   7.888  0.00  0.00    +0.000 A 
ATOM     14  C   UNL     1      46.808   3.371   6.903  0.00  0.00    +0.000 A 
ATOM     15  C   UNL     1      47.352   2.116   6.719  0.00  0.00    +0.000 A 
ATOM     16  N   UNL     1      46.980   1.052   7.455  0.00  0.00    +0.000 NA
ATOM     17  N   UNL     1      46.033   1.204   8.430  0.00  0.00    +0.000 NA
ENDBRANCH  11  12
ENDBRANCH   9  11
ENDBRANCH   8   9
ENDBRANCH   5   8
ENDBRANCH   1   2
BRANCH   1  20
ATOM     18  O   UNL     1      50.311   6.830  15.192  0.00  0.00    +0.000 OA
ATOM     19  C   UNL     1      49.152   6.841  15.599  0.00  0.00    +0.000 C 
ATOM     20  N   UNL     1      48.071   6.759  14.764  0.00  0.00    +0.000 N 
ATOM     21  H   UNL     1      47.148   6.962  15.132  0.00  0.00    +0.000 HD
BRANCH  19  22
ATOM     22  C   UNL     1      48.843   6.888  17.033  0.00  0.00    +0.000 A 
ATOM     23  C   UNL     1      48.441   8.081  17.622  0.00  0.00    +0.000 A 
ATOM     24  S   UNL     1      48.136   7.945  19.296  0.00  0.00    +0.000 S 
ATOM     25  C   UNL     1      48.495   6.281  19.285  0.00  0.00    +0.000 A 
ATOM     26  N   UNL     1      48.399   5.534  20.416  0.00  0.00    +0.000 NA
ATOM     27  C   UNL     1      48.667   4.284  20.256  0.00  0.00    +0.000 A 
ATOM     28  N   UNL     1      49.036   3.709  19.064  0.00  0.00    +0.000 N 
ATOM     29  C   UNL     1      49.222   4.437  17.919  0.00  0.00    +0.000 A 
ATOM     30  O   UNL     1      49.698   3.916  16.914  0.00  0.00    +0.000 OA
ATOM     31  C   UNL     1      48.876   5.840  18.028  0.00  0.00    +0.000 A 
ATOM     32  H   UNL     1      49.273   2.729  19.016  0.00  0.00    +0.000 HD
ENDBRANCH  19  22
ENDBRANCH   1  20
TORSDOF 7
ENDMDL
MODEL 3
REMARK VINA RESULT:    -7.599      2.451      3.119
REMARK INTER + INTRA:         -11.931
REMARK INTER:                 -10.806
REMARK INTRA:                  -1.125
REMARK UNBOUND:                -1.222
REMARK  Name = 
REMARK  7 active torsions:
REMARK  status: ('A' for Active; 'I' for Inactive)
REMARK    1  A    between atoms: C_2  and  C_20
REMARK    2  A    between atoms: N_3  and  C_4
REMARK    3  A    between atoms: C_4  and  C_5
REMARK    4  A    between atoms: C_8  and  C_9
REMARK    5  A    between atoms: C_9  and  N_10
REMARK    6  A    between atoms: N_10  and  C_11
REMARK    7  A    between atoms: C_11  and  C_12
REMARK                            x       y       z     vdW  Elec       q    Type
REMARK                         _______ _______ _______ _____ _____    ______ ____
ROOT
ATOM      1  C   UNL     1      48.376   6.471  13.700  0.00  0.00    +0.000 C 
ENDROOT
BRANCH   1   2
ATOM      2  C   UNL     1      47.175   6.039  12.902  0.00  0.00    +0.000 A 
ATOM      3  C   UNL     1      46.344   5.019  13.379  0.00  0.00    +0.000 A 
ATOM      4  C   UNL     1      45.204   4.642  12.668  0.00  0.00    +0.000 A 
ATOM      5  C   UNL     1      44.873   5.266  11.455  0.00  0.00    +0.000 A 
ATOM      6  C   UNL     1      45.730   6.255  10.955  0.00  0.00    +0.000 A 
ATOM      7  C   UNL     1      46.874   6.633  11.668  0.00  0.00    +0.000 A 
BRANCH   5   8
ATOM      8  C   UNL     1      43.620   4.867  10.705  0.00  0.00    +0.000 C 
BRANCH   8   9
ATOM      9  N   UNL     1      43.957   4.306   9.398  0.00  0.00    +0.000 NA
ATOM     10  H   UNL     1      44.738   4.836   9.008  0.00  0.00    +0.000 HD
BRANCH   9  11
ATOM     11  C   UNL     1      44.353   2.895   9.491  0.00  0.00    +0.000 C 
BRANCH  11  12
ATOM     12  C   UNL     1      45.466   2.562   8.522  0.00  0.00    +0.000 A 
ATOM     13  C   UNL     1      46.010   3.538   7.695  0.00  0.00    +0.000 A 
ATOM     14  C   UNL     1      47.048   3.191   6.843  0.00  0.00    +0.000 A 
ATOM     15  C   UNL     1      47.486   1.882   6.853  0.00  0.00    +0.000 A 
ATOM     16  N   UNL     1      46.943   0.945   7.653  0.00  0.00    +0.000 NA
ATOM     17  N   UNL     1      45.924   1.288   8.498  0.00  0.00    +0.000 NA
ENDBRANCH  11  12
ENDBRANCH   9  11
ENDBRANCH   8   9
ENDBRANCH   5   8
ENDBRANCH   1   2
BRANCH   1  20
ATOM     18  O   UNL     1      50.042   5.973  15.938  0.00  0.00    +0.000 OA
ATOM     19  C   UNL     1      48.924   6.451  16.110  0.00  0.00    +0.000 C 
ATOM     20  N   UNL     1      48.047   6.678  15.083  0.00  0.00    +0.000 N 
ATOM     21  H   UNL     1      47.224   7.244  15.254  0.00  0.00    +0.000 HD
BRANCH  19  22
ATOM     22  C   UNL     1      48.420   6.765  17.453  0.00  0.00    +0.000 A 
ATOM     23  C   UNL     1      48.261   5.755  18.394  0.00  0.00    +0.000 A 
ATOM     24  S   UNL     1      47.656   6.308  19.890  0.00  0.00    +0.000 S 
ATOM     25  C   UNL     1      47.620   7.921  19.345  0.00  0.00    +0.000 A 
ATOM     26  N   UNL     1      47.222   8.930  20.164  0.00  0.00    +0.000 NA
ATOM     27  C   UNL     1      47.275  10.102  19.632  0.00  0.00    +0.000 A 
ATOM     28  N   UNL     1      47.683  10.361  18.346  0.00  0.00    +0.000 N 
ATOM     29  C   UNL     1      48.018   9.368  17.463  0.00  0.00    +0.000 A 
ATOM     30  O   UNL     1      48.230   9.624  16.281  0.00  0.00    +0.000 OA
ATOM     31  C   UNL     1      48.032   8.034  18.028  0.00  0.00    +0.000 A 
ATOM     32  H   UNL     1      47.663  11.300  17.977  0.00  0.00    +0.000 HD
ENDBRANCH  19  22
ENDBRANCH   1  20
TORSDOF 7
ENDMDL
MODEL 4
REMARK VINA RESULT:    -7.274      3.196      7.900
REMARK INTER + INTRA:         -11.473
REMARK INTER:                 -10.058
REMARK INTRA:                  -1.415
REMARK UNBOUND:                -1.222
REMARK  Name = 
REMARK  7 active torsions:
REMARK  status: ('A' for Active; 'I' for Inactive)
REMARK    1  A    between atoms: C_2  and  C_20
REMARK    2  A    between atoms: N_3  and  C_4
REMARK    3  A    between atoms: C_4  and  C_5
REMARK    4  A    between atoms: C_8  and  C_9
REMARK    5  A    between atoms: C_9  and  N_10
REMARK    6  A    between atoms: N_10  and  C_11
REMARK    7  A    between atoms: C_11  and  C_12
REMARK                            x       y       z     vdW  Elec       q    Type
REMARK                         _______ _______ _______ _____ _____    ______ ____
ROOT
ATOM      1  C   UNL     1      48.312   8.118  12.050  0.00  0.00    +0.000 C 
ENDROOT
BRANCH   1   2
ATOM      2  C   UNL     1      48.457   8.050  13.548  0.00  0.00    +0.000 A 
ATOM      3  C   UNL     1      48.194   9.180  14.331  0.00  0.00    +0.000 A 
ATOM      4  C   UNL     1      48.283   9.114  15.723  0.00  0.00    +0.000 A 
ATOM      5  C   UNL     1      48.650   7.921  16.365  0.00  0.00    +0.000 A 
ATOM      6  C   UNL     1      48.958   6.804  15.578  0.00  0.00    +0.000 A 
ATOM      7  C   UNL     1      48.869   6.870  14.182  0.00  0.00    +0.000 A 
BRANCH   5   8
ATOM      8  C   UNL     1      48.718   7.854  17.875  0.00  0.00    +0.000 C 
BRANCH   8   9
ATOM      9  N   UNL     1      47.465   7.343  18.426  0.00  0.00    +0.000 NA
ATOM     10  H   UNL     1      46.845   7.097  17.652  0.00  0.00    +0.000 HD
BRANCH   9  11
ATOM     11  C   UNL     1      47.674   6.147  19.252  0.00  0.00    +0.000 C 
BRANCH  11  12
ATOM     12  C   UNL     1      47.853   4.907  18.404  0.00  0.00    +0.000 A 
ATOM     13  C   UNL     1      49.088   4.277  18.309  0.00  0.00    +0.000 A 
ATOM     14  C   UNL     1      49.196   3.126  17.542  0.00  0.00    +0.000 A 
ATOM     15  C   UNL     1      48.065   2.667  16.899  0.00  0.00    +0.000 A 
ATOM     16  N   UNL     1      46.876   3.292  16.992  0.00  0.00    +0.000 NA
ATOM     17  N   UNL     1      46.767   4.423  17.754  0.00  0.00    +0.000 NA
ENDBRANCH  11  12
ENDBRANCH   9  11
ENDBRANCH   8   9
ENDBRANCH   5   8
ENDBRANCH   1   2
BRANCH   1  20
ATOM     18  O   UNL     1      45.499   7.973  11.736  0.00  0.00    +0.000 OA
ATOM     19  C   UNL     1      46.199   7.028  11.380  0.00  0.00    +0.000 C 
ATOM     20  N   UNL     1      47.558   7.008  11.540  0.00  0.00    +0.000 N 
ATOM     21  H   UNL     1      48.100   6.297  11.062  0.00  0.00    +0.000 HD
BRANCH  19  22
ATOM     22  C   UNL     1      45.612   5.814  10.799  0.00  0.00    +0.000 A 
ATOM     23  C   UNL     1      45.819   5.510   9.458  0.00  0.00    +0.000 A 
ATOM     24  S   UNL     1      45.052   4.070   8.961  0.00  0.00    +0.000 S 
ATOM     25  C   UNL     1      44.447   3.782  10.526  0.00  0.00    +0.000 A 
ATOM     26  N   UNL     1      43.713   2.673  10.802  0.00  0.00    +0.000 NA
ATOM     27  C   UNL     1      43.347   2.566  12.033  0.00  0.00    +0.000 A 
ATOM     28  N   UNL     1      43.641   3.478  13.019  0.00  0.00    +0.000 N 
ATOM     29  C   UNL     1      44.310   4.647  12.768  0.00  0.00    +0.000 A 
ATOM     30  O   UNL     1      44.421   5.506  13.639  0.00  0.00    +0.000 OA
ATOM     31  C   UNL     1      44.796   4.789  11.410  0.00  0.00    +0.000 A 
ATOM     32  H   UNL     1      43.289   3.355  13.957  0.00  0.00    +0.000 HD
ENDBRANCH  19  22
ENDBRANCH   1  20
TORSDOF 7
ENDMDL
MODEL 5
REMARK VINA RESULT:    -7.215      2.763      3.630
REMARK INTER + INTRA:         -11.390
REMARK INTER:                 -10.546
REMARK INTRA:                  -0.843
REMARK UNBOUND:                -1.222
REMARK  Name = 
REMARK  7 active torsions:
REMARK  status: ('A' for Active; 'I' for Inactive)
REMARK    1  A    between atoms: C_2  and  C_20
REMARK    2  A    between atoms: N_3  and  C_4
REMARK    3  A    between atoms: C_4  and  C_5
REMARK    4  A    between atoms: C_8  and  C_9
REMARK    5  A    between atoms: C_9  and  N_10
REMARK    6  A    between atoms: N_10  and  C_11
REMARK    7  A    between atoms: C_11  and  C_12
REMARK                            x       y       z     vdW  Elec       q    Type
REMARK                         _______ _______ _______ _____ _____    ______ ____
ROOT
ATOM      1  C   UNL     1      49.100   6.903  15.962  0.00  0.00    +0.000 C 
ENDROOT
BRANCH   1   2
ATOM      2  C   UNL     1      48.204   6.141  15.021  0.00  0.00    +0.000 A 
ATOM      3  C   UNL     1      47.525   5.002  15.466  0.00  0.00    +0.000 A 
ATOM      4  C   UNL     1      46.659   4.314  14.614  0.00  0.00    +0.000 A 
ATOM      5  C   UNL     1      46.461   4.741  13.292  0.00  0.00    +0.000 A 
ATOM      6  C   UNL     1      47.176   5.854  12.833  0.00  0.00    +0.000 A 
ATOM      7  C   UNL     1      48.046   6.544  13.688  0.00  0.00    +0.000 A 
BRANCH   5   8
ATOM      8  C   UNL     1      45.500   4.004  12.385  0.00  0.00    +0.000 C 
BRANCH   8   9
ATOM      9  N   UNL     1      44.922   4.913  11.397  0.00  0.00    +0.000 NA
ATOM     10  H   UNL     1      45.680   5.432  10.951  0.00  0.00    +0.000 HD
BRANCH   9  11
ATOM     11  C   UNL     1      44.176   4.193  10.357  0.00  0.00    +0.000 C 
BRANCH  11  12
ATOM     12  C   UNL     1      45.087   3.713   9.248  0.00  0.00    +0.000 A 
ATOM     13  C   UNL     1      45.337   2.358   9.064  0.00  0.00    +0.000 A 
ATOM     14  C   UNL     1      46.157   1.965   8.016  0.00  0.00    +0.000 A 
ATOM     15  C   UNL     1      46.693   2.947   7.208  0.00  0.00    +0.000 A 
ATOM     16  N   UNL     1      46.449   4.257   7.403  0.00  0.00    +0.000 NA
ATOM     17  N   UNL     1      45.636   4.644   8.433  0.00  0.00    +0.000 NA
ENDBRANCH  11  12
ENDBRANCH   9  11
ENDBRANCH   8   9
ENDBRANCH   5   8
ENDBRANCH   1   2
BRANCH   1  20
ATOM     18  O   UNL     1      49.222   5.677  18.514  0.00  0.00    +0.000 OA
ATOM     19  C   UNL     1      50.125   5.484  17.706  0.00  0.00    +0.000 C 
ATOM     20  N   UNL     1      50.158   6.076  16.472  0.00  0.00    +0.000 N 
ATOM     21  H   UNL     1      50.817   5.738  15.780  0.00  0.00    +0.000 HD
BRANCH  19  22
ATOM     22  C   UNL     1      51.279   4.636  18.031  0.00  0.00    +0.000 A 
ATOM     23  C   UNL     1      52.392   5.181  18.659  0.00  0.00    +0.000 A 
ATOM     24  S   UNL     1      53.635   4.048  18.946  0.00  0.00    +0.000 S 
ATOM     25  C   UNL     1      52.715   2.782  18.275  0.00  0.00    +0.000 A 
ATOM     26  N   UNL     1      53.192   1.511  18.237  0.00  0.00    +0.000 NA
ATOM     27  C   UNL     1      52.379   0.649  17.733  0.00  0.00    +0.000 A 
ATOM     28  N   UNL     1      51.126   0.943  17.250  0.00  0.00    +0.000 N 
ATOM     29  C   UNL     1      50.637   2.222  17.198  0.00  0.00    +0.000 A 
ATOM     30  O   UNL     1      49.579   2.466  16.623  0.00  0.00    +0.000 OA
ATOM     31  C   UNL     1      51.488   3.223  17.807  0.00  0.00    +0.000 A 
ATOM     32  H   UNL     1      50.553   0.226  16.830  0.00  0.00    +0.000 HD
ENDBRANCH  19  22
ENDBRANCH   1  20
TORSDOF 7
ENDMDL
MODEL 6
REMARK VINA RESULT:    -6.929      3.568      7.669
REMARK INTER + INTRA:         -10.986
REMARK INTER:                  -9.058
REMARK INTRA:                  -1.928
REMARK UNBOUND:                -1.222
REMARK  Name = 
REMARK  7 active torsions:
REMARK  status: ('A' for Active; 'I' for Inactive)
REMARK    1  A    between atoms: C_2  and  C_20
REMARK    2  A    between atoms: N_3  and  C_4
REMARK    3  A    between atoms: C_4  and  C_5
REMARK    4  A    between atoms: C_8  and  C_9
REMARK    5  A    between atoms: C_9  and  N_10
REMARK    6  A    between atoms: N_10  and  C_11
REMARK    7  A    between atoms: C_11  and  C_12
REMARK                            x       y       z     vdW  Elec       q    Type
REMARK                         _______ _______ _______ _____ _____    ______ ____
ROOT
ATOM      1  C   UNL     1      48.153   9.082  15.086  0.00  0.00    +0.000 C 
ENDROOT
BRANCH   1   2
ATOM      2  C   UNL     1      49.177   8.287  15.852  0.00  0.00    +0.000 A 
ATOM      3  C   UNL     1      50.234   7.666  15.177  0.00  0.00    +0.000 A 
ATOM      4  C   UNL     1      51.212   6.963  15.883  0.00  0.00    +0.000 A 
ATOM      5  C   UNL     1      51.151   6.854  17.281  0.00  0.00    +0.000 A 
ATOM      6  C   UNL     1      50.068   7.437  17.952  0.00  0.00    +0.000 A 
ATOM      7  C   UNL     1      49.086   8.141  17.243  0.00  0.00    +0.000 A 
BRANCH   5   8
ATOM      8  C   UNL     1      52.231   6.113  18.039  0.00  0.00    +0.000 C 
BRANCH   8   9
ATOM      9  N   UNL     1      52.395   4.759  17.512  0.00  0.00    +0.000 NA
ATOM     10  H   UNL     1      53.391   4.533  17.503  0.00  0.00    +0.000 HD
BRANCH   9  11
ATOM     11  C   UNL     1      51.698   3.762  18.332  0.00  0.00    +0.000 C 
BRANCH  11  12
ATOM     12  C   UNL     1      50.429   3.278  17.664  0.00  0.00    +0.000 A 
ATOM     13  C   UNL     1      49.201   3.862  17.954  0.00  0.00    +0.000 A 
ATOM     14  C   UNL     1      48.069   3.403  17.295  0.00  0.00    +0.000 A 
ATOM     15  C   UNL     1      48.220   2.378  16.384  0.00  0.00    +0.000 A 
ATOM     16  N   UNL     1      49.415   1.816  16.119  0.00  0.00    +0.000 NA
ATOM     17  N   UNL     1      50.532   2.272  16.764  0.00  0.00    +0.000 NA
ENDBRANCH  11  12
ENDBRANCH   9  11
ENDBRANCH   8   9
ENDBRANCH   5   8
ENDBRANCH   1   2
BRANCH   1  20
ATOM     18  O   UNL     1      47.760   8.782  12.295  0.00  0.00    +0.000 OA
ATOM     19  C   UNL     1      47.096   8.107  13.076  0.00  0.00    +0.000 C 
ATOM     20  N   UNL     1      47.198   8.228  14.436  0.00  0.00    +0.000 N 
ATOM     21  H   UNL     1      46.773   7.522  15.027  0.00  0.00    +0.000 HD
BRANCH  19  22
ATOM     22  C   UNL     1      46.091   7.148  12.601  0.00  0.00    +0.000 A 
ATOM     23  C   UNL     1      45.011   7.586  11.843  0.00  0.00    +0.000 A 
ATOM     24  S   UNL     1      43.944   6.333  11.392  0.00  0.00    +0.000 S 
ATOM     25  C   UNL     1      44.907   5.157  12.160  0.00  0.00    +0.000 A 
ATOM     26  N   UNL     1      44.570   3.842  12.126  0.00  0.00    +0.000 NA
ATOM     27  C   UNL     1      45.404   3.060  12.720  0.00  0.00    +0.000 A 
ATOM     28  N   UNL     1      46.547   3.475  13.358  0.00  0.00    +0.000 N 
ATOM     29  C   UNL     1      46.884   4.797  13.485  0.00  0.00    +0.000 A 
ATOM     30  O   UNL     1      47.829   5.140  14.190  0.00  0.00    +0.000 OA
ATOM     31  C   UNL     1      46.010   5.716  12.783  0.00  0.00    +0.000 A 
ATOM     32  H   UNL     1      47.138   2.814  13.840  0.00  0.00    +0.000 HD
ENDBRANCH  19  22
ENDBRANCH   1  20
TORSDOF 7
ENDMDL
MODEL 7
REMARK VINA RESULT:    -6.918      2.846      8.202
REMARK INTER + INTRA:         -10.971
REMARK INTER:                  -9.641
REMARK INTRA:                  -1.331
REMARK UNBOUND:                -1.222
REMARK  Name = 
REMARK  7 active torsions:
REMARK  status: ('A' for Active; 'I' for Inactive)
REMARK    1  A    between atoms: C_2  and  C_20
REMARK    2  A    between atoms: N_3  and  C_4
REMARK    3  A    between atoms: C_4  and  C_5
REMARK    4  A    between atoms: C_8  and  C_9
REMARK    5  A    between atoms: C_9  and  N_10
REMARK    6  A    between atoms: N_10  and  C_11
REMARK    7  A    between atoms: C_11  and  C_12
REMARK                            x       y       z     vdW  Elec       q    Type
REMARK                         _______ _______ _______ _____ _____    ______ ____
ROOT
ATOM      1  C   UNL     1      47.921   7.745  12.035  0.00  0.00    +0.000 C 
ENDROOT
BRANCH   1   2
ATOM      2  C   UNL     1      48.788   7.660  13.263  0.00  0.00    +0.000 A 
ATOM      3  C   UNL     1      48.260   7.176  14.464  0.00  0.00    +0.000 A 
ATOM      4  C   UNL     1      49.068   7.053  15.596  0.00  0.00    +0.000 A 
ATOM      5  C   UNL     1      50.422   7.424  15.558  0.00  0.00    +0.000 A 
ATOM      6  C   UNL     1      50.938   7.952  14.368  0.00  0.00    +0.000 A 
ATOM      7  C   UNL     1      50.127   8.076  13.232  0.00  0.00    +0.000 A 
BRANCH   5   8
ATOM      8  C   UNL     1      51.295   7.262  16.783  0.00  0.00    +0.000 C 
BRANCH   8   9
ATOM      9  N   UNL     1      51.767   5.884  16.901  0.00  0.00    +0.000 NA
ATOM     10  H   UNL     1      52.777   5.897  17.054  0.00  0.00    +0.000 HD
BRANCH   9  11
ATOM     11  C   UNL     1      51.135   5.181  18.025  0.00  0.00    +0.000 C 
BRANCH  11  12
ATOM     12  C   UNL     1      50.212   4.082  17.547  0.00  0.00    +0.000 A 
ATOM     13  C   UNL     1      48.832   4.206  17.663  0.00  0.00    +0.000 A 
ATOM     14  C   UNL     1      48.025   3.184  17.184  0.00  0.00    +0.000 A 
ATOM     15  C   UNL     1      48.638   2.083  16.621  0.00  0.00    +0.000 A 
ATOM     16  N   UNL     1      49.976   1.972  16.523  0.00  0.00    +0.000 NA
ATOM     17  N   UNL     1      50.772   2.982  16.989  0.00  0.00    +0.000 NA
ENDBRANCH  11  12
ENDBRANCH   9  11
ENDBRANCH   8   9
ENDBRANCH   5   8
ENDBRANCH   1   2
BRANCH   1  20
ATOM     18  O   UNL     1      45.105   7.567  12.307  0.00  0.00    +0.000 OA
ATOM     19  C   UNL     1      45.747   6.571  11.984  0.00  0.00    +0.000 C 
ATOM     20  N   UNL     1      47.112   6.569  11.876  0.00  0.00    +0.000 N 
ATOM     21  H   UNL     1      47.570   5.784  11.426  0.00  0.00    +0.000 HD
BRANCH  19  22
ATOM     22  C   UNL     1      45.092   5.280  11.741  0.00  0.00    +0.000 A 
ATOM     23  C   UNL     1      44.404   4.641  12.766  0.00  0.00    +0.000 A 
ATOM     24  S   UNL     1      43.720   3.149  12.300  0.00  0.00    +0.000 S 
ATOM     25  C   UNL     1      44.286   3.322  10.704  0.00  0.00    +0.000 A 
ATOM     26  N   UNL     1      44.014   2.386   9.758  0.00  0.00    +0.000 NA
ATOM     27  C   UNL     1      44.476   2.659   8.586  0.00  0.00    +0.000 A 
ATOM     28  N   UNL     1      45.198   3.785   8.273  0.00  0.00    +0.000 N 
ATOM     29  C   UNL     1      45.562   4.715   9.212  0.00  0.00    +0.000 A 
ATOM     30  O   UNL     1      46.333   5.626   8.926  0.00  0.00    +0.000 OA
ATOM     31  C   UNL     1      45.017   4.485  10.535  0.00  0.00    +0.000 A 
ATOM     32  H   UNL     1      45.566   3.920   7.343  0.00  0.00    +0.000 HD
ENDBRANCH  19  22
ENDBRANCH   1  20
TORSDOF 7
ENDMDL
MODEL 8
REMARK VINA RESULT:    -6.844      1.809      2.420
REMARK INTER + INTRA:         -10.867
REMARK INTER:                  -9.969
REMARK INTRA:                  -0.898
REMARK UNBOUND:                -1.222
REMARK  Name = 
REMARK  7 active torsions:
REMARK  status: ('A' for Active; 'I' for Inactive)
REMARK    1  A    between atoms: C_2  and  C_20
REMARK    2  A    between atoms: N_3  and  C_4
REMARK    3  A    between atoms: C_4  and  C_5
REMARK    4  A    between atoms: C_8  and  C_9
REMARK    5  A    between atoms: C_9  and  N_10
REMARK    6  A    between atoms: N_10  and  C_11
REMARK    7  A    between atoms: C_11  and  C_12
REMARK                            x       y       z     vdW  Elec       q    Type
REMARK                         _______ _______ _______ _____ _____    ______ ____
ROOT
ATOM      1  C   UNL     1      48.317   7.045  13.565  0.00  0.00    +0.000 C 
ENDROOT
BRANCH   1   2
ATOM      2  C   UNL     1      47.148   6.339  12.932  0.00  0.00    +0.000 A 
ATOM      3  C   UNL     1      46.645   6.776  11.701  0.00  0.00    +0.000 A 
ATOM      4  C   UNL     1      45.589   6.101  11.086  0.00  0.00    +0.000 A 
ATOM      5  C   UNL     1      45.001   4.980  11.692  0.00  0.00    +0.000 A 
ATOM      6  C   UNL     1      45.475   4.571  12.945  0.00  0.00    +0.000 A 
ATOM      7  C   UNL     1      46.533   5.248  13.563  0.00  0.00    +0.000 A 
BRANCH   5   8
ATOM      8  C   UNL     1      43.875   4.239  11.003  0.00  0.00    +0.000 C 
BRANCH   8   9
ATOM      9  N   UNL     1      44.184   4.029   9.590  0.00  0.00    +0.000 NA
ATOM     10  H   UNL     1      45.041   4.537   9.365  0.00  0.00    +0.000 HD
BRANCH   9  11
ATOM     11  C   UNL     1      44.388   2.609   9.278  0.00  0.00    +0.000 C 
BRANCH  11  12
ATOM     12  C   UNL     1      45.573   2.405   8.359  0.00  0.00    +0.000 A 
ATOM     13  C   UNL     1      46.071   3.451   7.592  0.00  0.00    +0.000 A 
ATOM     14  C   UNL     1      47.177   3.222   6.785  0.00  0.00    +0.000 A 
ATOM     15  C   UNL     1      47.725   1.955   6.779  0.00  0.00    +0.000 A 
ATOM     16  N   UNL     1      47.226   0.949   7.522  0.00  0.00    +0.000 NA
ATOM     17  N   UNL     1      46.140   1.175   8.321  0.00  0.00    +0.000 NA
ENDBRANCH  11  12
ENDBRANCH   9  11
ENDBRANCH   8   9
ENDBRANCH   5   8
ENDBRANCH   1   2
BRANCH   1  20
ATOM     18  O   UNL     1      48.711   8.264  16.093  0.00  0.00    +0.000 OA
ATOM     19  C   UNL     1      48.862   7.051  15.975  0.00  0.00    +0.000 C 
ATOM     20  N   UNL     1      48.732   6.399  14.779  0.00  0.00    +0.000 N 
ATOM     21  H   UNL     1      48.678   5.386  14.772  0.00  0.00    +0.000 HD
BRANCH  19  22
ATOM     22  C   UNL     1      49.250   6.211  17.115  0.00  0.00    +0.000 A 
ATOM     23  C   UNL     1      48.288   5.758  18.009  0.00  0.00    +0.000 A 
ATOM     24  S   UNL     1      48.928   4.806  19.273  0.00  0.00    +0.000 S 
ATOM     25  C   UNL     1      50.506   4.936  18.650  0.00  0.00    +0.000 A 
ATOM     26  N   UNL     1      51.553   4.314  19.252  0.00  0.00    +0.000 NA
ATOM     27  C   UNL     1      52.684   4.470  18.656  0.00  0.00    +0.000 A 
ATOM     28  N   UNL     1      52.870   5.205  17.510  0.00  0.00    +0.000 N 
ATOM     29  C   UNL     1      51.859   5.912  16.914  0.00  0.00    +0.000 A 
ATOM     30  O   UNL     1      52.093   6.677  15.982  0.00  0.00    +0.000 OA
ATOM     31  C   UNL     1      50.552   5.723  17.511  0.00  0.00    +0.000 A 
ATOM     32  H   UNL     1      53.792   5.321  17.115  0.00  0.00    +0.000 HD
ENDBRANCH  19  22
ENDBRANCH   1  20
TORSDOF 7
ENDMDL
MODEL 9
REMARK VINA RESULT:    -6.714      4.263      6.463
REMARK INTER + INTRA:         -10.684
REMARK INTER:                  -9.973
REMARK INTRA:                  -0.711
REMARK UNBOUND:                -1.222
REMARK  Name = 
REMARK  7 active torsions:
REMARK  status: ('A' for Active; 'I' for Inactive)
REMARK    1  A    between atoms: C_2  and  C_20
REMARK    2  A    between atoms: N_3  and  C_4
REMARK    3  A    between atoms: C_4  and  C_5
REMARK    4  A    between atoms: C_8  and  C_9
REMARK    5  A    between atoms: C_9  and  N_10
REMARK    6  A    between atoms: N_10  and  C_11
REMARK    7  A    between atoms: C_11  and  C_12
REMARK                            x       y       z     vdW  Elec       q    Type
REMARK                         _______ _______ _______ _____ _____    ______ ____
ROOT
ATOM      1  C   UNL     1      46.855   4.450  14.456  0.00  0.00    +0.000 C 
ENDROOT
BRANCH   1   2
ATOM      2  C   UNL     1      46.279   5.586  13.653  0.00  0.00    +0.000 A 
ATOM      3  C   UNL     1      46.986   6.787  13.526  0.00  0.00    +0.000 A 
ATOM      4  C   UNL     1      46.480   7.830  12.748  0.00  0.00    +0.000 A 
ATOM      5  C   UNL     1      45.248   7.703  12.088  0.00  0.00    +0.000 A 
ATOM      6  C   UNL     1      44.519   6.518  12.252  0.00  0.00    +0.000 A 
ATOM      7  C   UNL     1      45.026   5.472  13.033  0.00  0.00    +0.000 A 
BRANCH   5   8
ATOM      8  C   UNL     1      44.721   8.830  11.226  0.00  0.00    +0.000 C 
BRANCH   8   9
ATOM      9  N   UNL     1      43.300   8.641  10.941  0.00  0.00    +0.000 NA
ATOM     10  H   UNL     1      42.810   8.484  11.822  0.00  0.00    +0.000 HD
BRANCH   9  11
ATOM     11  C   UNL     1      42.712   9.813  10.282  0.00  0.00    +0.000 C 
BRANCH  11  12
ATOM     12  C   UNL     1      41.682  10.489  11.161  0.00  0.00    +0.000 A 
ATOM     13  C   UNL     1      40.327  10.211  11.018  0.00  0.00    +0.000 A 
ATOM     14  C   UNL     1      39.423  10.834  11.866  0.00  0.00    +0.000 A 
ATOM     15  C   UNL     1      39.917  11.711  12.810  0.00  0.00    +0.000 A 
ATOM     16  N   UNL     1      41.232  11.978  12.931  0.00  0.00    +0.000 NA
ATOM     17  N   UNL     1      42.124  11.359  12.099  0.00  0.00    +0.000 NA
ENDBRANCH  11  12
ENDBRANCH   9  11
ENDBRANCH   8   9
ENDBRANCH   5   8
ENDBRANCH   1   2
BRANCH   1  20
ATOM     18  O   UNL     1      46.496   3.216  16.981  0.00  0.00    +0.000 OA
ATOM     19  C   UNL     1      47.188   4.226  16.894  0.00  0.00    +0.000 C 
ATOM     20  N   UNL     1      47.371   4.902  15.717  0.00  0.00    +0.000 N 
ATOM     21  H   UNL     1      48.096   5.609  15.663  0.00  0.00    +0.000 HD
BRANCH  19  22
ATOM     22  C   UNL     1      47.832   4.820  18.072  0.00  0.00    +0.000 A 
ATOM     23  C   UNL     1      47.118   5.677  18.901  0.00  0.00    +0.000 A 
ATOM     24  S   UNL     1      48.034   6.277  20.210  0.00  0.00    +0.000 S 
ATOM     25  C   UNL     1      49.405   5.385  19.735  0.00  0.00    +0.000 A 
ATOM     26  N   UNL     1      50.554   5.424  20.459  0.00  0.00    +0.000 NA
ATOM     27  C   UNL     1      51.499   4.677  20.004  0.00  0.00    +0.000 A 
ATOM     28  N   UNL     1      51.405   3.895  18.878  0.00  0.00    +0.000 N 
ATOM     29  C   UNL     1      50.295   3.886  18.075  0.00  0.00    +0.000 A 
ATOM     30  O   UNL     1      50.303   3.295  16.998  0.00  0.00    +0.000 OA
ATOM     31  C   UNL     1      49.179   4.665  18.574  0.00  0.00    +0.000 A 
ATOM     32  H   UNL     1      52.198   3.363  18.551  0.00  0.00    +0.000 HD
ENDBRANCH  19  22
ENDBRANCH   1  20
TORSDOF 7
ENDMDL
