MODEL 1
REMARK VINA RESULT:    -8.282      0.000      0.000
REMARK INTER + INTRA:         -13.175
REMARK INTER:                 -11.671
REMARK INTRA:                  -1.503
REMARK UNBOUND:                -1.503
REMARK  Name = 
REMARK  8 active torsions:
REMARK  status: ('A' for Active; 'I' for Inactive)
REMARK    1  A    between atoms: C_1  and  C_2
REMARK    2  A    between atoms: C_2  and  N_3
REMARK    3  A    between atoms: C_2  and  C_25
REMARK    4  A    between atoms: N_3  and  C_4
REMARK    5  A    between atoms: C_4  and  C_5
REMARK    6  A    between atoms: C_8  and  C_9
REMARK    7  A    between atoms: C_9  and  N_10
REMARK    8  A    between atoms: C_11  and  C_13
REMARK                            x       y       z     vdW  Elec       q    Type
REMARK                         _______ _______ _______ _____ _____    ______ ____
ROOT
ATOM      1  C   UNL     1      44.506   5.701  10.912  0.00  0.00    +0.000 A 
ATOM      2  C   UNL     1      43.992   6.535  11.914  0.00  0.00    +0.000 A 
ATOM      3  C   UNL     1      44.840   7.358  12.665  0.00  0.00    +0.000 A 
ATOM      4  C   UNL     1      46.219   7.366  12.427  0.00  0.00    +0.000 A 
ATOM      5  C   UNL     1      46.738   6.525  11.434  0.00  0.00    +0.000 A 
ATOM      6  C   UNL     1      45.890   5.708  10.680  0.00  0.00    +0.000 A 
ENDROOT
BRANCH   1   7
ATOM      7  C   UNL     1      43.610   4.748  10.149  0.00  0.00    +0.000 C 
BRANCH   7   8
ATOM      8  N   UNL     1      44.174   4.345   8.861  0.00  0.00    +0.000 NA
ATOM      9  H   UNL     1      43.532   4.614   8.117  0.00  0.00    +0.000 HD
BRANCH   8  11
ATOM     10  C   UNL     1      44.426   2.208  10.126  0.00  0.00    +0.000 C 
ATOM     11  C   UNL     1      44.398   2.892   8.754  0.00  0.00    +0.000 C 
BRANCH  11  12
ATOM     12  C   UNL     1      45.691   2.632   7.983  0.00  0.00    +0.000 A 
ATOM     13  C   UNL     1      46.303   1.368   8.018  0.00  0.00    +0.000 A 
ATOM     14  C   UNL     1      47.448   1.103   7.263  0.00  0.00    +0.000 A 
ATOM     15  C   UNL     1      48.002   2.098   6.463  0.00  0.00    +0.000 A 
ATOM     16  C   UNL     1      47.421   3.362   6.427  0.00  0.00    +0.000 A 
ATOM     17  C   UNL     1      46.274   3.628   7.181  0.00  0.00    +0.000 A 
ENDBRANCH  11  12
ENDBRANCH   8  11
ENDBRANCH   7   8
ENDBRANCH   1   7
BRANCH   4  18
ATOM     18  C   UNL     1      47.144   8.218  13.257  0.00  0.00    +0.000 C 
BRANCH  18  19
ATOM     19  N   UNL     1      47.533   7.531  14.462  0.00  0.00    +0.000 N 
ATOM     20  C   UNL     1      48.740   6.889  14.562  0.00  0.00    +0.000 C 
ATOM     21  O   UNL     1      49.559   6.892  13.647  0.00  0.00    +0.000 OA
ATOM     22  H   UNL     1      46.794   7.306  15.120  0.00  0.00    +0.000 HD
BRANCH  20  23
ATOM     23  C   UNL     1      49.034   6.251  15.851  0.00  0.00    +0.000 A 
ATOM     24  C   UNL     1      50.053   6.751  16.652  0.00  0.00    +0.000 A 
ATOM     25  S   UNL     1      50.222   5.930  18.137  0.00  0.00    +0.000 S 
ATOM     26  C   UNL     1      48.974   4.841  17.740  0.00  0.00    +0.000 A 
ATOM     27  N   UNL     1      48.622   3.843  18.589  0.00  0.00    +0.000 NA
ATOM     28  C   UNL     1      47.683   3.074  18.149  0.00  0.00    +0.000 A 
ATOM     29  N   UNL     1      47.057   3.220  16.939  0.00  0.00    +0.000 N 
ATOM     30  C   UNL     1      47.354   4.232  16.059  0.00  0.00    +0.000 A 
ATOM     31  O   UNL     1      46.747   4.364  15.005  0.00  0.00    +0.000 OA
ATOM     32  C   UNL     1      48.421   5.115  16.502  0.00  0.00    +0.000 A 
ATOM     33  H   UNL     1      46.318   2.592  16.655  0.00  0.00    +0.000 HD
ENDBRANCH  20  23
ENDBRANCH  18  19
ENDBRANCH   4  18
TORSDOF 7
ENDMDL
MODEL 2
REMARK VINA RESULT:    -7.895      1.903      2.179
REMARK INTER + INTRA:         -12.630
REMARK INTER:                 -11.631
REMARK INTRA:                  -0.998
REMARK UNBOUND:                -1.503
REMARK  Name = 
REMARK  8 active torsions:
REMARK  status: ('A' for Active; 'I' for Inactive)
REMARK    1  A    between atoms: C_1  and  C_2
REMARK    2  A    between atoms: C_2  and  N_3
REMARK    3  A    between atoms: C_2  and  C_25
REMARK    4  A    between atoms: N_3  and  C_4
REMARK    5  A    between atoms: C_4  and  C_5
REMARK    6  A    between atoms: C_8  and  C_9
REMARK    7  A    between atoms: C_9  and  N_10
REMARK    8  A    between atoms: C_11  and  C_13
REMARK                            x       y       z     vdW  Elec       q    Type
REMARK                         _______ _______ _______ _____ _____    ______ ____
ROOT
ATOM      1  C   UNL     1      44.933   5.504  11.680  0.00  0.00    +0.000 A 
ATOM      2  C   UNL     1      45.176   4.945  12.943  0.00  0.00    +0.000 A 
ATOM      3  C   UNL     1      46.309   5.307  13.680  0.00  0.00    +0.000 A 
ATOM      4  C   UNL     1      47.223   6.238  13.171  0.00  0.00    +0.000 A 
ATOM      5  C   UNL     1      46.990   6.788  11.904  0.00  0.00    +0.000 A 
ATOM      6  C   UNL     1      45.854   6.431  11.171  0.00  0.00    +0.000 A 
ENDROOT
BRANCH   1   7
ATOM      7  C   UNL     1      43.754   5.060  10.840  0.00  0.00    +0.000 C 
BRANCH   7   8
ATOM      8  N   UNL     1      44.135   4.683   9.479  0.00  0.00    +0.000 NA
ATOM      9  H   UNL     1      43.466   5.084   8.823  0.00  0.00    +0.000 HD
BRANCH   8  11
ATOM     10  C   UNL     1      44.087   2.444  10.582  0.00  0.00    +0.000 C 
ATOM     11  C   UNL     1      44.154   3.225   9.264  0.00  0.00    +0.000 C 
BRANCH  11  12
ATOM     12  C   UNL     1      45.397   2.846   8.462  0.00  0.00    +0.000 A 
ATOM     13  C   UNL     1      45.840   1.513   8.416  0.00  0.00    +0.000 A 
ATOM     14  C   UNL     1      46.937   1.146   7.632  0.00  0.00    +0.000 A 
ATOM     15  C   UNL     1      47.610   2.106   6.883  0.00  0.00    +0.000 A 
ATOM     16  C   UNL     1      47.199   3.436   6.927  0.00  0.00    +0.000 A 
ATOM     17  C   UNL     1      46.100   3.803   7.710  0.00  0.00    +0.000 A 
ENDBRANCH  11  12
ENDBRANCH   8  11
ENDBRANCH   7   8
ENDBRANCH   1   7
BRANCH   4  18
ATOM     18  C   UNL     1      48.467   6.603  13.938  0.00  0.00    +0.000 C 
BRANCH  18  19
ATOM     19  N   UNL     1      48.168   6.807  15.333  0.00  0.00    +0.000 N 
ATOM     20  C   UNL     1      49.091   6.533  16.309  0.00  0.00    +0.000 C 
ATOM     21  O   UNL     1      50.221   6.131  16.046  0.00  0.00    +0.000 OA
ATOM     22  H   UNL     1      47.189   6.896  15.584  0.00  0.00    +0.000 HD
BRANCH  20  23
ATOM     23  C   UNL     1      48.680   6.811  17.691  0.00  0.00    +0.000 A 
ATOM     24  C   UNL     1      48.327   8.103  18.059  0.00  0.00    +0.000 A 
ATOM     25  S   UNL     1      47.821   8.239  19.682  0.00  0.00    +0.000 S 
ATOM     26  C   UNL     1      48.107   6.584  19.967  0.00  0.00    +0.000 A 
ATOM     27  N   UNL     1      47.895   6.040  21.191  0.00  0.00    +0.000 NA
ATOM     28  C   UNL     1      48.180   4.783  21.273  0.00  0.00    +0.000 A 
ATOM     29  N   UNL     1      48.649   4.019  20.238  0.00  0.00    +0.000 N 
ATOM     30  C   UNL     1      48.848   4.514  18.972  0.00  0.00    +0.000 A 
ATOM     31  O   UNL     1      49.225   3.799  18.055  0.00  0.00    +0.000 OA
ATOM     32  C   UNL     1      48.558   5.934  18.833  0.00  0.00    +0.000 A 
ATOM     33  H   UNL     1      48.842   3.035  20.361  0.00  0.00    +0.000 HD
ENDBRANCH  20  23
ENDBRANCH  18  19
ENDBRANCH   4  18
TORSDOF 7
ENDMDL
MODEL 3
REMARK VINA RESULT:    -7.511      1.436      1.990
REMARK INTER + INTRA:         -12.088
REMARK INTER:                 -10.503
REMARK INTRA:                  -1.585
REMARK UNBOUND:                -1.503
REMARK  Name = 
REMARK  8 active torsions:
REMARK  status: ('A' for Active; 'I' for Inactive)
REMARK    1  A    between atoms: C_1  and  C_2
REMARK    2  A    between atoms: C_2  and  N_3
REMARK    3  A    between atoms: C_2  and  C_25
REMARK    4  A    between atoms: N_3  and  C_4
REMARK    5  A    between atoms: C_4  and  C_5
REMARK    6  A    between atoms: C_8  and  C_9
REMARK    7  A    between atoms: C_9  and  N_10
REMARK    8  A    between atoms: C_11  and  C_13
REMARK                            x       y       z     vdW  Elec       q    Type
REMARK                         _______ _______ _______ _____ _____    ______ ____
ROOT
ATOM      1  C   UNL     1      45.093   6.670  11.999  0.00  0.00    +0.000 A 
ATOM      2  C   UNL     1      45.108   7.961  12.547  0.00  0.00    +0.000 A 
ATOM      3  C   UNL     1      46.303   8.534  12.996  0.00  0.00    +0.000 A 
ATOM      4  C   UNL     1      47.510   7.829  12.905  0.00  0.00    +0.000 A 
ATOM      5  C   UNL     1      47.496   6.535  12.370  0.00  0.00    +0.000 A 
ATOM      6  C   UNL     1      46.303   5.965  11.915  0.00  0.00    +0.000 A 
ENDROOT
BRANCH   1   7
ATOM      7  C   UNL     1      43.795   6.010  11.585  0.00  0.00    +0.000 C 
BRANCH   7   8
ATOM      8  N   UNL     1      43.833   5.489  10.219  0.00  0.00    +0.000 NA
ATOM      9  H   UNL     1      43.074   5.906   9.682  0.00  0.00    +0.000 HD
BRANCH   8  11
ATOM     10  C   UNL     1      43.773   3.367  11.534  0.00  0.00    +0.000 C 
ATOM     11  C   UNL     1      43.675   4.025  10.151  0.00  0.00    +0.000 C 
BRANCH  11  12
ATOM     12  C   UNL     1      44.713   3.445   9.192  0.00  0.00    +0.000 A 
ATOM     13  C   UNL     1      45.464   4.288   8.355  0.00  0.00    +0.000 A 
ATOM     14  C   UNL     1      46.461   3.773   7.524  0.00  0.00    +0.000 A 
ATOM     15  C   UNL     1      46.723   2.406   7.513  0.00  0.00    +0.000 A 
ATOM     16  C   UNL     1      45.979   1.551   8.322  0.00  0.00    +0.000 A 
ATOM     17  C   UNL     1      44.982   2.066   9.155  0.00  0.00    +0.000 A 
ENDBRANCH  11  12
ENDBRANCH   8  11
ENDBRANCH   7   8
ENDBRANCH   1   7
BRANCH   4  18
ATOM     18  C   UNL     1      48.795   8.421  13.423  0.00  0.00    +0.000 C 
BRANCH  18  19
ATOM     19  N   UNL     1      49.194   7.784  14.652  0.00  0.00    +0.000 N 
ATOM     20  C   UNL     1      48.794   8.268  15.871  0.00  0.00    +0.000 C 
ATOM     21  O   UNL     1      48.054   9.243  15.976  0.00  0.00    +0.000 OA
ATOM     22  H   UNL     1      49.984   7.149  14.605  0.00  0.00    +0.000 HD
BRANCH  20  23
ATOM     23  C   UNL     1      49.240   7.516  17.050  0.00  0.00    +0.000 A 
ATOM     24  C   UNL     1      49.932   8.167  18.063  0.00  0.00    +0.000 A 
ATOM     25  S   UNL     1      50.324   7.159  19.381  0.00  0.00    +0.000 S 
ATOM     26  C   UNL     1      49.632   5.802  18.621  0.00  0.00    +0.000 A 
ATOM     27  N   UNL     1      49.652   4.583  19.216  0.00  0.00    +0.000 NA
ATOM     28  C   UNL     1      49.118   3.638  18.515  0.00  0.00    +0.000 A 
ATOM     29  N   UNL     1      48.556   3.806  17.278  0.00  0.00    +0.000 N 
ATOM     30  C   UNL     1      48.481   5.025  16.648  0.00  0.00    +0.000 A 
ATOM     31  O   UNL     1      47.933   5.153  15.562  0.00  0.00    +0.000 OA
ATOM     32  C   UNL     1      49.087   6.119  17.390  0.00  0.00    +0.000 A 
ATOM     33  H   UNL     1      48.141   3.029  16.783  0.00  0.00    +0.000 HD
ENDBRANCH  20  23
ENDBRANCH  18  19
ENDBRANCH   4  18
TORSDOF 7
ENDMDL
MODEL 4
REMARK VINA RESULT:    -7.483      2.338      2.936
REMARK INTER + INTRA:         -12.048
REMARK INTER:                 -10.880
REMARK INTRA:                  -1.168
REMARK UNBOUND:                -1.503
REMARK  Name = 
REMARK  8 active torsions:
REMARK  status: ('A' for Active; 'I' for Inactive)
REMARK    1  A    between atoms: C_1  and  C_2
REMARK    2  A    between atoms: C_2  and  N_3
REMARK    3  A    between atoms: C_2  and  C_25
REMARK    4  A    between atoms: N_3  and  C_4
REMARK    5  A    between atoms: C_4  and  C_5
REMARK    6  A    between atoms: C_8  and  C_9
REMARK    7  A    between atoms: C_9  and  N_10
REMARK    8  A    between atoms: C_11  and  C_13
REMARK                            x       y       z     vdW  Elec       q    Type
REMARK                         _______ _______ _______ _____ _____    ______ ____
ROOT
ATOM      1  C   UNL     1      45.138   5.914  11.785  0.00  0.00    +0.000 A 
ATOM      2  C   UNL     1      45.839   5.080  12.666  0.00  0.00    +0.000 A 
ATOM      3  C   UNL     1      46.863   5.589  13.472  0.00  0.00    +0.000 A 
ATOM      4  C   UNL     1      47.207   6.945  13.416  0.00  0.00    +0.000 A 
ATOM      5  C   UNL     1      46.517   7.780  12.527  0.00  0.00    +0.000 A 
ATOM      6  C   UNL     1      45.489   7.271  11.727  0.00  0.00    +0.000 A 
ENDROOT
BRANCH   1   7
ATOM      7  C   UNL     1      44.083   5.359  10.851  0.00  0.00    +0.000 C 
BRANCH   7   8
ATOM      8  N   UNL     1      44.633   4.928   9.566  0.00  0.00    +0.000 NA
ATOM      9  H   UNL     1      44.252   5.517   8.826  0.00  0.00    +0.000 HD
BRANCH   8  11
ATOM     10  C   UNL     1      44.064   2.678  10.487  0.00  0.00    +0.000 C 
ATOM     11  C   UNL     1      44.307   3.529   9.234  0.00  0.00    +0.000 C 
BRANCH  11  12
ATOM     12  C   UNL     1      45.423   2.937   8.376  0.00  0.00    +0.000 A 
ATOM     13  C   UNL     1      46.178   3.755   7.518  0.00  0.00    +0.000 A 
ATOM     14  C   UNL     1      47.244   3.234   6.781  0.00  0.00    +0.000 A 
ATOM     15  C   UNL     1      47.571   1.885   6.886  0.00  0.00    +0.000 A 
ATOM     16  C   UNL     1      46.826   1.053   7.716  0.00  0.00    +0.000 A 
ATOM     17  C   UNL     1      45.760   1.574   8.456  0.00  0.00    +0.000 A 
ENDBRANCH  11  12
ENDBRANCH   8  11
ENDBRANCH   7   8
ENDBRANCH   1   7
BRANCH   4  18
ATOM     18  C   UNL     1      48.335   7.495  14.249  0.00  0.00    +0.000 C 
BRANCH  18  19
ATOM     19  N   UNL     1      48.143   7.182  15.643  0.00  0.00    +0.000 N 
ATOM     20  C   UNL     1      49.105   6.526  16.367  0.00  0.00    +0.000 C 
ATOM     21  O   UNL     1      50.183   6.201  15.878  0.00  0.00    +0.000 OA
ATOM     22  H   UNL     1      47.192   7.214  15.994  0.00  0.00    +0.000 HD
BRANCH  20  23
ATOM     23  C   UNL     1      48.806   6.292  17.785  0.00  0.00    +0.000 A 
ATOM     24  C   UNL     1      49.038   5.041  18.342  0.00  0.00    +0.000 A 
ATOM     25  S   UNL     1      48.691   4.958  20.009  0.00  0.00    +0.000 S 
ATOM     26  C   UNL     1      48.166   6.578  20.037  0.00  0.00    +0.000 A 
ATOM     27  N   UNL     1      47.703   7.143  21.180  0.00  0.00    +0.000 NA
ATOM     28  C   UNL     1      47.311   8.367  21.050  0.00  0.00    +0.000 A 
ATOM     29  N   UNL     1      47.350   9.079  19.882  0.00  0.00    +0.000 N 
ATOM     30  C   UNL     1      47.840   8.564  18.706  0.00  0.00    +0.000 A 
ATOM     31  O   UNL     1      47.905   9.239  17.687  0.00  0.00    +0.000 OA
ATOM     32  C   UNL     1      48.278   7.180  18.796  0.00  0.00    +0.000 A 
ATOM     33  H   UNL     1      47.041  10.040  19.845  0.00  0.00    +0.000 HD
ENDBRANCH  20  23
ENDBRANCH  18  19
ENDBRANCH   4  18
TORSDOF 7
ENDMDL
MODEL 5
REMARK VINA RESULT:    -6.994      2.930      8.318
REMARK INTER + INTRA:         -11.359
REMARK INTER:                  -9.436
REMARK INTRA:                  -1.923
REMARK UNBOUND:                -1.503
REMARK  Name = 
REMARK  8 active torsions:
REMARK  status: ('A' for Active; 'I' for Inactive)
REMARK    1  A    between atoms: C_1  and  C_2
REMARK    2  A    between atoms: C_2  and  N_3
REMARK    3  A    between atoms: C_2  and  C_25
REMARK    4  A    between atoms: N_3  and  C_4
REMARK    5  A    between atoms: C_4  and  C_5
REMARK    6  A    between atoms: C_8  and  C_9
REMARK    7  A    between atoms: C_9  and  N_10
REMARK    8  A    between atoms: C_11  and  C_13
REMARK                            x       y       z     vdW  Elec       q    Type
REMARK                         _______ _______ _______ _____ _____    ______ ____
ROOT
ATOM      1  C   UNL     1      49.463   8.127  16.093  0.00  0.00    +0.000 A 
ATOM      2  C   UNL     1      50.044   7.282  15.138  0.00  0.00    +0.000 A 
ATOM      3  C   UNL     1      49.541   7.223  13.833  0.00  0.00    +0.000 A 
ATOM      4  C   UNL     1      48.447   8.010  13.455  0.00  0.00    +0.000 A 
ATOM      5  C   UNL     1      47.856   8.847  14.410  0.00  0.00    +0.000 A 
ATOM      6  C   UNL     1      48.363   8.910  15.712  0.00  0.00    +0.000 A 
ENDROOT
BRANCH   1   7
ATOM      7  C   UNL     1      49.947   8.139  17.528  0.00  0.00    +0.000 C 
BRANCH   7   8
ATOM      8  N   UNL     1      49.033   7.456  18.442  0.00  0.00    +0.000 NA
ATOM      9  H   UNL     1      48.821   8.074  19.225  0.00  0.00    +0.000 HD
BRANCH   8  11
ATOM     10  C   UNL     1      51.121   6.236  19.060  0.00  0.00    +0.000 C 
ATOM     11  C   UNL     1      49.589   6.209  18.997  0.00  0.00    +0.000 C 
BRANCH  11  12
ATOM     12  C   UNL     1      49.092   5.021  18.176  0.00  0.00    +0.000 A 
ATOM     13  C   UNL     1      49.934   3.925  17.921  0.00  0.00    +0.000 A 
ATOM     14  C   UNL     1      49.467   2.805  17.229  0.00  0.00    +0.000 A 
ATOM     15  C   UNL     1      48.152   2.764  16.776  0.00  0.00    +0.000 A 
ATOM     16  C   UNL     1      47.306   3.846  17.002  0.00  0.00    +0.000 A 
ATOM     17  C   UNL     1      47.772   4.966  17.697  0.00  0.00    +0.000 A 
ENDBRANCH  11  12
ENDBRANCH   8  11
ENDBRANCH   7   8
ENDBRANCH   1   7
BRANCH   4  18
ATOM     18  C   UNL     1      47.872   7.924  12.065  0.00  0.00    +0.000 C 
BRANCH  18  19
ATOM     19  N   UNL     1      47.118   6.708  11.896  0.00  0.00    +0.000 N 
ATOM     20  C   UNL     1      45.756   6.684  12.052  0.00  0.00    +0.000 C 
ATOM     21  O   UNL     1      45.110   7.695  12.313  0.00  0.00    +0.000 OA
ATOM     22  H   UNL     1      47.638   5.837  11.928  0.00  0.00    +0.000 HD
BRANCH  20  23
ATOM     23  C   UNL     1      45.097   5.392  11.824  0.00  0.00    +0.000 A 
ATOM     24  C   UNL     1      44.408   4.776  12.860  0.00  0.00    +0.000 A 
ATOM     25  S   UNL     1      43.655   3.314  12.408  0.00  0.00    +0.000 S 
ATOM     26  C   UNL     1      44.268   3.425  10.823  0.00  0.00    +0.000 A 
ATOM     27  N   UNL     1      44.012   2.458   9.906  0.00  0.00    +0.000 NA
ATOM     28  C   UNL     1      44.563   2.655   8.755  0.00  0.00    +0.000 A 
ATOM     29  N   UNL     1      45.338   3.737   8.435  0.00  0.00    +0.000 N 
ATOM     30  C   UNL     1      45.600   4.758   9.316  0.00  0.00    +0.000 A 
ATOM     31  O   UNL     1      46.260   5.735   8.989  0.00  0.00    +0.000 OA
ATOM     32  C   UNL     1      45.016   4.573  10.636  0.00  0.00    +0.000 A 
ATOM     33  H   UNL     1      45.732   3.842   7.511  0.00  0.00    +0.000 HD
ENDBRANCH  20  23
ENDBRANCH  18  19
ENDBRANCH   4  18
TORSDOF 7
ENDMDL
MODEL 6
REMARK VINA RESULT:    -6.963      5.044      9.156
REMARK INTER + INTRA:         -11.315
REMARK INTER:                 -10.179
REMARK INTRA:                  -1.136
REMARK UNBOUND:                -1.503
REMARK  Name = 
REMARK  8 active torsions:
REMARK  status: ('A' for Active; 'I' for Inactive)
REMARK    1  A    between atoms: C_1  and  C_2
REMARK    2  A    between atoms: C_2  and  N_3
REMARK    3  A    between atoms: C_2  and  C_25
REMARK    4  A    between atoms: N_3  and  C_4
REMARK    5  A    between atoms: C_4  and  C_5
REMARK    6  A    between atoms: C_8  and  C_9
REMARK    7  A    between atoms: C_9  and  N_10
REMARK    8  A    between atoms: C_11  and  C_13
REMARK                            x       y       z     vdW  Elec       q    Type
REMARK                         _______ _______ _______ _____ _____    ______ ____
ROOT
ATOM      1  C   UNL     1      51.147   2.273  17.410  0.00  0.00    +0.000 A 
ATOM      2  C   UNL     1      51.715   3.541  17.596  0.00  0.00    +0.000 A 
ATOM      3  C   UNL     1      50.920   4.692  17.572  0.00  0.00    +0.000 A 
ATOM      4  C   UNL     1      49.538   4.600  17.365  0.00  0.00    +0.000 A 
ATOM      5  C   UNL     1      48.969   3.336  17.166  0.00  0.00    +0.000 A 
ATOM      6  C   UNL     1      49.763   2.185  17.196  0.00  0.00    +0.000 A 
ENDROOT
BRANCH   1   7
ATOM      7  C   UNL     1      52.008   1.029  17.354  0.00  0.00    +0.000 C 
BRANCH   7   8
ATOM      8  N   UNL     1      52.901   0.903  18.505  0.00  0.00    +0.000 NA
ATOM      9  H   UNL     1      52.839   1.750  19.069  0.00  0.00    +0.000 HD
BRANCH   8  11
ATOM     10  C   UNL     1      54.746   1.689  17.019  0.00  0.00    +0.000 C 
ATOM     11  C   UNL     1      54.314   0.721  18.127  0.00  0.00    +0.000 C 
BRANCH  11  12
ATOM     12  C   UNL     1      54.546  -0.730  17.711  0.00  0.00    +0.000 A 
ATOM     13  C   UNL     1      54.366  -1.777  18.631  0.00  0.00    +0.000 A 
ATOM     14  C   UNL     1      54.510  -3.111  18.241  0.00  0.00    +0.000 A 
ATOM     15  C   UNL     1      54.840  -3.420  16.925  0.00  0.00    +0.000 A 
ATOM     16  C   UNL     1      55.040  -2.398  16.001  0.00  0.00    +0.000 A 
ATOM     17  C   UNL     1      54.894  -1.063  16.390  0.00  0.00    +0.000 A 
ENDBRANCH  11  12
ENDBRANCH   8  11
ENDBRANCH   7   8
ENDBRANCH   1   7
BRANCH   4  18
ATOM     18  C   UNL     1      48.680   5.836  17.297  0.00  0.00    +0.000 C 
BRANCH  18  19
ATOM     19  N   UNL     1      47.833   5.810  16.131  0.00  0.00    +0.000 N 
ATOM     20  C   UNL     1      48.274   6.270  14.916  0.00  0.00    +0.000 C 
ATOM     21  O   UNL     1      49.415   6.697  14.754  0.00  0.00    +0.000 OA
ATOM     22  H   UNL     1      46.837   5.701  16.289  0.00  0.00    +0.000 HD
BRANCH  20  23
ATOM     23  C   UNL     1      47.331   6.163  13.797  0.00  0.00    +0.000 A 
ATOM     24  C   UNL     1      46.966   7.302  13.090  0.00  0.00    +0.000 A 
ATOM     25  S   UNL     1      45.909   6.991  11.789  0.00  0.00    +0.000 S 
ATOM     26  C   UNL     1      45.858   5.328  12.155  0.00  0.00    +0.000 A 
ATOM     27  N   UNL     1      45.098   4.475  11.424  0.00  0.00    +0.000 NA
ATOM     28  C   UNL     1      45.130   3.250  11.831  0.00  0.00    +0.000 A 
ATOM     29  N   UNL     1      45.861   2.800  12.897  0.00  0.00    +0.000 N 
ATOM     30  C   UNL     1      46.671   3.616  13.649  0.00  0.00    +0.000 A 
ATOM     31  O   UNL     1      47.348   3.178  14.568  0.00  0.00    +0.000 OA
ATOM     32  C   UNL     1      46.655   5.013  13.241  0.00  0.00    +0.000 A 
ATOM     33  H   UNL     1      45.855   1.824  13.160  0.00  0.00    +0.000 HD
ENDBRANCH  20  23
ENDBRANCH  18  19
ENDBRANCH   4  18
TORSDOF 7
ENDMDL
MODEL 7
REMARK VINA RESULT:    -6.623      3.599      8.108
REMARK INTER + INTRA:         -10.837
REMARK INTER:                  -8.401
REMARK INTRA:                  -2.436
REMARK UNBOUND:                -1.503
REMARK  Name = 
REMARK  8 active torsions:
REMARK  status: ('A' for Active; 'I' for Inactive)
REMARK    1  A    between atoms: C_1  and  C_2
REMARK    2  A    between atoms: C_2  and  N_3
REMARK    3  A    between atoms: C_2  and  C_25
REMARK    4  A    between atoms: N_3  and  C_4
REMARK    5  A    between atoms: C_4  and  C_5
REMARK    6  A    between atoms: C_8  and  C_9
REMARK    7  A    between atoms: C_9  and  N_10
REMARK    8  A    between atoms: C_11  and  C_13
REMARK                            x       y       z     vdW  Elec       q    Type
REMARK                         _______ _______ _______ _____ _____    ______ ____
ROOT
ATOM      1  C   UNL     1      50.935   7.149  17.290  0.00  0.00    +0.000 A 
ATOM      2  C   UNL     1      50.923   6.905  15.909  0.00  0.00    +0.000 A 
ATOM      3  C   UNL     1      50.012   7.561  15.074  0.00  0.00    +0.000 A 
ATOM      4  C   UNL     1      49.095   8.478  15.601  0.00  0.00    +0.000 A 
ATOM      5  C   UNL     1      49.095   8.715  16.981  0.00  0.00    +0.000 A 
ATOM      6  C   UNL     1      50.010   8.064  17.815  0.00  0.00    +0.000 A 
ENDROOT
BRANCH   1   7
ATOM      7  C   UNL     1      51.860   6.385  18.213  0.00  0.00    +0.000 C 
BRANCH   7   8
ATOM      8  N   UNL     1      51.144   5.646  19.252  0.00  0.00    +0.000 NA
ATOM      9  H   UNL     1      51.654   5.727  20.131  0.00  0.00    +0.000 HD
BRANCH   8  11
ATOM     10  C   UNL     1      52.150   3.685  18.079  0.00  0.00    +0.000 C 
ATOM     11  C   UNL     1      51.002   4.210  18.950  0.00  0.00    +0.000 C 
BRANCH  11  12
ATOM     12  C   UNL     1      49.649   3.961  18.285  0.00  0.00    +0.000 A 
ATOM     13  C   UNL     1      48.542   4.770  18.591  0.00  0.00    +0.000 A 
ATOM     14  C   UNL     1      47.320   4.593  17.938  0.00  0.00    +0.000 A 
ATOM     15  C   UNL     1      47.183   3.601  16.971  0.00  0.00    +0.000 A 
ATOM     16  C   UNL     1      48.263   2.776  16.666  0.00  0.00    +0.000 A 
ATOM     17  C   UNL     1      49.487   2.955  17.317  0.00  0.00    +0.000 A 
ENDBRANCH  11  12
ENDBRANCH   8  11
ENDBRANCH   7   8
ENDBRANCH   1   7
BRANCH   4  18
ATOM     18  C   UNL     1      48.084   9.159  14.716  0.00  0.00    +0.000 C 
BRANCH  18  19
ATOM     19  N   UNL     1      47.136   8.208  14.192  0.00  0.00    +0.000 N 
ATOM     20  C   UNL     1      46.840   8.156  12.854  0.00  0.00    +0.000 C 
ATOM     21  O   UNL     1      47.386   8.891  12.035  0.00  0.00    +0.000 OA
ATOM     22  H   UNL     1      46.506   7.775  14.858  0.00  0.00    +0.000 HD
BRANCH  20  23
ATOM     23  C   UNL     1      45.883   7.124  12.438  0.00  0.00    +0.000 A 
ATOM     24  C   UNL     1      44.742   7.485  11.733  0.00  0.00    +0.000 A 
ATOM     25  S   UNL     1      43.770   6.160  11.279  0.00  0.00    +0.000 S 
ATOM     26  C   UNL     1      44.811   5.059  12.057  0.00  0.00    +0.000 A 
ATOM     27  N   UNL     1      44.538   3.730  12.070  0.00  0.00    +0.000 NA
ATOM     28  C   UNL     1      45.395   3.015  12.720  0.00  0.00    +0.000 A 
ATOM     29  N   UNL     1      46.506   3.510  13.349  0.00  0.00    +0.000 N 
ATOM     30  C   UNL     1      46.844   4.841  13.338  0.00  0.00    +0.000 A 
ATOM     31  O   UNL     1      47.866   5.249  13.871  0.00  0.00    +0.000 OA
ATOM     32  C   UNL     1      45.897   5.692  12.633  0.00  0.00    +0.000 A 
ATOM     33  H   UNL     1      47.148   2.897  13.832  0.00  0.00    +0.000 HD
ENDBRANCH  20  23
ENDBRANCH  18  19
ENDBRANCH   4  18
TORSDOF 7
ENDMDL
MODEL 8
REMARK VINA RESULT:    -6.508      3.718      6.781
REMARK INTER + INTRA:         -10.675
REMARK INTER:                  -9.585
REMARK INTRA:                  -1.090
REMARK UNBOUND:                -1.503
REMARK  Name = 
REMARK  8 active torsions:
REMARK  status: ('A' for Active; 'I' for Inactive)
REMARK    1  A    between atoms: C_1  and  C_2
REMARK    2  A    between atoms: C_2  and  N_3
REMARK    3  A    between atoms: C_2  and  C_25
REMARK    4  A    between atoms: N_3  and  C_4
REMARK    5  A    between atoms: C_4  and  C_5
REMARK    6  A    between atoms: C_8  and  C_9
REMARK    7  A    between atoms: C_9  and  N_10
REMARK    8  A    between atoms: C_11  and  C_13
REMARK                            x       y       z     vdW  Elec       q    Type
REMARK                         _______ _______ _______ _____ _____    ______ ____
ROOT
ATOM      1  C   UNL     1      44.487   8.043  11.527  0.00  0.00    +0.000 A 
ATOM      2  C   UNL     1      43.837   6.807  11.404  0.00  0.00    +0.000 A 
ATOM      3  C   UNL     1      44.329   5.672  12.059  0.00  0.00    +0.000 A 
ATOM      4  C   UNL     1      45.479   5.749  12.853  0.00  0.00    +0.000 A 
ATOM      5  C   UNL     1      46.138   6.980  12.968  0.00  0.00    +0.000 A 
ATOM      6  C   UNL     1      45.643   8.115  12.319  0.00  0.00    +0.000 A 
ENDROOT
BRANCH   1   7
ATOM      7  C   UNL     1      44.011   9.258  10.759  0.00  0.00    +0.000 C 
BRANCH   7   8
ATOM      8  N   UNL     1      42.943   9.983  11.447  0.00  0.00    +0.000 NA
ATOM      9  H   UNL     1      42.645   9.445  12.260  0.00  0.00    +0.000 HD
BRANCH   8  11
ATOM     10  C   UNL     1      42.053  11.151   9.428  0.00  0.00    +0.000 C 
ATOM     11  C   UNL     1      41.757  10.210  10.603  0.00  0.00    +0.000 C 
BRANCH  11  12
ATOM     12  C   UNL     1      40.615  10.747  11.463  0.00  0.00    +0.000 A 
ATOM     13  C   UNL     1      39.307  10.259  11.303  0.00  0.00    +0.000 A 
ATOM     14  C   UNL     1      38.270  10.696  12.131  0.00  0.00    +0.000 A 
ATOM     15  C   UNL     1      38.523  11.630  13.131  0.00  0.00    +0.000 A 
ATOM     16  C   UNL     1      39.808  12.140  13.296  0.00  0.00    +0.000 A 
ATOM     17  C   UNL     1      40.847  11.701  12.469  0.00  0.00    +0.000 A 
ENDBRANCH  11  12
ENDBRANCH   8  11
ENDBRANCH   7   8
ENDBRANCH   1   7
BRANCH   4  18
ATOM     18  C   UNL     1      46.039   4.525  13.529  0.00  0.00    +0.000 C 
BRANCH  18  19
ATOM     19  N   UNL     1      46.676   4.872  14.774  0.00  0.00    +0.000 N 
ATOM     20  C   UNL     1      47.486   3.984  15.435  0.00  0.00    +0.000 C 
ATOM     21  O   UNL     1      47.732   2.867  14.988  0.00  0.00    +0.000 OA
ATOM     22  H   UNL     1      46.300   5.670  15.275  0.00  0.00    +0.000 HD
BRANCH  20  23
ATOM     23  C   UNL     1      48.102   4.464  16.678  0.00  0.00    +0.000 A 
ATOM     24  C   UNL     1      47.840   3.811  17.875  0.00  0.00    +0.000 A 
ATOM     25  S   UNL     1      48.680   4.462  19.208  0.00  0.00    +0.000 S 
ATOM     26  C   UNL     1      49.384   5.676  18.242  0.00  0.00    +0.000 A 
ATOM     27  N   UNL     1      50.211   6.606  18.782  0.00  0.00    +0.000 NA
ATOM     28  C   UNL     1      50.648   7.484  17.941  0.00  0.00    +0.000 A 
ATOM     29  N   UNL     1      50.341   7.508  16.607  0.00  0.00    +0.000 N 
ATOM     30  C   UNL     1      49.535   6.571  16.006  0.00  0.00    +0.000 A 
ATOM     31  O   UNL     1      49.314   6.591  14.804  0.00  0.00    +0.000 OA
ATOM     32  C   UNL     1      49.001   5.570  16.917  0.00  0.00    +0.000 A 
ATOM     33  H   UNL     1      50.725   8.214  15.996  0.00  0.00    +0.000 HD
ENDBRANCH  20  23
ENDBRANCH  18  19
ENDBRANCH   4  18
TORSDOF 7
ENDMDL
MODEL 9
REMARK VINA RESULT:    -6.501      4.875      9.428
REMARK INTER + INTRA:         -10.665
REMARK INTER:                  -9.382
REMARK INTRA:                  -1.282
REMARK UNBOUND:                -1.503
REMARK  Name = 
REMARK  8 active torsions:
REMARK  status: ('A' for Active; 'I' for Inactive)
REMARK    1  A    between atoms: C_1  and  C_2
REMARK    2  A    between atoms: C_2  and  N_3
REMARK    3  A    between atoms: C_2  and  C_25
REMARK    4  A    between atoms: N_3  and  C_4
REMARK    5  A    between atoms: C_4  and  C_5
REMARK    6  A    between atoms: C_8  and  C_9
REMARK    7  A    between atoms: C_9  and  N_10
REMARK    8  A    between atoms: C_11  and  C_13
REMARK                            x       y       z     vdW  Elec       q    Type
REMARK                         _______ _______ _______ _____ _____    ______ ____
ROOT
ATOM      1  C   UNL     1      51.269   3.024  17.790  0.00  0.00    +0.000 A 
ATOM      2  C   UNL     1      50.634   4.236  18.098  0.00  0.00    +0.000 A 
ATOM      3  C   UNL     1      49.286   4.438  17.782  0.00  0.00    +0.000 A 
ATOM      4  C   UNL     1      48.542   3.430  17.155  0.00  0.00    +0.000 A 
ATOM      5  C   UNL     1      49.176   2.223  16.835  0.00  0.00    +0.000 A 
ATOM      6  C   UNL     1      50.522   2.020  17.156  0.00  0.00    +0.000 A 
ENDROOT
BRANCH   1   7
ATOM      7  C   UNL     1      52.747   2.825  18.053  0.00  0.00    +0.000 C 
BRANCH   7   8
ATOM      8  N   UNL     1      53.065   1.473  18.512  0.00  0.00    +0.000 NA
ATOM      9  H   UNL     1      52.861   1.403  19.508  0.00  0.00    +0.000 HD
BRANCH   8  11
ATOM     10  C   UNL     1      55.201   2.076  17.369  0.00  0.00    +0.000 C 
ATOM     11  C   UNL     1      54.481   1.113  18.321  0.00  0.00    +0.000 C 
BRANCH  11  12
ATOM     12  C   UNL     1      54.577  -0.328  17.821  0.00  0.00    +0.000 A 
ATOM     13  C   UNL     1      54.876  -0.600  16.476  0.00  0.00    +0.000 A 
ATOM     14  C   UNL     1      55.032  -1.914  16.026  0.00  0.00    +0.000 A 
ATOM     15  C   UNL     1      54.887  -2.976  16.913  0.00  0.00    +0.000 A 
ATOM     16  C   UNL     1      54.573  -2.730  18.246  0.00  0.00    +0.000 A 
ATOM     17  C   UNL     1      54.419  -1.415  18.698  0.00  0.00    +0.000 A 
ENDBRANCH  11  12
ENDBRANCH   8  11
ENDBRANCH   7   8
ENDBRANCH   1   7
BRANCH   4  18
ATOM     18  C   UNL     1      47.101   3.653  16.775  0.00  0.00    +0.000 C 
BRANCH  18  19
ATOM     19  N   UNL     1      46.990   4.658  15.750  0.00  0.00    +0.000 N 
ATOM     20  C   UNL     1      47.069   4.335  14.419  0.00  0.00    +0.000 C 
ATOM     21  O   UNL     1      47.206   3.177  14.035  0.00  0.00    +0.000 OA
ATOM     22  H   UNL     1      47.124   5.622  16.036  0.00  0.00    +0.000 HD
BRANCH  20  23
ATOM     23  C   UNL     1      46.910   5.443  13.469  0.00  0.00    +0.000 A 
ATOM     24  C   UNL     1      45.857   5.429  12.562  0.00  0.00    +0.000 A 
ATOM     25  S   UNL     1      45.788   6.816  11.573  0.00  0.00    +0.000 S 
ATOM     26  C   UNL     1      47.194   7.462  12.284  0.00  0.00    +0.000 A 
ATOM     27  N   UNL     1      47.706   8.647  11.869  0.00  0.00    +0.000 NA
ATOM     28  C   UNL     1      48.790   9.003  12.473  0.00  0.00    +0.000 A 
ATOM     29  N   UNL     1      49.403   8.283  13.464  0.00  0.00    +0.000 N 
ATOM     30  C   UNL     1      48.908   7.094  13.943  0.00  0.00    +0.000 A 
ATOM     31  O   UNL     1      49.452   6.495  14.860  0.00  0.00    +0.000 OA
ATOM     32  C   UNL     1      47.695   6.641  13.279  0.00  0.00    +0.000 A 
ATOM     33  H   UNL     1      50.245   8.620  13.909  0.00  0.00    +0.000 HD
ENDBRANCH  20  23
ENDBRANCH  18  19
ENDBRANCH   4  18
TORSDOF 7
ENDMDL
