MODEL 1
REMARK VINA RESULT:    -8.546      0.000      0.000
REMARK INTER + INTRA:         -10.766
REMARK INTER:                 -10.545
REMARK INTRA:                  -0.221
REMARK UNBOUND:                -0.221
REMARK  Name = 
REMARK  4 active torsions:
REMARK  status: ('A' for Active; 'I' for Inactive)
REMARK    1  A    between atoms: C_5  and  N_6
REMARK    2  A    between atoms: N_6  and  C_7
REMARK    3  A    between atoms: C_7  and  C_8
REMARK    4  A    between atoms: C_12  and  C_13
REMARK                            x       y       z     vdW  Elec       q    Type
REMARK                         _______ _______ _______ _____ _____    ______ ____
ROOT
ATOM      1  C   UNL     1      44.032   4.777  11.155  0.00  0.00    +0.000 C 
ATOM      2  C   UNL     1      43.183   3.772  11.938  0.00  0.00    +0.000 C 
ATOM      3  C   UNL     1      42.779   5.205  11.903  0.00  0.00    +0.000 C 
ENDROOT
BRANCH   1   4
ATOM      4  C   UNL     1      45.382   5.153  11.772  0.00  0.00    +0.000 A 
ATOM      5  C   UNL     1      46.109   6.272  11.338  0.00  0.00    +0.000 A 
ATOM      6  C   UNL     1      47.225   6.727  12.039  0.00  0.00    +0.000 A 
ATOM      7  C   UNL     1      47.624   6.078  13.207  0.00  0.00    +0.000 A 
ATOM      8  C   UNL     1      46.962   4.926  13.658  0.00  0.00    +0.000 A 
ATOM      9  C   UNL     1      45.883   4.455  12.888  0.00  0.00    +0.000 A 
BRANCH   8  10
ATOM     10  C   UNL     1      47.295   4.315  14.958  0.00  0.00    +0.000 A 
ATOM     11  C   UNL     1      47.310   5.029  16.157  0.00  0.00    +0.000 A 
ATOM     12  C   UNL     1      47.752   4.399  17.319  0.00  0.00    +0.000 A 
ATOM     13  C   UNL     1      48.169   3.076  17.259  0.00  0.00    +0.000 A 
ATOM     14  C   UNL     1      48.113   2.431  16.038  0.00  0.00    +0.000 A 
ATOM     15  N   UNL     1      47.683   3.016  14.900  0.00  0.00    +0.000 NA
ENDBRANCH   8  10
ENDBRANCH   1   4
BRANCH   1  16
ATOM     16  N   UNL     1      44.018   4.678   9.685  0.00  0.00    +0.000 N 
ATOM     17  H   UNL     1      43.112   4.614   9.227  0.00  0.00    +0.000 HD
BRANCH  16  22
ATOM     18 CL   UNL     1      47.644   1.264   6.684  0.00  0.00    +0.000 Cl
ATOM     19  C   UNL     1      46.602   2.277   7.584  0.00  0.00    +0.000 A 
ATOM     20  C   UNL     1      46.534   3.642   7.372  0.00  0.00    +0.000 A 
ATOM     21  N   UNL     1      45.687   4.452   8.064  0.00  0.00    +0.000 NA
ATOM     22  C   UNL     1      44.897   3.851   8.980  0.00  0.00    +0.000 A 
ATOM     23  C   UNL     1      45.010   2.471   9.194  0.00  0.00    +0.000 A 
ATOM     24  N   UNL     1      45.848   1.653   8.505  0.00  0.00    +0.000 NA
ENDBRANCH  16  22
ENDBRANCH   1  16
TORSDOF 4
ENDMDL
MODEL 2
REMARK VINA RESULT:    -7.812      2.033      3.996
REMARK INTER + INTRA:          -9.860
REMARK INTER:                  -9.092
REMARK INTRA:                  -0.768
REMARK UNBOUND:                -0.221
REMARK  Name = 
REMARK  4 active torsions:
REMARK  status: ('A' for Active; 'I' for Inactive)
REMARK    1  A    between atoms: C_5  and  N_6
REMARK    2  A    between atoms: N_6  and  C_7
REMARK    3  A    between atoms: C_7  and  C_8
REMARK    4  A    between atoms: C_12  and  C_13
REMARK                            x       y       z     vdW  Elec       q    Type
REMARK                         _______ _______ _______ _____ _____    ______ ____
ROOT
ATOM      1  C   UNL     1      43.803   4.833  11.541  0.00  0.00    +0.000 C 
ATOM      2  C   UNL     1      42.491   5.231  12.224  0.00  0.00    +0.000 C 
ATOM      3  C   UNL     1      42.979   6.018  11.058  0.00  0.00    +0.000 C 
ENDROOT
BRANCH   1   4
ATOM      4  C   UNL     1      45.090   5.140  12.311  0.00  0.00    +0.000 A 
ATOM      5  C   UNL     1      45.697   4.191  13.148  0.00  0.00    +0.000 A 
ATOM      6  C   UNL     1      46.970   4.401  13.676  0.00  0.00    +0.000 A 
ATOM      7  C   UNL     1      47.672   5.564  13.358  0.00  0.00    +0.000 A 
ATOM      8  C   UNL     1      47.092   6.566  12.566  0.00  0.00    +0.000 A 
ATOM      9  C   UNL     1      45.780   6.351  12.107  0.00  0.00    +0.000 A 
BRANCH   8  10
ATOM     10  C   UNL     1      47.875   7.733  12.120  0.00  0.00    +0.000 A 
ATOM     11  C   UNL     1      49.227   7.662  11.781  0.00  0.00    +0.000 A 
ATOM     12  C   UNL     1      49.917   8.836  11.484  0.00  0.00    +0.000 A 
ATOM     13  C   UNL     1      49.245  10.051  11.534  0.00  0.00    +0.000 A 
ATOM     14  C   UNL     1      47.903  10.039  11.864  0.00  0.00    +0.000 A 
ATOM     15  N   UNL     1      47.211   8.916  12.150  0.00  0.00    +0.000 NA
ENDBRANCH   8  10
ENDBRANCH   1   4
BRANCH   1  16
ATOM     16  N   UNL     1      43.815   3.578  10.770  0.00  0.00    +0.000 N 
ATOM     17  H   UNL     1      43.799   2.706  11.293  0.00  0.00    +0.000 HD
BRANCH  16  22
ATOM     18 CL   UNL     1      47.339   2.731   6.224  0.00  0.00    +0.000 Cl
ATOM     19  C   UNL     1      46.279   2.970   7.543  0.00  0.00    +0.000 A 
ATOM     20  C   UNL     1      45.866   1.930   8.355  0.00  0.00    +0.000 A 
ATOM     21  N   UNL     1      45.045   2.114   9.425  0.00  0.00    +0.000 NA
ATOM     22  C   UNL     1      44.649   3.383   9.666  0.00  0.00    +0.000 A 
ATOM     23  C   UNL     1      45.061   4.411   8.808  0.00  0.00    +0.000 A 
ATOM     24  N   UNL     1      45.884   4.239   7.741  0.00  0.00    +0.000 NA
ENDBRANCH  16  22
ENDBRANCH   1  16
TORSDOF 4
ENDMDL
MODEL 3
REMARK VINA RESULT:    -7.805      2.817      6.914
REMARK INTER + INTRA:          -9.851
REMARK INTER:                  -9.331
REMARK INTRA:                  -0.520
REMARK UNBOUND:                -0.221
REMARK  Name = 
REMARK  4 active torsions:
REMARK  status: ('A' for Active; 'I' for Inactive)
REMARK    1  A    between atoms: C_5  and  N_6
REMARK    2  A    between atoms: N_6  and  C_7
REMARK    3  A    between atoms: C_7  and  C_8
REMARK    4  A    between atoms: C_12  and  C_13
REMARK                            x       y       z     vdW  Elec       q    Type
REMARK                         _______ _______ _______ _____ _____    ______ ____
ROOT
ATOM      1  C   UNL     1      46.443   7.243  12.557  0.00  0.00    +0.000 C 
ATOM      2  C   UNL     1      46.608   8.627  11.922  0.00  0.00    +0.000 C 
ATOM      3  C   UNL     1      45.904   8.498  13.227  0.00  0.00    +0.000 C 
ENDROOT
BRANCH   1   4
ATOM      4  C   UNL     1      45.428   6.309  11.895  0.00  0.00    +0.000 A 
ATOM      5  C   UNL     1      44.044   6.487  12.051  0.00  0.00    +0.000 A 
ATOM      6  C   UNL     1      43.130   5.767  11.284  0.00  0.00    +0.000 A 
ATOM      7  C   UNL     1      43.587   4.864  10.323  0.00  0.00    +0.000 A 
ATOM      8  C   UNL     1      44.957   4.613  10.160  0.00  0.00    +0.000 A 
ATOM      9  C   UNL     1      45.848   5.306  10.999  0.00  0.00    +0.000 A 
BRANCH   8  10
ATOM     10  C   UNL     1      45.450   3.762   9.061  0.00  0.00    +0.000 A 
ATOM     11  C   UNL     1      45.442   2.368   9.112  0.00  0.00    +0.000 A 
ATOM     12  C   UNL     1      46.036   1.645   8.078  0.00  0.00    +0.000 A 
ATOM     13  C   UNL     1      46.626   2.328   7.022  0.00  0.00    +0.000 A 
ATOM     14  C   UNL     1      46.583   3.709   7.036  0.00  0.00    +0.000 A 
ATOM     15  N   UNL     1      46.008   4.432   8.021  0.00  0.00    +0.000 NA
ENDBRANCH   8  10
ENDBRANCH   1   4
BRANCH   1  16
ATOM     16  N   UNL     1      47.654   6.588  13.081  0.00  0.00    +0.000 N 
ATOM     17  H   UNL     1      48.275   6.142  12.409  0.00  0.00    +0.000 HD
BRANCH  16  22
ATOM     18 CL   UNL     1      47.662   3.238  17.834  0.00  0.00    +0.000 Cl
ATOM     19  C   UNL     1      47.640   4.243  16.451  0.00  0.00    +0.000 A 
ATOM     20  C   UNL     1      48.418   5.382  16.354  0.00  0.00    +0.000 A 
ATOM     21  N   UNL     1      48.429   6.173  15.247  0.00  0.00    +0.000 NA
ATOM     22  C   UNL     1      47.637   5.785  14.224  0.00  0.00    +0.000 A 
ATOM     23  C   UNL     1      46.837   4.642  14.363  0.00  0.00    +0.000 A 
ATOM     24  N   UNL     1      46.823   3.843  15.462  0.00  0.00    +0.000 NA
ENDBRANCH  16  22
ENDBRANCH   1  16
TORSDOF 4
ENDMDL
MODEL 4
REMARK VINA RESULT:    -7.384      2.389      4.281
REMARK INTER + INTRA:          -9.332
REMARK INTER:                  -9.290
REMARK INTRA:                  -0.042
REMARK UNBOUND:                -0.221
REMARK  Name = 
REMARK  4 active torsions:
REMARK  status: ('A' for Active; 'I' for Inactive)
REMARK    1  A    between atoms: C_5  and  N_6
REMARK    2  A    between atoms: N_6  and  C_7
REMARK    3  A    between atoms: C_7  and  C_8
REMARK    4  A    between atoms: C_12  and  C_13
REMARK                            x       y       z     vdW  Elec       q    Type
REMARK                         _______ _______ _______ _____ _____    ______ ____
ROOT
ATOM      1  C   UNL     1      43.871   4.897  11.129  0.00  0.00    +0.000 C 
ATOM      2  C   UNL     1      43.224   3.657  11.755  0.00  0.00    +0.000 C 
ATOM      3  C   UNL     1      42.477   4.945  11.736  0.00  0.00    +0.000 C 
ENDROOT
BRANCH   1   4
ATOM      4  C   UNL     1      45.007   5.545  11.925  0.00  0.00    +0.000 A 
ATOM      5  C   UNL     1      46.012   4.782  12.538  0.00  0.00    +0.000 A 
ATOM      6  C   UNL     1      47.149   5.381  13.078  0.00  0.00    +0.000 A 
ATOM      7  C   UNL     1      47.312   6.764  12.995  0.00  0.00    +0.000 A 
ATOM      8  C   UNL     1      46.315   7.578  12.436  0.00  0.00    +0.000 A 
ATOM      9  C   UNL     1      45.151   6.946  11.964  0.00  0.00    +0.000 A 
BRANCH   8  10
ATOM     10  C   UNL     1      46.538   9.021  12.227  0.00  0.00    +0.000 A 
ATOM     11  C   UNL     1      45.503   9.928  12.000  0.00  0.00    +0.000 A 
ATOM     12  C   UNL     1      45.813  11.253  11.695  0.00  0.00    +0.000 A 
ATOM     13  C   UNL     1      47.145  11.639  11.621  0.00  0.00    +0.000 A 
ATOM     14  C   UNL     1      48.114  10.686  11.872  0.00  0.00    +0.000 A 
ATOM     15  N   UNL     1      47.840   9.400  12.176  0.00  0.00    +0.000 NA
ENDBRANCH   8  10
ENDBRANCH   1   4
BRANCH   1  16
ATOM     16  N   UNL     1      44.041   4.909   9.666  0.00  0.00    +0.000 N 
ATOM     17  H   UNL     1      43.201   4.980   9.096  0.00  0.00    +0.000 HD
BRANCH  16  22
ATOM     18 CL   UNL     1      47.660   1.336   6.846  0.00  0.00    +0.000 Cl
ATOM     19  C   UNL     1      46.619   2.395   7.694  0.00  0.00    +0.000 A 
ATOM     20  C   UNL     1      46.622   3.761   7.481  0.00  0.00    +0.000 A 
ATOM     21  N   UNL     1      45.778   4.608   8.130  0.00  0.00    +0.000 NA
ATOM     22  C   UNL     1      44.917   4.044   9.005  0.00  0.00    +0.000 A 
ATOM     23  C   UNL     1      44.959   2.660   9.222  0.00  0.00    +0.000 A 
ATOM     24  N   UNL     1      45.793   1.805   8.576  0.00  0.00    +0.000 NA
ENDBRANCH  16  22
ENDBRANCH   1  16
TORSDOF 4
ENDMDL
MODEL 5
REMARK VINA RESULT:    -6.871      3.172      6.867
REMARK INTER + INTRA:          -8.699
REMARK INTER:                  -8.116
REMARK INTRA:                  -0.583
REMARK UNBOUND:                -0.221
REMARK  Name = 
REMARK  4 active torsions:
REMARK  status: ('A' for Active; 'I' for Inactive)
REMARK    1  A    between atoms: C_5  and  N_6
REMARK    2  A    between atoms: N_6  and  C_7
REMARK    3  A    between atoms: C_7  and  C_8
REMARK    4  A    between atoms: C_12  and  C_13
REMARK                            x       y       z     vdW  Elec       q    Type
REMARK                         _______ _______ _______ _____ _____    ______ ____
ROOT
ATOM      1  C   UNL     1      44.307   5.589  11.418  0.00  0.00    +0.000 C 
ATOM      2  C   UNL     1      42.911   6.214  11.335  0.00  0.00    +0.000 C 
ATOM      3  C   UNL     1      43.435   5.758  12.652  0.00  0.00    +0.000 C 
ENDROOT
BRANCH   1   4
ATOM      4  C   UNL     1      44.453   4.175  10.849  0.00  0.00    +0.000 A 
ATOM      5  C   UNL     1      43.602   3.129  11.236  0.00  0.00    +0.000 A 
ATOM      6  C   UNL     1      43.605   1.907  10.565  0.00  0.00    +0.000 A 
ATOM      7  C   UNL     1      44.452   1.715   9.473  0.00  0.00    +0.000 A 
ATOM      8  C   UNL     1      45.357   2.710   9.076  0.00  0.00    +0.000 A 
ATOM      9  C   UNL     1      45.375   3.905   9.819  0.00  0.00    +0.000 A 
BRANCH   8  10
ATOM     10  C   UNL     1      46.158   2.565   7.846  0.00  0.00    +0.000 A 
ATOM     11  C   UNL     1      46.240   3.554   6.866  0.00  0.00    +0.000 A 
ATOM     12  C   UNL     1      46.925   3.284   5.683  0.00  0.00    +0.000 A 
ATOM     13  C   UNL     1      47.509   2.037   5.503  0.00  0.00    +0.000 A 
ATOM     14  C   UNL     1      47.396   1.113   6.525  0.00  0.00    +0.000 A 
ATOM     15  N   UNL     1      46.745   1.352   7.683  0.00  0.00    +0.000 NA
ENDBRANCH   8  10
ENDBRANCH   1   4
BRANCH   1  16
ATOM     16  N   UNL     1      45.462   6.477  11.202  0.00  0.00    +0.000 N 
ATOM     17  H   UNL     1      45.902   6.461  10.284  0.00  0.00    +0.000 HD
BRANCH  16  22
ATOM     18 CL   UNL     1      49.746   7.134  15.079  0.00  0.00    +0.000 Cl
ATOM     19  C   UNL     1      48.466   6.949  13.961  0.00  0.00    +0.000 A 
ATOM     20  C   UNL     1      47.890   8.026  13.313  0.00  0.00    +0.000 A 
ATOM     21  N   UNL     1      46.890   7.887  12.401  0.00  0.00    +0.000 NA
ATOM     22  C   UNL     1      46.481   6.625  12.146  0.00  0.00    +0.000 A 
ATOM     23  C   UNL     1      47.064   5.556  12.841  0.00  0.00    +0.000 A 
ATOM     24  N   UNL     1      48.065   5.683  13.749  0.00  0.00    +0.000 NA
ENDBRANCH  16  22
ENDBRANCH   1  16
TORSDOF 4
ENDMDL
MODEL 6
REMARK VINA RESULT:    -6.709      2.635      3.397
REMARK INTER + INTRA:          -8.499
REMARK INTER:                  -8.532
REMARK INTRA:                   0.033
REMARK UNBOUND:                -0.221
REMARK  Name = 
REMARK  4 active torsions:
REMARK  status: ('A' for Active; 'I' for Inactive)
REMARK    1  A    between atoms: C_5  and  N_6
REMARK    2  A    between atoms: N_6  and  C_7
REMARK    3  A    between atoms: C_7  and  C_8
REMARK    4  A    between atoms: C_12  and  C_13
REMARK                            x       y       z     vdW  Elec       q    Type
REMARK                         _______ _______ _______ _____ _____    ______ ____
ROOT
ATOM      1  C   UNL     1      44.620   5.053  11.370  0.00  0.00    +0.000 C 
ATOM      2  C   UNL     1      45.203   3.967  12.280  0.00  0.00    +0.000 C 
ATOM      3  C   UNL     1      43.861   4.536  12.583  0.00  0.00    +0.000 C 
ENDROOT
BRANCH   1   4
ATOM      4  C   UNL     1      45.254   6.442  11.477  0.00  0.00    +0.000 A 
ATOM      5  C   UNL     1      44.480   7.613  11.459  0.00  0.00    +0.000 A 
ATOM      6  C   UNL     1      45.038   8.854  11.766  0.00  0.00    +0.000 A 
ATOM      7  C   UNL     1      46.384   8.943  12.119  0.00  0.00    +0.000 A 
ATOM      8  C   UNL     1      47.213   7.811  12.105  0.00  0.00    +0.000 A 
ATOM      9  C   UNL     1      46.633   6.588  11.723  0.00  0.00    +0.000 A 
BRANCH   8  10
ATOM     10  C   UNL     1      48.600   7.876  12.602  0.00  0.00    +0.000 A 
ATOM     11  C   UNL     1      48.977   7.437  13.872  0.00  0.00    +0.000 A 
ATOM     12  C   UNL     1      50.286   7.646  14.302  0.00  0.00    +0.000 A 
ATOM     13  C   UNL     1      51.186   8.287  13.460  0.00  0.00    +0.000 A 
ATOM     14  C   UNL     1      50.741   8.681  12.212  0.00  0.00    +0.000 A 
ATOM     15  N   UNL     1      49.481   8.485  11.769  0.00  0.00    +0.000 NA
ENDBRANCH   8  10
ENDBRANCH   1   4
BRANCH   1  16
ATOM     16  N   UNL     1      44.206   4.653  10.014  0.00  0.00    +0.000 N 
ATOM     17  H   UNL     1      43.262   4.294   9.898  0.00  0.00    +0.000 HD
BRANCH  16  22
ATOM     18 CL   UNL     1      47.624   1.630   6.409  0.00  0.00    +0.000 Cl
ATOM     19  C   UNL     1      46.644   2.525   7.487  0.00  0.00    +0.000 A 
ATOM     20  C   UNL     1      46.580   3.906   7.452  0.00  0.00    +0.000 A 
ATOM     21  N   UNL     1      45.782   4.626   8.286  0.00  0.00    +0.000 NA
ATOM     22  C   UNL     1      45.036   3.918   9.163  0.00  0.00    +0.000 A 
ATOM     23  C   UNL     1      45.146   2.521   9.194  0.00  0.00    +0.000 A 
ATOM     24  N   UNL     1      45.935   1.793   8.363  0.00  0.00    +0.000 NA
ENDBRANCH  16  22
ENDBRANCH   1  16
TORSDOF 4
ENDMDL
MODEL 7
REMARK VINA RESULT:    -6.685      3.913      7.657
REMARK INTER + INTRA:          -8.470
REMARK INTER:                  -7.649
REMARK INTRA:                  -0.821
REMARK UNBOUND:                -0.221
REMARK  Name = 
REMARK  4 active torsions:
REMARK  status: ('A' for Active; 'I' for Inactive)
REMARK    1  A    between atoms: C_5  and  N_6
REMARK    2  A    between atoms: N_6  and  C_7
REMARK    3  A    between atoms: C_7  and  C_8
REMARK    4  A    between atoms: C_12  and  C_13
REMARK                            x       y       z     vdW  Elec       q    Type
REMARK                         _______ _______ _______ _____ _____    ______ ____
ROOT
ATOM      1  C   UNL     1      49.275   8.013  12.694  0.00  0.00    +0.000 C 
ATOM      2  C   UNL     1      50.026   8.206  11.373  0.00  0.00    +0.000 C 
ATOM      3  C   UNL     1      49.797   9.376  12.265  0.00  0.00    +0.000 C 
ENDROOT
BRANCH   1   4
ATOM      4  C   UNL     1      47.767   7.774  12.589  0.00  0.00    +0.000 A 
ATOM      5  C   UNL     1      46.834   8.774  12.904  0.00  0.00    +0.000 A 
ATOM      6  C   UNL     1      45.480   8.620  12.608  0.00  0.00    +0.000 A 
ATOM      7  C   UNL     1      45.035   7.464  11.968  0.00  0.00    +0.000 A 
ATOM      8  C   UNL     1      45.917   6.413  11.674  0.00  0.00    +0.000 A 
ATOM      9  C   UNL     1      47.263   6.573  12.050  0.00  0.00    +0.000 A 
BRANCH   8  10
ATOM     10  C   UNL     1      45.479   5.249  10.883  0.00  0.00    +0.000 A 
ATOM     11  C   UNL     1      45.501   5.222   9.488  0.00  0.00    +0.000 A 
ATOM     12  C   UNL     1      44.958   4.125   8.820  0.00  0.00    +0.000 A 
ATOM     13  C   UNL     1      44.405   3.085   9.556  0.00  0.00    +0.000 A 
ATOM     14  C   UNL     1      44.432   3.178  10.935  0.00  0.00    +0.000 A 
ATOM     15  N   UNL     1      44.958   4.226  11.606  0.00  0.00    +0.000 NA
ENDBRANCH   8  10
ENDBRANCH   1   4
BRANCH   1  16
ATOM     16  N   UNL     1      49.958   7.261  13.760  0.00  0.00    +0.000 N 
ATOM     17  H   UNL     1      50.312   6.336  13.531  0.00  0.00    +0.000 HD
BRANCH  16  22
ATOM     18 CL   UNL     1      47.866   6.993  19.179  0.00  0.00    +0.000 Cl
ATOM     19  C   UNL     1      48.509   7.061  17.596  0.00  0.00    +0.000 A 
ATOM     20  C   UNL     1      48.619   5.939  16.795  0.00  0.00    +0.000 A 
ATOM     21  N   UNL     1      49.103   5.988  15.524  0.00  0.00    +0.000 NA
ATOM     22  C   UNL     1      49.472   7.205  15.069  0.00  0.00    +0.000 A 
ATOM     23  C   UNL     1      49.376   8.319  15.915  0.00  0.00    +0.000 A 
ATOM     24  N   UNL     1      48.890   8.282  17.182  0.00  0.00    +0.000 NA
ENDBRANCH  16  22
ENDBRANCH   1  16
TORSDOF 4
ENDMDL
MODEL 8
REMARK VINA RESULT:    -6.661      3.097      4.685
REMARK INTER + INTRA:          -8.440
REMARK INTER:                  -7.687
REMARK INTRA:                  -0.753
REMARK UNBOUND:                -0.221
REMARK  Name = 
REMARK  4 active torsions:
REMARK  status: ('A' for Active; 'I' for Inactive)
REMARK    1  A    between atoms: C_5  and  N_6
REMARK    2  A    between atoms: N_6  and  C_7
REMARK    3  A    between atoms: C_7  and  C_8
REMARK    4  A    between atoms: C_12  and  C_13
REMARK                            x       y       z     vdW  Elec       q    Type
REMARK                         _______ _______ _______ _____ _____    ______ ____
ROOT
ATOM      1  C   UNL     1      47.426   7.819  13.149  0.00  0.00    +0.000 C 
ATOM      2  C   UNL     1      47.992   8.805  12.122  0.00  0.00    +0.000 C 
ATOM      3  C   UNL     1      48.213   7.344  11.936  0.00  0.00    +0.000 C 
ENDROOT
BRANCH   1   4
ATOM      4  C   UNL     1      48.132   7.772  14.506  0.00  0.00    +0.000 A 
ATOM      5  C   UNL     1      48.124   8.867  15.384  0.00  0.00    +0.000 A 
ATOM      6  C   UNL     1      48.584   8.748  16.694  0.00  0.00    +0.000 A 
ATOM      7  C   UNL     1      49.044   7.517  17.161  0.00  0.00    +0.000 A 
ATOM      8  C   UNL     1      49.118   6.403  16.311  0.00  0.00    +0.000 A 
ATOM      9  C   UNL     1      48.711   6.577  14.976  0.00  0.00    +0.000 A 
BRANCH   8  10
ATOM     10  C   UNL     1      49.478   5.070  16.831  0.00  0.00    +0.000 A 
ATOM     11  C   UNL     1      50.717   4.783  17.404  0.00  0.00    +0.000 A 
ATOM     12  C   UNL     1      51.014   3.469  17.760  0.00  0.00    +0.000 A 
ATOM     13  C   UNL     1      50.072   2.473  17.535  0.00  0.00    +0.000 A 
ATOM     14  C   UNL     1      48.862   2.838  16.975  0.00  0.00    +0.000 A 
ATOM     15  N   UNL     1      48.548   4.104  16.628  0.00  0.00    +0.000 NA
ENDBRANCH   8  10
ENDBRANCH   1   4
BRANCH   1  16
ATOM     16  N   UNL     1      45.963   7.650  13.194  0.00  0.00    +0.000 N 
ATOM     17  H   UNL     1      45.472   8.024  14.001  0.00  0.00    +0.000 HD
BRANCH  16  22
ATOM     18 CL   UNL     1      43.283   2.691  11.764  0.00  0.00    +0.000 Cl
ATOM     19  C   UNL     1      44.090   4.145  12.160  0.00  0.00    +0.000 A 
ATOM     20  C   UNL     1      43.841   5.332  11.496  0.00  0.00    +0.000 A 
ATOM     21  N   UNL     1      44.457   6.501  11.822  0.00  0.00    +0.000 NA
ATOM     22  C   UNL     1      45.336   6.450  12.848  0.00  0.00    +0.000 A 
ATOM     23  C   UNL     1      45.590   5.226  13.482  0.00  0.00    +0.000 A 
ATOM     24  N   UNL     1      44.976   4.056  13.167  0.00  0.00    +0.000 NA
ENDBRANCH  16  22
ENDBRANCH   1  16
TORSDOF 4
ENDMDL
MODEL 9
REMARK VINA RESULT:    -6.283      2.569      3.648
REMARK INTER + INTRA:          -7.974
REMARK INTER:                  -7.206
REMARK INTRA:                  -0.768
REMARK UNBOUND:                -0.221
REMARK  Name = 
REMARK  4 active torsions:
REMARK  status: ('A' for Active; 'I' for Inactive)
REMARK    1  A    between atoms: C_5  and  N_6
REMARK    2  A    between atoms: N_6  and  C_7
REMARK    3  A    between atoms: C_7  and  C_8
REMARK    4  A    between atoms: C_12  and  C_13
REMARK                            x       y       z     vdW  Elec       q    Type
REMARK                         _______ _______ _______ _____ _____    ______ ____
ROOT
ATOM      1  C   UNL     1      45.529   7.773  12.476  0.00  0.00    +0.000 C 
ATOM      2  C   UNL     1      44.980   9.154  12.848  0.00  0.00    +0.000 C 
ATOM      3  C   UNL     1      45.048   8.752  11.416  0.00  0.00    +0.000 C 
ENDROOT
BRANCH   1   4
ATOM      4  C   UNL     1      47.040   7.581  12.621  0.00  0.00    +0.000 A 
ATOM      5  C   UNL     1      47.948   8.109  11.689  0.00  0.00    +0.000 A 
ATOM      6  C   UNL     1      49.320   8.111  11.936  0.00  0.00    +0.000 A 
ATOM      7  C   UNL     1      49.811   7.600  13.137  0.00  0.00    +0.000 A 
ATOM      8  C   UNL     1      48.953   7.017  14.081  0.00  0.00    +0.000 A 
ATOM      9  C   UNL     1      47.582   6.969  13.769  0.00  0.00    +0.000 A 
BRANCH   8  10
ATOM     10  C   UNL     1      49.448   6.597  15.405  0.00  0.00    +0.000 A 
ATOM     11  C   UNL     1      50.632   7.078  15.966  0.00  0.00    +0.000 A 
ATOM     12  C   UNL     1      51.084   6.537  17.168  0.00  0.00    +0.000 A 
ATOM     13  C   UNL     1      50.349   5.530  17.781  0.00  0.00    +0.000 A 
ATOM     14  C   UNL     1      49.180   5.115  17.171  0.00  0.00    +0.000 A 
ATOM     15  N   UNL     1      48.717   5.627  16.011  0.00  0.00    +0.000 NA
ENDBRANCH   8  10
ENDBRANCH   1   4
BRANCH   1  16
ATOM     16  N   UNL     1      44.709   6.600  12.825  0.00  0.00    +0.000 N 
ATOM     17  H   UNL     1      44.753   6.264  13.784  0.00  0.00    +0.000 HD
BRANCH  16  22
ATOM     18 CL   UNL     1      44.398   1.925   9.381  0.00  0.00    +0.000 Cl
ATOM     19  C   UNL     1      44.468   3.287  10.412  0.00  0.00    +0.000 A 
ATOM     20  C   UNL     1      45.174   3.277  11.601  0.00  0.00    +0.000 A 
ATOM     21  N   UNL     1      45.259   4.365  12.414  0.00  0.00    +0.000 NA
ATOM     22  C   UNL     1      44.615   5.477  11.998  0.00  0.00    +0.000 A 
ATOM     23  C   UNL     1      43.882   5.447  10.803  0.00  0.00    +0.000 A 
ATOM     24  N   UNL     1      43.796   4.369   9.982  0.00  0.00    +0.000 NA
ENDBRANCH  16  22
ENDBRANCH   1  16
TORSDOF 4
ENDMDL
