MODEL 1
REMARK VINA RESULT:    -7.381      0.000      0.000
REMARK INTER + INTRA:         -11.452
REMARK INTER:                 -10.186
REMARK INTRA:                  -1.266
REMARK UNBOUND:                -1.266
REMARK  Name = 
REMARK  7 active torsions:
REMARK  status: ('A' for Active; 'I' for Inactive)
REMARK    1  A    between atoms: C_2  and  C_20
REMARK    2  A    between atoms: N_3  and  CA_4
REMARK    3  A    between atoms: CA_4  and  C_5
REMARK    4  A    between atoms: CA_4  and  C_7
REMARK    5  A    between atoms: C_5  and  O_6
REMARK    6  A    between atoms: C_10  and  C_11
REMARK    7  A    between atoms: C_11  and  C_12
REMARK                            x       y       z     vdW  Elec       q    Type
REMARK                         _______ _______ _______ _____ _____    ______ ____
ROOT
ATOM      1  CA  UNL     1      48.005   7.212  13.890  0.00  0.00    +0.000 C 
ENDROOT
BRANCH   1   2
ATOM      2  C   UNL     1      46.981   6.496  13.019  0.00  0.00    +0.000 A 
ATOM      3  C   UNL     1      46.550   7.122  11.840  0.00  0.00    +0.000 A 
ATOM      4  C   UNL     1      45.680   6.479  10.958  0.00  0.00    +0.000 A 
ATOM      5  C   UNL     1      45.228   5.182  11.223  0.00  0.00    +0.000 A 
ATOM      6  C   UNL     1      45.648   4.550  12.400  0.00  0.00    +0.000 A 
ATOM      7  C   UNL     1      46.518   5.199  13.285  0.00  0.00    +0.000 A 
BRANCH   5   8
ATOM      8  C   UNL     1      44.329   4.465  10.241  0.00  0.00    +0.000 C 
BRANCH   8   9
ATOM      9  C   UNL     1      45.042   3.625   9.209  0.00  0.00    +0.000 A 
ATOM     10  C   UNL     1      45.194   2.248   9.369  0.00  0.00    +0.000 A 
ATOM     11  N   UNL     1      45.908   1.475   8.515  0.00  0.00    +0.000 NA
ATOM     12  C   UNL     1      46.476   2.133   7.482  0.00  0.00    +0.000 A 
ATOM     13  C   UNL     1      46.327   3.497   7.303  0.00  0.00    +0.000 A 
ATOM     14  N   UNL     1      45.615   4.269   8.157  0.00  0.00    +0.000 NA
ENDBRANCH   8   9
ENDBRANCH   5   8
ENDBRANCH   1   2
BRANCH   1  17
ATOM     15  O   UNL     1      50.200   6.534  15.573  0.00  0.00    +0.000 OA
ATOM     16  C   UNL     1      49.055   6.317  15.959  0.00  0.00    +0.000 C 
ATOM     17  N   UNL     1      47.945   6.658  15.235  0.00  0.00    +0.000 N 
ATOM     18  H   UNL     1      47.042   6.305  15.520  0.00  0.00    +0.000 HD
BRANCH  16  19
ATOM     19  C   UNL     1      48.794   5.707  17.270  0.00  0.00    +0.000 A 
ATOM     20  C   UNL     1      49.008   4.348  17.458  0.00  0.00    +0.000 A 
ATOM     21  S   UNL     1      48.700   3.826  19.053  0.00  0.00    +0.000 S 
ATOM     22  C   UNL     1      48.235   5.389  19.533  0.00  0.00    +0.000 A 
ATOM     23  N   UNL     1      47.841   5.641  20.814  0.00  0.00    +0.000 NA
ATOM     24  C   UNL     1      47.490   6.863  21.030  0.00  0.00    +0.000 A 
ATOM     25  N   UNL     1      47.489   7.857  20.090  0.00  0.00    +0.000 N 
ATOM     26  C   UNL     1      47.911   7.661  18.798  0.00  0.00    +0.000 A 
ATOM     27  O   UNL     1      47.972   8.596  18.004  0.00  0.00    +0.000 OA
ATOM     28  C   UNL     1      48.315   6.299  18.495  0.00  0.00    +0.000 A 
ATOM     29  H   UNL     1      47.209   8.797  20.324  0.00  0.00    +0.000 HD
ENDBRANCH  16  19
ENDBRANCH   1  17
BRANCH   1  30
ATOM     30  C   UNL     1      47.843   8.749  13.936  0.00  0.00    +0.000 C 
BRANCH  30  31
ATOM     31  O   UNL     1      47.172   9.151  15.133  0.00  0.00    +0.000 OA
ATOM     32  H   UNL     1      46.833   8.347  15.561  0.00  0.00    +0.000 HD
ENDBRANCH  30  31
ENDBRANCH   1  30
TORSDOF 7
ENDMDL
MODEL 2
REMARK VINA RESULT:    -7.088      2.220      2.903
REMARK INTER + INTRA:         -11.048
REMARK INTER:                 -10.406
REMARK INTRA:                  -0.642
REMARK UNBOUND:                -1.266
REMARK  Name = 
REMARK  7 active torsions:
REMARK  status: ('A' for Active; 'I' for Inactive)
REMARK    1  A    between atoms: C_2  and  C_20
REMARK    2  A    between atoms: N_3  and  CA_4
REMARK    3  A    between atoms: CA_4  and  C_5
REMARK    4  A    between atoms: CA_4  and  C_7
REMARK    5  A    between atoms: C_5  and  O_6
REMARK    6  A    between atoms: C_10  and  C_11
REMARK    7  A    between atoms: C_11  and  C_12
REMARK                            x       y       z     vdW  Elec       q    Type
REMARK                         _______ _______ _______ _____ _____    ______ ____
ROOT
ATOM      1  CA  UNL     1      46.453   7.809  12.667  0.00  0.00    +0.000 C 
ENDROOT
BRANCH   1   2
ATOM      2  C   UNL     1      46.012   6.630  11.811  0.00  0.00    +0.000 A 
ATOM      3  C   UNL     1      45.082   5.726  12.345  0.00  0.00    +0.000 A 
ATOM      4  C   UNL     1      44.574   4.675  11.579  0.00  0.00    +0.000 A 
ATOM      5  C   UNL     1      44.973   4.508  10.248  0.00  0.00    +0.000 A 
ATOM      6  C   UNL     1      45.905   5.402   9.708  0.00  0.00    +0.000 A 
ATOM      7  C   UNL     1      46.416   6.452  10.480  0.00  0.00    +0.000 A 
BRANCH   5   8
ATOM      8  C   UNL     1      44.383   3.403   9.402  0.00  0.00    +0.000 C 
BRANCH   8   9
ATOM      9  C   UNL     1      45.307   2.830   8.354  0.00  0.00    +0.000 A 
ATOM     10  C   UNL     1      45.917   1.588   8.521  0.00  0.00    +0.000 A 
ATOM     11  N   UNL     1      46.825   1.083   7.650  0.00  0.00    +0.000 NA
ATOM     12  C   UNL     1      47.108   1.872   6.593  0.00  0.00    +0.000 A 
ATOM     13  C   UNL     1      46.505   3.103   6.407  0.00  0.00    +0.000 A 
ATOM     14  N   UNL     1      45.599   3.608   7.277  0.00  0.00    +0.000 NA
ENDBRANCH   8   9
ENDBRANCH   5   8
ENDBRANCH   1   2
BRANCH   1  17
ATOM     15  O   UNL     1      49.142   7.073  13.248  0.00  0.00    +0.000 OA
ATOM     16  C   UNL     1      48.279   6.928  14.108  0.00  0.00    +0.000 C 
ATOM     17  N   UNL     1      46.975   7.304  13.929  0.00  0.00    +0.000 N 
ATOM     18  H   UNL     1      46.279   7.008  14.600  0.00  0.00    +0.000 HD
BRANCH  16  19
ATOM     19  C   UNL     1      48.603   6.377  15.431  0.00  0.00    +0.000 A 
ATOM     20  C   UNL     1      49.504   7.036  16.256  0.00  0.00    +0.000 A 
ATOM     21  S   UNL     1      49.722   6.279  17.769  0.00  0.00    +0.000 S 
ATOM     22  C   UNL     1      48.649   5.026  17.357  0.00  0.00    +0.000 A 
ATOM     23  N   UNL     1      48.380   4.017  18.233  0.00  0.00    +0.000 NA
ATOM     24  C   UNL     1      47.571   3.121  17.779  0.00  0.00    +0.000 A 
ATOM     25  N   UNL     1      47.009   3.132  16.531  0.00  0.00    +0.000 N 
ATOM     26  C   UNL     1      47.220   4.144  15.628  0.00  0.00    +0.000 A 
ATOM     27  O   UNL     1      46.635   4.161  14.548  0.00  0.00    +0.000 OA
ATOM     28  C   UNL     1      48.129   5.182  16.085  0.00  0.00    +0.000 A 
ATOM     29  H   UNL     1      46.376   2.404  16.236  0.00  0.00    +0.000 HD
ENDBRANCH  16  19
ENDBRANCH   1  17
BRANCH   1  30
ATOM     30  C   UNL     1      45.349   8.860  12.928  0.00  0.00    +0.000 C 
BRANCH  30  31
ATOM     31  O   UNL     1      44.398   8.871  11.860  0.00  0.00    +0.000 OA
ATOM     32  H   UNL     1      43.534   8.630  12.236  0.00  0.00    +0.000 HD
ENDBRANCH  30  31
ENDBRANCH   1  30
TORSDOF 7
ENDMDL
MODEL 3
REMARK VINA RESULT:    -7.084      3.865      5.053
REMARK INTER + INTRA:         -11.042
REMARK INTER:                  -9.802
REMARK INTRA:                  -1.240
REMARK UNBOUND:                -1.266
REMARK  Name = 
REMARK  7 active torsions:
REMARK  status: ('A' for Active; 'I' for Inactive)
REMARK    1  A    between atoms: C_2  and  C_20
REMARK    2  A    between atoms: N_3  and  CA_4
REMARK    3  A    between atoms: CA_4  and  C_5
REMARK    4  A    between atoms: CA_4  and  C_7
REMARK    5  A    between atoms: C_5  and  O_6
REMARK    6  A    between atoms: C_10  and  C_11
REMARK    7  A    between atoms: C_11  and  C_12
REMARK                            x       y       z     vdW  Elec       q    Type
REMARK                         _______ _______ _______ _____ _____    ______ ____
ROOT
ATOM      1  CA  UNL     1      45.905   5.739  13.173  0.00  0.00    +0.000 C 
ENDROOT
BRANCH   1   2
ATOM      2  C   UNL     1      45.498   5.174  11.819  0.00  0.00    +0.000 A 
ATOM      3  C   UNL     1      45.961   5.813  10.660  0.00  0.00    +0.000 A 
ATOM      4  C   UNL     1      45.694   5.293   9.393  0.00  0.00    +0.000 A 
ATOM      5  C   UNL     1      44.966   4.107   9.250  0.00  0.00    +0.000 A 
ATOM      6  C   UNL     1      44.493   3.464  10.400  0.00  0.00    +0.000 A 
ATOM      7  C   UNL     1      44.760   3.990  11.670  0.00  0.00    +0.000 A 
BRANCH   5   8
ATOM      8  C   UNL     1      44.722   3.515   7.880  0.00  0.00    +0.000 C 
BRANCH   8   9
ATOM      9  C   UNL     1      45.902   2.800   7.267  0.00  0.00    +0.000 A 
ATOM     10  C   UNL     1      46.459   3.215   6.059  0.00  0.00    +0.000 A 
ATOM     11  N   UNL     1      47.455   2.544   5.429  0.00  0.00    +0.000 NA
ATOM     12  C   UNL     1      47.881   1.428   6.056  0.00  0.00    +0.000 A 
ATOM     13  C   UNL     1      47.346   1.007   7.261  0.00  0.00    +0.000 A 
ATOM     14  N   UNL     1      46.351   1.676   7.888  0.00  0.00    +0.000 NA
ENDBRANCH   8   9
ENDBRANCH   5   8
ENDBRANCH   1   2
BRANCH   1  17
ATOM     15  O   UNL     1      45.883   8.581  13.341  0.00  0.00    +0.000 OA
ATOM     16  C   UNL     1      46.923   8.004  13.038  0.00  0.00    +0.000 C 
ATOM     17  N   UNL     1      47.032   6.641  12.986  0.00  0.00    +0.000 N 
ATOM     18  H   UNL     1      47.855   6.227  12.569  0.00  0.00    +0.000 HD
BRANCH  16  19
ATOM     19  C   UNL     1      48.156   8.750  12.754  0.00  0.00    +0.000 A 
ATOM     20  C   UNL     1      48.129   9.825  11.874  0.00  0.00    +0.000 A 
ATOM     21  S   UNL     1      49.639  10.600  11.703  0.00  0.00    +0.000 S 
ATOM     22  C   UNL     1      50.385   9.504  12.768  0.00  0.00    +0.000 A 
ATOM     23  N   UNL     1      51.711   9.608  13.065  0.00  0.00    +0.000 NA
ATOM     24  C   UNL     1      52.149   8.695  13.864  0.00  0.00    +0.000 A 
ATOM     25  N   UNL     1      51.391   7.684  14.390  0.00  0.00    +0.000 N 
ATOM     26  C   UNL     1      50.045   7.559  14.149  0.00  0.00    +0.000 A 
ATOM     27  O   UNL     1      49.382   6.687  14.704  0.00  0.00    +0.000 OA
ATOM     28  C   UNL     1      49.497   8.561  13.250  0.00  0.00    +0.000 A 
ATOM     29  H   UNL     1      51.791   7.003  15.016  0.00  0.00    +0.000 HD
ENDBRANCH  16  19
ENDBRANCH   1  17
BRANCH   1  30
ATOM     30  C   UNL     1      46.248   4.669  14.237  0.00  0.00    +0.000 C 
BRANCH  30  31
ATOM     31  O   UNL     1      47.650   4.391  14.242  0.00  0.00    +0.000 OA
ATOM     32  H   UNL     1      47.784   3.562  13.751  0.00  0.00    +0.000 HD
ENDBRANCH  30  31
ENDBRANCH   1  30
TORSDOF 7
ENDMDL
MODEL 4
REMARK VINA RESULT:    -6.838      3.567      8.120
REMARK INTER + INTRA:         -10.703
REMARK INTER:                  -9.681
REMARK INTRA:                  -1.022
REMARK UNBOUND:                -1.266
REMARK  Name = 
REMARK  7 active torsions:
REMARK  status: ('A' for Active; 'I' for Inactive)
REMARK    1  A    between atoms: C_2  and  C_20
REMARK    2  A    between atoms: N_3  and  CA_4
REMARK    3  A    between atoms: CA_4  and  C_5
REMARK    4  A    between atoms: CA_4  and  C_7
REMARK    5  A    between atoms: C_5  and  O_6
REMARK    6  A    between atoms: C_10  and  C_11
REMARK    7  A    between atoms: C_11  and  C_12
REMARK                            x       y       z     vdW  Elec       q    Type
REMARK                         _______ _______ _______ _____ _____    ______ ____
ROOT
ATOM      1  CA  UNL     1      48.285   7.538  13.053  0.00  0.00    +0.000 C 
ENDROOT
BRANCH   1   2
ATOM      2  C   UNL     1      48.604   6.877  14.387  0.00  0.00    +0.000 A 
ATOM      3  C   UNL     1      47.809   5.801  14.808  0.00  0.00    +0.000 A 
ATOM      4  C   UNL     1      48.105   5.100  15.979  0.00  0.00    +0.000 A 
ATOM      5  C   UNL     1      49.215   5.448  16.755  0.00  0.00    +0.000 A 
ATOM      6  C   UNL     1      50.011   6.525  16.347  0.00  0.00    +0.000 A 
ATOM      7  C   UNL     1      49.711   7.228  15.175  0.00  0.00    +0.000 A 
BRANCH   5   8
ATOM      8  C   UNL     1      49.566   4.655  17.994  0.00  0.00    +0.000 C 
BRANCH   8   9
ATOM      9  C   UNL     1      50.505   3.493  17.772  0.00  0.00    +0.000 A 
ATOM     10  C   UNL     1      50.062   2.295  17.214  0.00  0.00    +0.000 A 
ATOM     11  N   UNL     1      50.849   1.199  17.087  0.00  0.00    +0.000 NA
ATOM     12  C   UNL     1      52.111   1.341  17.543  0.00  0.00    +0.000 A 
ATOM     13  C   UNL     1      52.569   2.526  18.091  0.00  0.00    +0.000 A 
ATOM     14  N   UNL     1      51.783   3.620  18.220  0.00  0.00    +0.000 NA
ENDBRANCH   8   9
ENDBRANCH   5   8
ENDBRANCH   1   2
BRANCH   1  17
ATOM     15  O   UNL     1      45.743   7.939  11.835  0.00  0.00    +0.000 OA
ATOM     16  C   UNL     1      46.302   6.853  11.718  0.00  0.00    +0.000 C 
ATOM     17  N   UNL     1      47.545   6.594  12.228  0.00  0.00    +0.000 N 
ATOM     18  H   UNL     1      47.881   5.641  12.249  0.00  0.00    +0.000 HD
BRANCH  16  19
ATOM     19  C   UNL     1      45.683   5.753  10.967  0.00  0.00    +0.000 A 
ATOM     20  C   UNL     1      45.865   5.661   9.593  0.00  0.00    +0.000 A 
ATOM     21  S   UNL     1      45.115   4.296   8.897  0.00  0.00    +0.000 S 
ATOM     22  C   UNL     1      44.493   3.803  10.401  0.00  0.00    +0.000 A 
ATOM     23  N   UNL     1      43.736   2.675  10.510  0.00  0.00    +0.000 NA
ATOM     24  C   UNL     1      43.308   2.437  11.704  0.00  0.00    +0.000 A 
ATOM     25  N   UNL     1      43.558   3.220  12.797  0.00  0.00    +0.000 N 
ATOM     26  C   UNL     1      44.344   4.345  12.744  0.00  0.00    +0.000 A 
ATOM     27  O   UNL     1      44.612   4.977  13.762  0.00  0.00    +0.000 OA
ATOM     28  C   UNL     1      44.852   4.665  11.421  0.00  0.00    +0.000 A 
ATOM     29  H   UNL     1      43.199   2.976  13.708  0.00  0.00    +0.000 HD
ENDBRANCH  16  19
ENDBRANCH   1  17
BRANCH   1  30
ATOM     30  C   UNL     1      49.522   8.064  12.287  0.00  0.00    +0.000 C 
BRANCH  30  31
ATOM     31  O   UNL     1      50.357   6.981  11.870  0.00  0.00    +0.000 OA
ATOM     32  H   UNL     1      50.655   6.518  12.671  0.00  0.00    +0.000 HD
ENDBRANCH  30  31
ENDBRANCH   1  30
TORSDOF 7
ENDMDL
MODEL 5
REMARK VINA RESULT:    -6.560      2.423      3.208
REMARK INTER + INTRA:         -10.319
REMARK INTER:                  -8.943
REMARK INTRA:                  -1.377
REMARK UNBOUND:                -1.266
REMARK  Name = 
REMARK  7 active torsions:
REMARK  status: ('A' for Active; 'I' for Inactive)
REMARK    1  A    between atoms: C_2  and  C_20
REMARK    2  A    between atoms: N_3  and  CA_4
REMARK    3  A    between atoms: CA_4  and  C_5
REMARK    4  A    between atoms: CA_4  and  C_7
REMARK    5  A    between atoms: C_5  and  O_6
REMARK    6  A    between atoms: C_10  and  C_11
REMARK    7  A    between atoms: C_11  and  C_12
REMARK                            x       y       z     vdW  Elec       q    Type
REMARK                         _______ _______ _______ _____ _____    ______ ____
ROOT
ATOM      1  CA  UNL     1      48.898   8.606  14.249  0.00  0.00    +0.000 C 
ENDROOT
BRANCH   1   2
ATOM      2  C   UNL     1      47.744   8.192  13.345  0.00  0.00    +0.000 A 
ATOM      3  C   UNL     1      47.915   7.079  12.508  0.00  0.00    +0.000 A 
ATOM      4  C   UNL     1      46.867   6.600  11.722  0.00  0.00    +0.000 A 
ATOM      5  C   UNL     1      45.610   7.213  11.761  0.00  0.00    +0.000 A 
ATOM      6  C   UNL     1      45.431   8.328  12.588  0.00  0.00    +0.000 A 
ATOM      7  C   UNL     1      46.485   8.809  13.374  0.00  0.00    +0.000 A 
BRANCH   5   8
ATOM      8  C   UNL     1      44.459   6.661  10.950  0.00  0.00    +0.000 C 
BRANCH   8   9
ATOM      9  C   UNL     1      44.048   5.249  11.292  0.00  0.00    +0.000 A 
ATOM     10  C   UNL     1      43.718   4.881  12.595  0.00  0.00    +0.000 A 
ATOM     11  N   UNL     1      43.437   3.606  12.959  0.00  0.00    +0.000 NA
ATOM     12  C   UNL     1      43.500   2.697  11.964  0.00  0.00    +0.000 A 
ATOM     13  C   UNL     1      43.817   3.046  10.663  0.00  0.00    +0.000 A 
ATOM     14  N   UNL     1      44.099   4.319  10.300  0.00  0.00    +0.000 NA
ENDBRANCH   8   9
ENDBRANCH   5   8
ENDBRANCH   1   2
BRANCH   1  17
ATOM     15  O   UNL     1      51.188   7.223  15.224  0.00  0.00    +0.000 OA
ATOM     16  C   UNL     1      50.098   7.030  15.753  0.00  0.00    +0.000 C 
ATOM     17  N   UNL     1      48.959   7.691  15.379  0.00  0.00    +0.000 N 
ATOM     18  H   UNL     1      48.066   7.371  15.729  0.00  0.00    +0.000 HD
BRANCH  16  19
ATOM     19  C   UNL     1      49.949   6.094  16.875  0.00  0.00    +0.000 A 
ATOM     20  C   UNL     1      50.782   6.198  17.982  0.00  0.00    +0.000 A 
ATOM     21  S   UNL     1      50.433   5.062  19.205  0.00  0.00    +0.000 S 
ATOM     22  C   UNL     1      49.183   4.370  18.282  0.00  0.00    +0.000 A 
ATOM     23  N   UNL     1      48.457   3.320  18.761  0.00  0.00    +0.000 NA
ATOM     24  C   UNL     1      47.561   2.879  17.945  0.00  0.00    +0.000 A 
ATOM     25  N   UNL     1      47.325   3.380  16.694  0.00  0.00    +0.000 N 
ATOM     26  C   UNL     1      48.005   4.459  16.183  0.00  0.00    +0.000 A 
ATOM     27  O   UNL     1      47.709   4.931  15.088  0.00  0.00    +0.000 OA
ATOM     28  C   UNL     1      49.031   4.996  17.059  0.00  0.00    +0.000 A 
ATOM     29  H   UNL     1      46.603   2.995  16.105  0.00  0.00    +0.000 HD
ENDBRANCH  16  19
ENDBRANCH   1  17
BRANCH   1  30
ATOM     30  C   UNL     1      48.828  10.068  14.748  0.00  0.00    +0.000 C 
BRANCH  30  31
ATOM     31  O   UNL     1      48.244  10.131  16.052  0.00  0.00    +0.000 OA
ATOM     32  H   UNL     1      48.557  10.950  16.472  0.00  0.00    +0.000 HD
ENDBRANCH  30  31
ENDBRANCH   1  30
TORSDOF 7
ENDMDL
MODEL 6
REMARK VINA RESULT:    -6.429      3.843      5.750
REMARK INTER + INTRA:         -10.138
REMARK INTER:                  -9.316
REMARK INTRA:                  -0.823
REMARK UNBOUND:                -1.266
REMARK  Name = 
REMARK  7 active torsions:
REMARK  status: ('A' for Active; 'I' for Inactive)
REMARK    1  A    between atoms: C_2  and  C_20
REMARK    2  A    between atoms: N_3  and  CA_4
REMARK    3  A    between atoms: CA_4  and  C_5
REMARK    4  A    between atoms: CA_4  and  C_7
REMARK    5  A    between atoms: C_5  and  O_6
REMARK    6  A    between atoms: C_10  and  C_11
REMARK    7  A    between atoms: C_11  and  C_12
REMARK                            x       y       z     vdW  Elec       q    Type
REMARK                         _______ _______ _______ _____ _____    ______ ____
ROOT
ATOM      1  CA  UNL     1      46.207   5.056  14.055  0.00  0.00    +0.000 C 
ENDROOT
BRANCH   1   2
ATOM      2  C   UNL     1      46.147   6.406  13.354  0.00  0.00    +0.000 A 
ATOM      3  C   UNL     1      45.080   6.658  12.479  0.00  0.00    +0.000 A 
ATOM      4  C   UNL     1      44.922   7.907  11.874  0.00  0.00    +0.000 A 
ATOM      5  C   UNL     1      45.822   8.945  12.140  0.00  0.00    +0.000 A 
ATOM      6  C   UNL     1      46.894   8.701  13.007  0.00  0.00    +0.000 A 
ATOM      7  C   UNL     1      47.051   7.447  13.610  0.00  0.00    +0.000 A 
BRANCH   5   8
ATOM      8  C   UNL     1      45.621  10.312  11.527  0.00  0.00    +0.000 C 
BRANCH   8   9
ATOM      9  C   UNL     1      44.216  10.609  11.059  0.00  0.00    +0.000 A 
ATOM     10  C   UNL     1      43.865  10.535   9.712  0.00  0.00    +0.000 A 
ATOM     11  N   UNL     1      42.643  10.885   9.242  0.00  0.00    +0.000 NA
ATOM     12  C   UNL     1      41.771  11.320  10.175  0.00  0.00    +0.000 A 
ATOM     13  C   UNL     1      42.099  11.390  11.518  0.00  0.00    +0.000 A 
ATOM     14  N   UNL     1      43.320  11.042  11.987  0.00  0.00    +0.000 NA
ENDBRANCH   8   9
ENDBRANCH   5   8
ENDBRANCH   1   2
BRANCH   1  17
ATOM     15  O   UNL     1      46.457   3.794  16.596  0.00  0.00    +0.000 OA
ATOM     16  C   UNL     1      47.404   4.431  16.145  0.00  0.00    +0.000 C 
ATOM     17  N   UNL     1      47.384   5.024  14.911  0.00  0.00    +0.000 N 
ATOM     18  H   UNL     1      48.119   5.673  14.664  0.00  0.00    +0.000 HD
BRANCH  16  19
ATOM     19  C   UNL     1      48.662   4.563  16.891  0.00  0.00    +0.000 A 
ATOM     20  C   UNL     1      48.973   5.760  17.521  0.00  0.00    +0.000 A 
ATOM     21  S   UNL     1      50.447   5.714  18.379  0.00  0.00    +0.000 S 
ATOM     22  C   UNL     1      50.735   4.107  17.907  0.00  0.00    +0.000 A 
ATOM     23  N   UNL     1      51.858   3.448  18.311  0.00  0.00    +0.000 NA
ATOM     24  C   UNL     1      51.960   2.245  17.856  0.00  0.00    +0.000 A 
ATOM     25  N   UNL     1      51.052   1.639  17.032  0.00  0.00    +0.000 N 
ATOM     26  C   UNL     1      49.889   2.248  16.628  0.00  0.00    +0.000 A 
ATOM     27  O   UNL     1      49.059   1.642  15.955  0.00  0.00    +0.000 OA
ATOM     28  C   UNL     1      49.722   3.609  17.108  0.00  0.00    +0.000 A 
ATOM     29  H   UNL     1      51.185   0.691  16.715  0.00  0.00    +0.000 HD
ENDBRANCH  16  19
ENDBRANCH   1  17
BRANCH   1  30
ATOM     30  C   UNL     1      46.206   3.838  13.102  0.00  0.00    +0.000 C 
BRANCH  30  31
ATOM     31  O   UNL     1      46.938   2.749  13.671  0.00  0.00    +0.000 OA
ATOM     32  H   UNL     1      47.884   2.944  13.560  0.00  0.00    +0.000 HD
ENDBRANCH  30  31
ENDBRANCH   1  30
TORSDOF 7
ENDMDL
MODEL 7
REMARK VINA RESULT:    -6.375      2.948      4.803
REMARK INTER + INTRA:         -10.064
REMARK INTER:                  -8.815
REMARK INTRA:                  -1.249
REMARK UNBOUND:                -1.266
REMARK  Name = 
REMARK  7 active torsions:
REMARK  status: ('A' for Active; 'I' for Inactive)
REMARK    1  A    between atoms: C_2  and  C_20
REMARK    2  A    between atoms: N_3  and  CA_4
REMARK    3  A    between atoms: CA_4  and  C_5
REMARK    4  A    between atoms: CA_4  and  C_7
REMARK    5  A    between atoms: C_5  and  O_6
REMARK    6  A    between atoms: C_10  and  C_11
REMARK    7  A    between atoms: C_11  and  C_12
REMARK                            x       y       z     vdW  Elec       q    Type
REMARK                         _______ _______ _______ _____ _____    ______ ____
ROOT
ATOM      1  CA  UNL     1      47.207   5.625  14.714  0.00  0.00    +0.000 C 
ENDROOT
BRANCH   1   2
ATOM      2  C   UNL     1      46.566   5.212  13.396  0.00  0.00    +0.000 A 
ATOM      3  C   UNL     1      46.086   3.901  13.266  0.00  0.00    +0.000 A 
ATOM      4  C   UNL     1      45.412   3.489  12.115  0.00  0.00    +0.000 A 
ATOM      5  C   UNL     1      45.186   4.385  11.065  0.00  0.00    +0.000 A 
ATOM      6  C   UNL     1      45.667   5.695  11.182  0.00  0.00    +0.000 A 
ATOM      7  C   UNL     1      46.346   6.104  12.335  0.00  0.00    +0.000 A 
BRANCH   5   8
ATOM      8  C   UNL     1      44.409   3.955   9.841  0.00  0.00    +0.000 C 
BRANCH   8   9
ATOM      9  C   UNL     1      45.228   3.297   8.756  0.00  0.00    +0.000 A 
ATOM     10  C   UNL     1      45.530   1.937   8.794  0.00  0.00    +0.000 A 
ATOM     11  N   UNL     1      46.339   1.329   7.892  0.00  0.00    +0.000 NA
ATOM     12  C   UNL     1      46.847   2.138   6.939  0.00  0.00    +0.000 A 
ATOM     13  C   UNL     1      46.550   3.489   6.881  0.00  0.00    +0.000 A 
ATOM     14  N   UNL     1      45.742   4.095   7.782  0.00  0.00    +0.000 NA
ENDBRANCH   8   9
ENDBRANCH   5   8
ENDBRANCH   1   2
BRANCH   1  17
ATOM     15  O   UNL     1      48.589   7.592  16.240  0.00  0.00    +0.000 OA
ATOM     16  C   UNL     1      49.093   7.170  15.204  0.00  0.00    +0.000 C 
ATOM     17  N   UNL     1      48.521   6.189  14.441  0.00  0.00    +0.000 N 
ATOM     18  H   UNL     1      48.891   6.003  13.518  0.00  0.00    +0.000 HD
BRANCH  16  19
ATOM     19  C   UNL     1      50.394   7.664  14.731  0.00  0.00    +0.000 A 
ATOM     20  C   UNL     1      51.518   7.539  15.537  0.00  0.00    +0.000 A 
ATOM     21  S   UNL     1      52.946   8.122  14.807  0.00  0.00    +0.000 S 
ATOM     22  C   UNL     1      52.103   8.593  13.407  0.00  0.00    +0.000 A 
ATOM     23  N   UNL     1      52.753   9.177  12.361  0.00  0.00    +0.000 NA
ATOM     24  C   UNL     1      51.986   9.507  11.378  0.00  0.00    +0.000 A 
ATOM     25  N   UNL     1      50.632   9.316  11.342  0.00  0.00    +0.000 N 
ATOM     26  C   UNL     1      49.938   8.700  12.354  0.00  0.00    +0.000 A 
ATOM     27  O   UNL     1      48.736   8.474  12.250  0.00  0.00    +0.000 OA
ATOM     28  C   UNL     1      50.752   8.309  13.492  0.00  0.00    +0.000 A 
ATOM     29  H   UNL     1      50.087   9.591  10.538  0.00  0.00    +0.000 HD
ENDBRANCH  16  19
ENDBRANCH   1  17
BRANCH   1  30
ATOM     30  C   UNL     1      47.320   4.487  15.755  0.00  0.00    +0.000 C 
BRANCH  30  31
ATOM     31  O   UNL     1      47.155   4.996  17.081  0.00  0.00    +0.000 OA
ATOM     32  H   UNL     1      46.635   4.344  17.581  0.00  0.00    +0.000 HD
ENDBRANCH  30  31
ENDBRANCH   1  30
TORSDOF 7
ENDMDL
MODEL 8
REMARK VINA RESULT:    -6.351      1.519      2.071
REMARK INTER + INTRA:         -10.031
REMARK INTER:                  -9.016
REMARK INTRA:                  -1.015
REMARK UNBOUND:                -1.266
REMARK  Name = 
REMARK  7 active torsions:
REMARK  status: ('A' for Active; 'I' for Inactive)
REMARK    1  A    between atoms: C_2  and  C_20
REMARK    2  A    between atoms: N_3  and  CA_4
REMARK    3  A    between atoms: CA_4  and  C_5
REMARK    4  A    between atoms: CA_4  and  C_7
REMARK    5  A    between atoms: C_5  and  O_6
REMARK    6  A    between atoms: C_10  and  C_11
REMARK    7  A    between atoms: C_11  and  C_12
REMARK                            x       y       z     vdW  Elec       q    Type
REMARK                         _______ _______ _______ _____ _____    ______ ____
ROOT
ATOM      1  CA  UNL     1      48.185   8.131  13.591  0.00  0.00    +0.000 C 
ENDROOT
BRANCH   1   2
ATOM      2  C   UNL     1      47.071   7.307  12.959  0.00  0.00    +0.000 A 
ATOM      3  C   UNL     1      46.101   7.970  12.193  0.00  0.00    +0.000 A 
ATOM      4  C   UNL     1      45.106   7.260  11.517  0.00  0.00    +0.000 A 
ATOM      5  C   UNL     1      45.063   5.863  11.579  0.00  0.00    +0.000 A 
ATOM      6  C   UNL     1      46.023   5.193  12.346  0.00  0.00    +0.000 A 
ATOM      7  C   UNL     1      47.018   5.907  13.025  0.00  0.00    +0.000 A 
BRANCH   5   8
ATOM      8  C   UNL     1      44.019   5.091  10.804  0.00  0.00    +0.000 C 
BRANCH   8   9
ATOM      9  C   UNL     1      44.559   4.130   9.773  0.00  0.00    +0.000 A 
ATOM     10  C   UNL     1      44.371   2.754   9.889  0.00  0.00    +0.000 A 
ATOM     11  N   UNL     1      44.921   1.854   9.037  0.00  0.00    +0.000 NA
ATOM     12  C   UNL     1      45.678   2.382   8.053  0.00  0.00    +0.000 A 
ATOM     13  C   UNL     1      45.868   3.746   7.918  0.00  0.00    +0.000 A 
ATOM     14  N   UNL     1      45.320   4.645   8.769  0.00  0.00    +0.000 NA
ENDBRANCH   8   9
ENDBRANCH   5   8
ENDBRANCH   1   2
BRANCH   1  17
ATOM     15  O   UNL     1      50.216   6.894  15.157  0.00  0.00    +0.000 OA
ATOM     16  C   UNL     1      49.178   7.260  15.699  0.00  0.00    +0.000 C 
ATOM     17  N   UNL     1      48.175   7.908  15.030  0.00  0.00    +0.000 N 
ATOM     18  H   UNL     1      47.280   8.033  15.483  0.00  0.00    +0.000 HD
BRANCH  16  19
ATOM     19  C   UNL     1      48.958   7.068  17.138  0.00  0.00    +0.000 A 
ATOM     20  C   UNL     1      48.888   8.168  17.983  0.00  0.00    +0.000 A 
ATOM     21  S   UNL     1      48.581   7.757  19.610  0.00  0.00    +0.000 S 
ATOM     22  C   UNL     1      48.569   6.096  19.246  0.00  0.00    +0.000 A 
ATOM     23  N   UNL     1      48.354   5.167  20.220  0.00  0.00    +0.000 NA
ATOM     24  C   UNL     1      48.400   3.946  19.807  0.00  0.00    +0.000 A 
ATOM     25  N   UNL     1      48.645   3.563  18.516  0.00  0.00    +0.000 N 
ATOM     26  C   UNL     1      48.830   4.462  17.495  0.00  0.00    +0.000 A 
ATOM     27  O   UNL     1      48.967   4.081  16.335  0.00  0.00    +0.000 OA
ATOM     28  C   UNL     1      48.794   5.856  17.903  0.00  0.00    +0.000 A 
ATOM     29  H   UNL     1      48.661   2.589  18.254  0.00  0.00    +0.000 HD
ENDBRANCH  16  19
ENDBRANCH   1  17
BRANCH   1  30
ATOM     30  C   UNL     1      48.115   9.646  13.284  0.00  0.00    +0.000 C 
BRANCH  30  31
ATOM     31  O   UNL     1      48.113  10.408  14.495  0.00  0.00    +0.000 OA
ATOM     32  H   UNL     1      47.188  10.504  14.777  0.00  0.00    +0.000 HD
ENDBRANCH  30  31
ENDBRANCH   1  30
TORSDOF 7
ENDMDL
MODEL 9
REMARK VINA RESULT:    -5.999      3.884      6.238
REMARK INTER + INTRA:          -9.545
REMARK INTER:                  -8.298
REMARK INTRA:                  -1.247
REMARK UNBOUND:                -1.266
REMARK  Name = 
REMARK  7 active torsions:
REMARK  status: ('A' for Active; 'I' for Inactive)
REMARK    1  A    between atoms: C_2  and  C_20
REMARK    2  A    between atoms: N_3  and  CA_4
REMARK    3  A    between atoms: CA_4  and  C_5
REMARK    4  A    between atoms: CA_4  and  C_7
REMARK    5  A    between atoms: C_5  and  O_6
REMARK    6  A    between atoms: C_10  and  C_11
REMARK    7  A    between atoms: C_11  and  C_12
REMARK                            x       y       z     vdW  Elec       q    Type
REMARK                         _______ _______ _______ _____ _____    ______ ____
ROOT
ATOM      1  CA  UNL     1      47.377   7.619  13.623  0.00  0.00    +0.000 C 
ENDROOT
BRANCH   1   2
ATOM      2  C   UNL     1      46.484   6.709  12.792  0.00  0.00    +0.000 A 
ATOM      3  C   UNL     1      45.761   7.270  11.728  0.00  0.00    +0.000 A 
ATOM      4  C   UNL     1      44.993   6.473  10.877  0.00  0.00    +0.000 A 
ATOM      5  C   UNL     1      44.939   5.086  11.058  0.00  0.00    +0.000 A 
ATOM      6  C   UNL     1      45.652   4.517  12.120  0.00  0.00    +0.000 A 
ATOM      7  C   UNL     1      46.418   5.319  12.974  0.00  0.00    +0.000 A 
BRANCH   5   8
ATOM      8  C   UNL     1      44.151   4.217  10.104  0.00  0.00    +0.000 C 
BRANCH   8   9
ATOM      9  C   UNL     1      44.975   3.463   9.088  0.00  0.00    +0.000 A 
ATOM     10  C   UNL     1      45.225   2.098   9.220  0.00  0.00    +0.000 A 
ATOM     11  N   UNL     1      46.036   1.406   8.384  0.00  0.00    +0.000 NA
ATOM     12  C   UNL     1      46.601   2.134   7.398  0.00  0.00    +0.000 A 
ATOM     13  C   UNL     1      46.357   3.488   7.247  0.00  0.00    +0.000 A 
ATOM     14  N   UNL     1      45.547   4.179   8.083  0.00  0.00    +0.000 NA
ENDBRANCH   8   9
ENDBRANCH   5   8
ENDBRANCH   1   2
BRANCH   1  17
ATOM     15  O   UNL     1      48.510  10.156  14.246  0.00  0.00    +0.000 OA
ATOM     16  C   UNL     1      48.586   9.728  13.099  0.00  0.00    +0.000 C 
ATOM     17  N   UNL     1      48.114   8.498  12.728  0.00  0.00    +0.000 N 
ATOM     18  H   UNL     1      48.051   8.270  11.745  0.00  0.00    +0.000 HD
BRANCH  16  19
ATOM     19  C   UNL     1      49.245  10.501  12.037  0.00  0.00    +0.000 A 
ATOM     20  C   UNL     1      48.764  11.757  11.693  0.00  0.00    +0.000 A 
ATOM     21  S   UNL     1      49.681  12.527  10.477  0.00  0.00    +0.000 S 
ATOM     22  C   UNL     1      50.727  11.193  10.345  0.00  0.00    +0.000 A 
ATOM     23  N   UNL     1      51.763  11.199   9.459  0.00  0.00    +0.000 NA
ATOM     24  C   UNL     1      52.457  10.112   9.446  0.00  0.00    +0.000 A 
ATOM     25  N   UNL     1      52.212   9.016  10.228  0.00  0.00    +0.000 N 
ATOM     26  C   UNL     1      51.204   8.976  11.160  0.00  0.00    +0.000 A 
ATOM     27  O   UNL     1      51.066   8.005  11.900  0.00  0.00    +0.000 OA
ATOM     28  C   UNL     1      50.385  10.175  11.216  0.00  0.00    +0.000 A 
ATOM     29  H   UNL     1      52.797   8.196  10.176  0.00  0.00    +0.000 HD
ENDBRANCH  16  19
ENDBRANCH   1  17
BRANCH   1  30
ATOM     30  C   UNL     1      48.352   6.874  14.564  0.00  0.00    +0.000 C 
BRANCH  30  31
ATOM     31  O   UNL     1      48.392   7.499  15.850  0.00  0.00    +0.000 OA
ATOM     32  H   UNL     1      48.783   6.862  16.471  0.00  0.00    +0.000 HD
ENDBRANCH  30  31
ENDBRANCH   1  30
TORSDOF 7
ENDMDL
