MODEL 1
REMARK VINA RESULT:    -7.380      0.000      0.000
REMARK INTER + INTRA:         -12.085
REMARK INTER:                 -11.263
REMARK INTRA:                  -0.822
REMARK UNBOUND:                -0.822
REMARK  Name = 
REMARK  10 active torsions:
REMARK  status: ('A' for Active; 'I' for Inactive)
REMARK    1  A    between atoms: C_1  and  C_2
REMARK    2  A    between atoms: C_2  and  C_3
REMARK    3  A    between atoms: C_3  and  C_4
REMARK    4  A    between atoms: C_4  and  C_5
REMARK    5  A    between atoms: C_7  and  C_8
REMARK    6  A    between atoms: C_9  and  O_10
REMARK    7  A    between atoms: O_10  and  C_11
REMARK    8  A    between atoms: C_14  and  C_15
REMARK    9  A    between atoms: C_21  and  O_22
REMARK   10  A    between atoms: O_22  and  C_23
REMARK                            x       y       z     vdW  Elec       q    Type
REMARK                         _______ _______ _______ _____ _____    ______ ____
ROOT
ATOM      1  C   UNL     1      45.079   8.976  11.970  0.00  0.00    +0.000 A 
ATOM      2  C   UNL     1      44.711   7.716  11.475  0.00  0.00    +0.000 A 
ATOM      3  C   UNL     1      45.390   6.553  11.871  0.00  0.00    +0.000 A 
ATOM      4  C   UNL     1      46.443   6.661  12.793  0.00  0.00    +0.000 A 
ATOM      5  C   UNL     1      46.815   7.908  13.295  0.00  0.00    +0.000 A 
ATOM      6  C   UNL     1      46.143   9.056  12.877  0.00  0.00    +0.000 A 
ENDROOT
BRANCH   3   7
ATOM      7  C   UNL     1      45.041   5.219  11.360  0.00  0.00    +0.000 C 
ATOM      8  C   UNL     1      43.988   4.958  10.579  0.00  0.00    +0.000 C 
BRANCH   8   9
ATOM      9  O   UNL     1      43.763   3.706  10.052  0.00  0.00    +0.000 OA
BRANCH   9  10
ATOM     10  C   UNL     1      44.692   3.200   9.171  0.00  0.00    +0.000 A 
ATOM     11  C   UNL     1      45.101   1.863   9.170  0.00  0.00    +0.000 A 
ATOM     12  C   UNL     1      46.048   1.424   8.245  0.00  0.00    +0.000 A 
ATOM     13  C   UNL     1      46.565   2.306   7.289  0.00  0.00    +0.000 A 
ATOM     14  C   UNL     1      46.128   3.637   7.266  0.00  0.00    +0.000 A 
ATOM     15  C   UNL     1      45.189   4.080   8.206  0.00  0.00    +0.000 A 
BRANCH  13  16
ATOM     16  C   UNL     1      47.590   1.787   6.347  0.00  0.00    +0.000 C 
ATOM     17  N   UNL     1      48.753   2.492   6.224  0.00  0.00    +0.000 N 
ATOM     18  O   UNL     1      47.393   0.779   5.679  0.00  0.00    +0.000 OA
ATOM     19  H   UNL     1      48.863   3.434   6.569  0.00  0.00    +0.000 HD
ATOM     20  H   UNL     1      49.390   2.177   5.502  0.00  0.00    +0.000 HD
ENDBRANCH  13  16
ENDBRANCH   9  10
ENDBRANCH   8   9
ENDBRANCH   3   7
BRANCH   1  21
ATOM     21  C   UNL     1      44.376  10.231  11.514  0.00  0.00    +0.000 C 
BRANCH  21  22
ATOM     22  C   UNL     1      43.467  10.052  10.293  0.00  0.00    +0.000 C 
BRANCH  22  24
ATOM     23  C   UNL     1      41.386  11.459  10.127  0.00  0.00    +0.000 C 
ATOM     24  C   UNL     1      41.979  10.155  10.636  0.00  0.00    +0.000 C 
ENDBRANCH  22  24
ENDBRANCH  21  22
ENDBRANCH   1  21
BRANCH   5  25
ATOM     25  O   UNL     1      47.855   8.125  14.165  0.00  0.00    +0.000 OA
BRANCH  25  26
ATOM     26  C   UNL     1      48.812   7.067  14.395  0.00  0.00    +0.000 C 
ATOM     27  C   UNL     1      48.794   6.361  15.767  0.00  0.00    +0.000 C 
ATOM     28  N   UNL     1      50.245   6.568  15.903  0.00  0.00    +0.000 NA
ATOM     29  C   UNL     1      50.219   7.549  14.807  0.00  0.00    +0.000 C 
ATOM     30  H   UNL     1      50.804   5.739  15.702  0.00  0.00    +0.000 HD
ENDBRANCH  25  26
ENDBRANCH   5  25
TORSDOF 9
ENDMDL
MODEL 2
REMARK VINA RESULT:    -7.248      2.658      3.546
REMARK INTER + INTRA:         -11.882
REMARK INTER:                 -10.799
REMARK INTRA:                  -1.084
REMARK UNBOUND:                -0.822
REMARK  Name = 
REMARK  10 active torsions:
REMARK  status: ('A' for Active; 'I' for Inactive)
REMARK    1  A    between atoms: C_1  and  C_2
REMARK    2  A    between atoms: C_2  and  C_3
REMARK    3  A    between atoms: C_3  and  C_4
REMARK    4  A    between atoms: C_4  and  C_5
REMARK    5  A    between atoms: C_7  and  C_8
REMARK    6  A    between atoms: C_9  and  O_10
REMARK    7  A    between atoms: O_10  and  C_11
REMARK    8  A    between atoms: C_14  and  C_15
REMARK    9  A    between atoms: C_21  and  O_22
REMARK   10  A    between atoms: O_22  and  C_23
REMARK                            x       y       z     vdW  Elec       q    Type
REMARK                         _______ _______ _______ _____ _____    ______ ____
ROOT
ATOM      1  C   UNL     1      47.651   7.727  13.661  0.00  0.00    +0.000 A 
ATOM      2  C   UNL     1      46.839   7.011  12.768  0.00  0.00    +0.000 A 
ATOM      3  C   UNL     1      46.573   5.647  12.962  0.00  0.00    +0.000 A 
ATOM      4  C   UNL     1      47.119   5.001  14.082  0.00  0.00    +0.000 A 
ATOM      5  C   UNL     1      47.925   5.702  14.978  0.00  0.00    +0.000 A 
ATOM      6  C   UNL     1      48.195   7.053  14.761  0.00  0.00    +0.000 A 
ENDROOT
BRANCH   3   7
ATOM      7  C   UNL     1      45.739   4.863  12.038  0.00  0.00    +0.000 C 
ATOM      8  C   UNL     1      44.995   5.387  11.058  0.00  0.00    +0.000 C 
BRANCH   8   9
ATOM      9  O   UNL     1      44.309   4.598  10.163  0.00  0.00    +0.000 OA
BRANCH   9  10
ATOM     10  C   UNL     1      45.041   3.834   9.281  0.00  0.00    +0.000 A 
ATOM     11  C   UNL     1      45.040   2.437   9.291  0.00  0.00    +0.000 A 
ATOM     12  C   UNL     1      45.808   1.732   8.365  0.00  0.00    +0.000 A 
ATOM     13  C   UNL     1      46.552   2.416   7.396  0.00  0.00    +0.000 A 
ATOM     14  C   UNL     1      46.523   3.816   7.362  0.00  0.00    +0.000 A 
ATOM     15  C   UNL     1      45.764   4.522   8.304  0.00  0.00    +0.000 A 
BRANCH  13  16
ATOM     16  C   UNL     1      47.370   1.611   6.453  0.00  0.00    +0.000 C 
ATOM     17  N   UNL     1      48.412   2.234   5.827  0.00  0.00    +0.000 N 
ATOM     18  O   UNL     1      47.107   0.439   6.217  0.00  0.00    +0.000 OA
ATOM     19  H   UNL     1      48.522   3.237   5.811  0.00  0.00    +0.000 HD
ATOM     20  H   UNL     1      48.889   1.696   5.114  0.00  0.00    +0.000 HD
ENDBRANCH  13  16
ENDBRANCH   9  10
ENDBRANCH   8   9
ENDBRANCH   3   7
BRANCH   1  21
ATOM     21  C   UNL     1      47.971   9.184  13.430  0.00  0.00    +0.000 C 
BRANCH  21  22
ATOM     22  C   UNL     1      48.181   9.573  11.963  0.00  0.00    +0.000 C 
BRANCH  22  24
ATOM     23  C   UNL     1      50.376   8.419  11.523  0.00  0.00    +0.000 C 
ATOM     24  C   UNL     1      49.656   9.756  11.600  0.00  0.00    +0.000 C 
ENDBRANCH  22  24
ENDBRANCH  21  22
ENDBRANCH   1  21
BRANCH   5  25
ATOM     25  O   UNL     1      48.539   5.154  16.077  0.00  0.00    +0.000 OA
BRANCH  25  26
ATOM     26  C   UNL     1      47.728   4.532  17.099  0.00  0.00    +0.000 C 
ATOM     27  C   UNL     1      47.821   5.090  18.534  0.00  0.00    +0.000 C 
ATOM     28  N   UNL     1      48.040   3.731  19.058  0.00  0.00    +0.000 NA
ATOM     29  C   UNL     1      48.325   3.242  17.699  0.00  0.00    +0.000 C 
ATOM     30  H   UNL     1      47.214   3.310  19.483  0.00  0.00    +0.000 HD
ENDBRANCH  25  26
ENDBRANCH   5  25
TORSDOF 9
ENDMDL
MODEL 3
REMARK VINA RESULT:    -7.229      2.371      4.629
REMARK INTER + INTRA:         -11.855
REMARK INTER:                 -10.807
REMARK INTRA:                  -1.048
REMARK UNBOUND:                -0.822
REMARK  Name = 
REMARK  10 active torsions:
REMARK  status: ('A' for Active; 'I' for Inactive)
REMARK    1  A    between atoms: C_1  and  C_2
REMARK    2  A    between atoms: C_2  and  C_3
REMARK    3  A    between atoms: C_3  and  C_4
REMARK    4  A    between atoms: C_4  and  C_5
REMARK    5  A    between atoms: C_7  and  C_8
REMARK    6  A    between atoms: C_9  and  O_10
REMARK    7  A    between atoms: O_10  and  C_11
REMARK    8  A    between atoms: C_14  and  C_15
REMARK    9  A    between atoms: C_21  and  O_22
REMARK   10  A    between atoms: O_22  and  C_23
REMARK                            x       y       z     vdW  Elec       q    Type
REMARK                         _______ _______ _______ _____ _____    ______ ____
ROOT
ATOM      1  C   UNL     1      47.375   7.494  13.506  0.00  0.00    +0.000 A 
ATOM      2  C   UNL     1      46.940   6.324  12.866  0.00  0.00    +0.000 A 
ATOM      3  C   UNL     1      45.758   6.306  12.110  0.00  0.00    +0.000 A 
ATOM      4  C   UNL     1      45.014   7.490  11.984  0.00  0.00    +0.000 A 
ATOM      5  C   UNL     1      45.438   8.660  12.612  0.00  0.00    +0.000 A 
ATOM      6  C   UNL     1      46.606   8.657  13.375  0.00  0.00    +0.000 A 
ENDROOT
BRANCH   3   7
ATOM      7  C   UNL     1      45.264   5.093  11.439  0.00  0.00    +0.000 C 
ATOM      8  C   UNL     1      44.168   5.044  10.675  0.00  0.00    +0.000 C 
BRANCH   8   9
ATOM      9  O   UNL     1      43.805   3.904   9.994  0.00  0.00    +0.000 OA
BRANCH   9  10
ATOM     10  C   UNL     1      44.731   3.334   9.148  0.00  0.00    +0.000 A 
ATOM     11  C   UNL     1      45.061   1.976   9.172  0.00  0.00    +0.000 A 
ATOM     12  C   UNL     1      46.009   1.473   8.282  0.00  0.00    +0.000 A 
ATOM     13  C   UNL     1      46.608   2.313   7.336  0.00  0.00    +0.000 A 
ATOM     14  C   UNL     1      46.251   3.667   7.288  0.00  0.00    +0.000 A 
ATOM     15  C   UNL     1      45.310   4.173   8.193  0.00  0.00    +0.000 A 
BRANCH  13  16
ATOM     16  C   UNL     1      47.631   1.724   6.433  0.00  0.00    +0.000 C 
ATOM     17  N   UNL     1      48.822   2.381   6.312  0.00  0.00    +0.000 N 
ATOM     18  O   UNL     1      47.408   0.704   5.794  0.00  0.00    +0.000 OA
ATOM     19  H   UNL     1      48.961   3.329   6.629  0.00  0.00    +0.000 HD
ATOM     20  H   UNL     1      49.460   2.018   5.614  0.00  0.00    +0.000 HD
ENDBRANCH  13  16
ENDBRANCH   9  10
ENDBRANCH   8   9
ENDBRANCH   3   7
BRANCH   1  21
ATOM     21  C   UNL     1      48.625   7.504  14.352  0.00  0.00    +0.000 C 
BRANCH  21  22
ATOM     22  C   UNL     1      49.723   8.457  13.867  0.00  0.00    +0.000 C 
BRANCH  22  24
ATOM     23  C   UNL     1      49.771   9.034  11.417  0.00  0.00    +0.000 C 
ATOM     24  C   UNL     1      50.274   8.081  12.489  0.00  0.00    +0.000 C 
ENDBRANCH  22  24
ENDBRANCH  21  22
ENDBRANCH   1  21
BRANCH   5  25
ATOM     25  O   UNL     1      44.763   9.855  12.585  0.00  0.00    +0.000 OA
BRANCH  25  26
ATOM     26  C   UNL     1      44.528  10.502  11.314  0.00  0.00    +0.000 C 
ATOM     27  C   UNL     1      44.392  12.038  11.299  0.00  0.00    +0.000 C 
ATOM     28  N   UNL     1      43.141  11.929  10.529  0.00  0.00    +0.000 NA
ATOM     29  C   UNL     1      43.056  10.496  10.850  0.00  0.00    +0.000 C 
ATOM     30  H   UNL     1      43.248  12.123   9.534  0.00  0.00    +0.000 HD
ENDBRANCH  25  26
ENDBRANCH   5  25
TORSDOF 9
ENDMDL
MODEL 4
REMARK VINA RESULT:    -6.792      3.724      7.947
REMARK INTER + INTRA:         -11.187
REMARK INTER:                 -10.265
REMARK INTRA:                  -0.922
REMARK UNBOUND:                -0.822
REMARK  Name = 
REMARK  10 active torsions:
REMARK  status: ('A' for Active; 'I' for Inactive)
REMARK    1  A    between atoms: C_1  and  C_2
REMARK    2  A    between atoms: C_2  and  C_3
REMARK    3  A    between atoms: C_3  and  C_4
REMARK    4  A    between atoms: C_4  and  C_5
REMARK    5  A    between atoms: C_7  and  C_8
REMARK    6  A    between atoms: C_9  and  O_10
REMARK    7  A    between atoms: O_10  and  C_11
REMARK    8  A    between atoms: C_14  and  C_15
REMARK    9  A    between atoms: C_21  and  O_22
REMARK   10  A    between atoms: O_22  and  C_23
REMARK                            x       y       z     vdW  Elec       q    Type
REMARK                         _______ _______ _______ _____ _____    ______ ____
ROOT
ATOM      1  C   UNL     1      45.156   4.750  11.198  0.00  0.00    +0.000 A 
ATOM      2  C   UNL     1      45.529   3.992  12.318  0.00  0.00    +0.000 A 
ATOM      3  C   UNL     1      46.409   4.504  13.283  0.00  0.00    +0.000 A 
ATOM      4  C   UNL     1      46.906   5.808  13.125  0.00  0.00    +0.000 A 
ATOM      5  C   UNL     1      46.540   6.573  12.018  0.00  0.00    +0.000 A 
ATOM      6  C   UNL     1      45.679   6.042  11.059  0.00  0.00    +0.000 A 
ENDROOT
BRANCH   3   7
ATOM      7  C   UNL     1      46.833   3.731  14.460  0.00  0.00    +0.000 C 
ATOM      8  C   UNL     1      46.958   4.234  15.692  0.00  0.00    +0.000 C 
BRANCH   8   9
ATOM      9  O   UNL     1      47.266   3.443  16.776  0.00  0.00    +0.000 OA
BRANCH   9  10
ATOM     10  C   UNL     1      48.596   3.249  17.076  0.00  0.00    +0.000 A 
ATOM     11  C   UNL     1      49.266   2.043  16.853  0.00  0.00    +0.000 A 
ATOM     12  C   UNL     1      50.616   1.923  17.183  0.00  0.00    +0.000 A 
ATOM     13  C   UNL     1      51.317   3.018  17.702  0.00  0.00    +0.000 A 
ATOM     14  C   UNL     1      50.655   4.238  17.891  0.00  0.00    +0.000 A 
ATOM     15  C   UNL     1      49.296   4.351  17.574  0.00  0.00    +0.000 A 
BRANCH  13  16
ATOM     16  C   UNL     1      52.746   2.821  18.059  0.00  0.00    +0.000 C 
ATOM     17  N   UNL     1      53.114   1.601  18.549  0.00  0.00    +0.000 N 
ATOM     18  O   UNL     1      53.563   3.727  17.951  0.00  0.00    +0.000 OA
ATOM     19  H   UNL     1      52.448   0.915  18.871  0.00  0.00    +0.000 HD
ATOM     20  H   UNL     1      54.068   1.525  18.882  0.00  0.00    +0.000 HD
ENDBRANCH  13  16
ENDBRANCH   9  10
ENDBRANCH   8   9
ENDBRANCH   3   7
BRANCH   1  21
ATOM     21  C   UNL     1      44.241   4.184  10.140  0.00  0.00    +0.000 C 
BRANCH  21  22
ATOM     22  C   UNL     1      44.779   4.275   8.708  0.00  0.00    +0.000 C 
BRANCH  22  24
ATOM     23  C   UNL     1      46.268   3.245   6.958  0.00  0.00    +0.000 C 
ATOM     24  C   UNL     1      45.545   3.023   8.277  0.00  0.00    +0.000 C 
ENDBRANCH  22  24
ENDBRANCH  21  22
ENDBRANCH   1  21
BRANCH   5  25
ATOM     25  O   UNL     1      47.002   7.838  11.751  0.00  0.00    +0.000 OA
BRANCH  25  26
ATOM     26  C   UNL     1      46.512   8.947  12.538  0.00  0.00    +0.000 C 
ATOM     27  C   UNL     1      45.131   9.533  12.180  0.00  0.00    +0.000 C 
ATOM     28  N   UNL     1      45.704  10.890  12.153  0.00  0.00    +0.000 NA
ATOM     29  C   UNL     1      47.063  10.326  12.121  0.00  0.00    +0.000 C 
ATOM     30  H   UNL     1      45.506  11.442  12.987  0.00  0.00    +0.000 HD
ENDBRANCH  25  26
ENDBRANCH   5  25
TORSDOF 9
ENDMDL
MODEL 5
REMARK VINA RESULT:    -6.561      3.128      4.322
REMARK INTER + INTRA:         -10.834
REMARK INTER:                  -9.801
REMARK INTRA:                  -1.033
REMARK UNBOUND:                -0.822
REMARK  Name = 
REMARK  10 active torsions:
REMARK  status: ('A' for Active; 'I' for Inactive)
REMARK    1  A    between atoms: C_1  and  C_2
REMARK    2  A    between atoms: C_2  and  C_3
REMARK    3  A    between atoms: C_3  and  C_4
REMARK    4  A    between atoms: C_4  and  C_5
REMARK    5  A    between atoms: C_7  and  C_8
REMARK    6  A    between atoms: C_9  and  O_10
REMARK    7  A    between atoms: O_10  and  C_11
REMARK    8  A    between atoms: C_14  and  C_15
REMARK    9  A    between atoms: C_21  and  O_22
REMARK   10  A    between atoms: O_22  and  C_23
REMARK                            x       y       z     vdW  Elec       q    Type
REMARK                         _______ _______ _______ _____ _____    ______ ____
ROOT
ATOM      1  C   UNL     1      48.274   6.498  14.246  0.00  0.00    +0.000 A 
ATOM      2  C   UNL     1      47.467   5.920  13.254  0.00  0.00    +0.000 A 
ATOM      3  C   UNL     1      46.711   4.767  13.513  0.00  0.00    +0.000 A 
ATOM      4  C   UNL     1      46.755   4.199  14.796  0.00  0.00    +0.000 A 
ATOM      5  C   UNL     1      47.549   4.767  15.791  0.00  0.00    +0.000 A 
ATOM      6  C   UNL     1      48.310   5.902  15.512  0.00  0.00    +0.000 A 
ENDROOT
BRANCH   3   7
ATOM      7  C   UNL     1      45.867   4.126  12.492  0.00  0.00    +0.000 C 
ATOM      8  C   UNL     1      44.877   4.738  11.834  0.00  0.00    +0.000 C 
BRANCH   8   9
ATOM      9  O   UNL     1      44.182   4.118  10.821  0.00  0.00    +0.000 OA
BRANCH   9  10
ATOM     10  C   UNL     1      44.886   3.713   9.708  0.00  0.00    +0.000 A 
ATOM     11  C   UNL     1      45.477   4.602   8.807  0.00  0.00    +0.000 A 
ATOM     12  C   UNL     1      46.176   4.116   7.703  0.00  0.00    +0.000 A 
ATOM     13  C   UNL     1      46.324   2.737   7.511  0.00  0.00    +0.000 A 
ATOM     14  C   UNL     1      45.763   1.845   8.434  0.00  0.00    +0.000 A 
ATOM     15  C   UNL     1      45.048   2.336   9.533  0.00  0.00    +0.000 A 
BRANCH  13  16
ATOM     16  C   UNL     1      47.055   2.279   6.301  0.00  0.00    +0.000 C 
ATOM     17  N   UNL     1      48.146   1.477   6.486  0.00  0.00    +0.000 N 
ATOM     18  O   UNL     1      46.718   2.630   5.178  0.00  0.00    +0.000 OA
ATOM     19  H   UNL     1      48.592   1.357   7.383  0.00  0.00    +0.000 HD
ATOM     20  H   UNL     1      48.687   1.265   5.657  0.00  0.00    +0.000 HD
ENDBRANCH  13  16
ENDBRANCH   9  10
ENDBRANCH   8   9
ENDBRANCH   3   7
BRANCH   1  21
ATOM     21  C   UNL     1      49.119   7.715  13.956  0.00  0.00    +0.000 C 
BRANCH  21  22
ATOM     22  C   UNL     1      48.419   9.057  14.199  0.00  0.00    +0.000 C 
BRANCH  22  24
ATOM     23  C   UNL     1      49.979   9.402  16.144  0.00  0.00    +0.000 C 
ATOM     24  C   UNL     1      48.552   9.547  15.642  0.00  0.00    +0.000 C 
ENDBRANCH  22  24
ENDBRANCH  21  22
ENDBRANCH   1  21
BRANCH   5  25
ATOM     25  O   UNL     1      47.694   4.265  17.061  0.00  0.00    +0.000 OA
BRANCH  25  26
ATOM     26  C   UNL     1      48.117   5.151  18.122  0.00  0.00    +0.000 C 
ATOM     27  C   UNL     1      48.622   4.516  19.435  0.00  0.00    +0.000 C 
ATOM     28  N   UNL     1      47.714   5.378  20.211  0.00  0.00    +0.000 NA
ATOM     29  C   UNL     1      46.971   5.715  18.987  0.00  0.00    +0.000 C 
ATOM     30  H   UNL     1      48.172   6.177  20.649  0.00  0.00    +0.000 HD
ENDBRANCH  25  26
ENDBRANCH   5  25
TORSDOF 9
ENDMDL
MODEL 6
REMARK VINA RESULT:    -6.517      2.260      4.975
REMARK INTER + INTRA:         -10.767
REMARK INTER:                 -10.133
REMARK INTRA:                  -0.635
REMARK UNBOUND:                -0.822
REMARK  Name = 
REMARK  10 active torsions:
REMARK  status: ('A' for Active; 'I' for Inactive)
REMARK    1  A    between atoms: C_1  and  C_2
REMARK    2  A    between atoms: C_2  and  C_3
REMARK    3  A    between atoms: C_3  and  C_4
REMARK    4  A    between atoms: C_4  and  C_5
REMARK    5  A    between atoms: C_7  and  C_8
REMARK    6  A    between atoms: C_9  and  O_10
REMARK    7  A    between atoms: O_10  and  C_11
REMARK    8  A    between atoms: C_14  and  C_15
REMARK    9  A    between atoms: C_21  and  O_22
REMARK   10  A    between atoms: O_22  and  C_23
REMARK                            x       y       z     vdW  Elec       q    Type
REMARK                         _______ _______ _______ _____ _____    ______ ____
ROOT
ATOM      1  C   UNL     1      47.580   7.024  13.729  0.00  0.00    +0.000 A 
ATOM      2  C   UNL     1      47.093   5.935  12.990  0.00  0.00    +0.000 A 
ATOM      3  C   UNL     1      45.942   6.051  12.196  0.00  0.00    +0.000 A 
ATOM      4  C   UNL     1      45.283   7.289  12.132  0.00  0.00    +0.000 A 
ATOM      5  C   UNL     1      45.759   8.380  12.859  0.00  0.00    +0.000 A 
ATOM      6  C   UNL     1      46.894   8.242  13.658  0.00  0.00    +0.000 A 
ENDROOT
BRANCH   3   7
ATOM      7  C   UNL     1      45.396   4.926  11.421  0.00  0.00    +0.000 C 
ATOM      8  C   UNL     1      44.332   5.007  10.615  0.00  0.00    +0.000 C 
BRANCH   8   9
ATOM      9  O   UNL     1      43.922   3.946   9.840  0.00  0.00    +0.000 OA
BRANCH   9  10
ATOM     10  C   UNL     1      44.828   3.402   8.957  0.00  0.00    +0.000 A 
ATOM     11  C   UNL     1      45.503   4.152   7.990  0.00  0.00    +0.000 A 
ATOM     12  C   UNL     1      46.408   3.530   7.131  0.00  0.00    +0.000 A 
ATOM     13  C   UNL     1      46.676   2.161   7.256  0.00  0.00    +0.000 A 
ATOM     14  C   UNL     1      46.028   1.417   8.250  0.00  0.00    +0.000 A 
ATOM     15  C   UNL     1      45.107   2.041   9.101  0.00  0.00    +0.000 A 
BRANCH  13  16
ATOM     16  C   UNL     1      47.630   1.550   6.295  0.00  0.00    +0.000 C 
ATOM     17  N   UNL     1      47.239   0.410   5.652  0.00  0.00    +0.000 N 
ATOM     18  O   UNL     1      48.741   2.028   6.104  0.00  0.00    +0.000 OA
ATOM     19  H   UNL     1      46.445  -0.139   5.944  0.00  0.00    +0.000 HD
ATOM     20  H   UNL     1      47.943  -0.043   5.083  0.00  0.00    +0.000 HD
ENDBRANCH  13  16
ENDBRANCH   9  10
ENDBRANCH   8   9
ENDBRANCH   3   7
BRANCH   1  21
ATOM     21  C   UNL     1      48.794   6.887  14.615  0.00  0.00    +0.000 C 
BRANCH  21  22
ATOM     22  C   UNL     1      48.530   6.226  15.972  0.00  0.00    +0.000 C 
BRANCH  22  24
ATOM     23  C   UNL     1      47.386   4.362  17.219  0.00  0.00    +0.000 C 
ATOM     24  C   UNL     1      47.781   4.897  15.852  0.00  0.00    +0.000 C 
ENDBRANCH  22  24
ENDBRANCH  21  22
ENDBRANCH   1  21
BRANCH   5  25
ATOM     25  O   UNL     1      45.165   9.617  12.898  0.00  0.00    +0.000 OA
BRANCH  25  26
ATOM     26  C   UNL     1      44.987  10.351  11.665  0.00  0.00    +0.000 C 
ATOM     27  C   UNL     1      45.193  11.879  11.698  0.00  0.00    +0.000 C 
ATOM     28  N   UNL     1      43.897  12.078  11.027  0.00  0.00    +0.000 NA
ATOM     29  C   UNL     1      43.521  10.686  11.320  0.00  0.00    +0.000 C 
ATOM     30  H   UNL     1      43.971  12.284  10.031  0.00  0.00    +0.000 HD
ENDBRANCH  25  26
ENDBRANCH   5  25
TORSDOF 9
ENDMDL
MODEL 7
REMARK VINA RESULT:    -6.508      4.052      8.386
REMARK INTER + INTRA:         -10.753
REMARK INTER:                 -10.167
REMARK INTRA:                  -0.586
REMARK UNBOUND:                -0.822
REMARK  Name = 
REMARK  10 active torsions:
REMARK  status: ('A' for Active; 'I' for Inactive)
REMARK    1  A    between atoms: C_1  and  C_2
REMARK    2  A    between atoms: C_2  and  C_3
REMARK    3  A    between atoms: C_3  and  C_4
REMARK    4  A    between atoms: C_4  and  C_5
REMARK    5  A    between atoms: C_7  and  C_8
REMARK    6  A    between atoms: C_9  and  O_10
REMARK    7  A    between atoms: O_10  and  C_11
REMARK    8  A    between atoms: C_14  and  C_15
REMARK    9  A    between atoms: C_21  and  O_22
REMARK   10  A    between atoms: O_22  and  C_23
REMARK                            x       y       z     vdW  Elec       q    Type
REMARK                         _______ _______ _______ _____ _____    ______ ____
ROOT
ATOM      1  C   UNL     1      47.156   6.590  12.110  0.00  0.00    +0.000 A 
ATOM      2  C   UNL     1      47.553   5.843  13.229  0.00  0.00    +0.000 A 
ATOM      3  C   UNL     1      46.666   4.964  13.868  0.00  0.00    +0.000 A 
ATOM      4  C   UNL     1      45.366   4.822  13.360  0.00  0.00    +0.000 A 
ATOM      5  C   UNL     1      44.960   5.555  12.246  0.00  0.00    +0.000 A 
ATOM      6  C   UNL     1      45.848   6.440  11.633  0.00  0.00    +0.000 A 
ENDROOT
BRANCH   3   7
ATOM      7  C   UNL     1      47.045   4.178  15.053  0.00  0.00    +0.000 C 
ATOM      8  C   UNL     1      47.691   4.671  16.115  0.00  0.00    +0.000 C 
BRANCH   8   9
ATOM      9  O   UNL     1      47.935   3.912  17.237  0.00  0.00    +0.000 OA
BRANCH   9  10
ATOM     10  C   UNL     1      49.204   3.404  17.409  0.00  0.00    +0.000 A 
ATOM     11  C   UNL     1      49.577   2.118  17.009  0.00  0.00    +0.000 A 
ATOM     12  C   UNL     1      50.883   1.674  17.216  0.00  0.00    +0.000 A 
ATOM     13  C   UNL     1      51.836   2.524  17.790  0.00  0.00    +0.000 A 
ATOM     14  C   UNL     1      51.471   3.826  18.158  0.00  0.00    +0.000 A 
ATOM     15  C   UNL     1      50.156   4.264  17.963  0.00  0.00    +0.000 A 
BRANCH  13  16
ATOM     16  C   UNL     1      53.203   1.986  18.010  0.00  0.00    +0.000 C 
ATOM     17  N   UNL     1      54.259   2.750  17.603  0.00  0.00    +0.000 N 
ATOM     18  O   UNL     1      53.384   0.882  18.510  0.00  0.00    +0.000 OA
ATOM     19  H   UNL     1      54.157   3.542  16.986  0.00  0.00    +0.000 HD
ATOM     20  H   UNL     1      55.172   2.318  17.668  0.00  0.00    +0.000 HD
ENDBRANCH  13  16
ENDBRANCH   9  10
ENDBRANCH   8   9
ENDBRANCH   3   7
BRANCH   1  21
ATOM     21  C   UNL     1      48.097   7.566  11.447  0.00  0.00    +0.000 C 
BRANCH  21  22
ATOM     22  C   UNL     1      49.530   7.547  11.988  0.00  0.00    +0.000 C 
BRANCH  22  24
ATOM     23  C   UNL     1      49.540  10.008  11.454  0.00  0.00    +0.000 C 
ATOM     24  C   UNL     1      50.367   8.733  11.504  0.00  0.00    +0.000 C 
ENDBRANCH  22  24
ENDBRANCH  21  22
ENDBRANCH   1  21
BRANCH   5  25
ATOM     25  O   UNL     1      43.701   5.520  11.699  0.00  0.00    +0.000 OA
BRANCH  25  26
ATOM     26  C   UNL     1      43.292   4.354  10.949  0.00  0.00    +0.000 C 
ATOM     27  C   UNL     1      43.289   2.993  11.675  0.00  0.00    +0.000 C 
ATOM     28  N   UNL     1      44.067   2.394  10.577  0.00  0.00    +0.000 NA
ATOM     29  C   UNL     1      44.396   3.735  10.067  0.00  0.00    +0.000 C 
ATOM     30  H   UNL     1      43.512   1.833   9.932  0.00  0.00    +0.000 HD
ENDBRANCH  25  26
ENDBRANCH   5  25
TORSDOF 9
ENDMDL
MODEL 8
REMARK VINA RESULT:    -6.428      3.603      8.418
REMARK INTER + INTRA:         -10.632
REMARK INTER:                  -9.726
REMARK INTRA:                  -0.907
REMARK UNBOUND:                -0.822
REMARK  Name = 
REMARK  10 active torsions:
REMARK  status: ('A' for Active; 'I' for Inactive)
REMARK    1  A    between atoms: C_1  and  C_2
REMARK    2  A    between atoms: C_2  and  C_3
REMARK    3  A    between atoms: C_3  and  C_4
REMARK    4  A    between atoms: C_4  and  C_5
REMARK    5  A    between atoms: C_7  and  C_8
REMARK    6  A    between atoms: C_9  and  O_10
REMARK    7  A    between atoms: O_10  and  C_11
REMARK    8  A    between atoms: C_14  and  C_15
REMARK    9  A    between atoms: C_21  and  O_22
REMARK   10  A    between atoms: O_22  and  C_23
REMARK                            x       y       z     vdW  Elec       q    Type
REMARK                         _______ _______ _______ _____ _____    ______ ____
ROOT
ATOM      1  C   UNL     1      44.603   4.371   9.998  0.00  0.00    +0.000 A 
ATOM      2  C   UNL     1      45.246   3.548  10.936  0.00  0.00    +0.000 A 
ATOM      3  C   UNL     1      45.504   3.997  12.240  0.00  0.00    +0.000 A 
ATOM      4  C   UNL     1      45.091   5.287  12.609  0.00  0.00    +0.000 A 
ATOM      5  C   UNL     1      44.448   6.112  11.687  0.00  0.00    +0.000 A 
ATOM      6  C   UNL     1      44.216   5.658  10.389  0.00  0.00    +0.000 A 
ENDROOT
BRANCH   3   7
ATOM      7  C   UNL     1      46.190   3.168  13.243  0.00  0.00    +0.000 C 
ATOM      8  C   UNL     1      47.209   3.584  14.002  0.00  0.00    +0.000 C 
BRANCH   8   9
ATOM      9  O   UNL     1      47.751   2.795  14.992  0.00  0.00    +0.000 OA
BRANCH   9  10
ATOM     10  C   UNL     1      47.903   3.346  16.245  0.00  0.00    +0.000 A 
ATOM     11  C   UNL     1      47.128   4.409  16.717  0.00  0.00    +0.000 A 
ATOM     12  C   UNL     1      47.342   4.912  18.000  0.00  0.00    +0.000 A 
ATOM     13  C   UNL     1      48.304   4.334  18.836  0.00  0.00    +0.000 A 
ATOM     14  C   UNL     1      49.056   3.245  18.376  0.00  0.00    +0.000 A 
ATOM     15  C   UNL     1      48.851   2.751  17.082  0.00  0.00    +0.000 A 
BRANCH  13  16
ATOM     16  C   UNL     1      48.504   4.932  20.181  0.00  0.00    +0.000 C 
ATOM     17  N   UNL     1      48.638   6.289  20.258  0.00  0.00    +0.000 N 
ATOM     18  O   UNL     1      48.579   4.236  21.186  0.00  0.00    +0.000 OA
ATOM     19  H   UNL     1      48.815   6.869  19.452  0.00  0.00    +0.000 HD
ATOM     20  H   UNL     1      48.877   6.660  21.169  0.00  0.00    +0.000 HD
ENDBRANCH  13  16
ENDBRANCH   9  10
ENDBRANCH   8   9
ENDBRANCH   3   7
BRANCH   1  21
ATOM     21  C   UNL     1      44.362   3.903   8.584  0.00  0.00    +0.000 C 
BRANCH  21  22
ATOM     22  C   UNL     1      45.423   2.943   8.034  0.00  0.00    +0.000 C 
BRANCH  22  24
ATOM     23  C   UNL     1      46.942   2.733   6.036  0.00  0.00    +0.000 C 
ATOM     24  C   UNL     1      46.463   3.643   7.156  0.00  0.00    +0.000 C 
ENDBRANCH  22  24
ENDBRANCH  21  22
ENDBRANCH   1  21
BRANCH   5  25
ATOM     25  O   UNL     1      44.044   7.401  11.935  0.00  0.00    +0.000 OA
BRANCH  25  26
ATOM     26  C   UNL     1      44.937   8.492  11.615  0.00  0.00    +0.000 C 
ATOM     27  C   UNL     1      45.731   9.138  12.768  0.00  0.00    +0.000 C 
ATOM     28  N   UNL     1      45.290  10.475  12.336  0.00  0.00    +0.000 NA
ATOM     29  C   UNL     1      44.253   9.869  11.486  0.00  0.00    +0.000 C 
ATOM     30  H   UNL     1      45.995  10.998  11.816  0.00  0.00    +0.000 HD
ENDBRANCH  25  26
ENDBRANCH   5  25
TORSDOF 9
ENDMDL
MODEL 9
REMARK VINA RESULT:    -6.303      3.736      7.806
REMARK INTER + INTRA:         -10.442
REMARK INTER:                  -9.849
REMARK INTRA:                  -0.593
REMARK UNBOUND:                -0.822
REMARK  Name = 
REMARK  10 active torsions:
REMARK  status: ('A' for Active; 'I' for Inactive)
REMARK    1  A    between atoms: C_1  and  C_2
REMARK    2  A    between atoms: C_2  and  C_3
REMARK    3  A    between atoms: C_3  and  C_4
REMARK    4  A    between atoms: C_4  and  C_5
REMARK    5  A    between atoms: C_7  and  C_8
REMARK    6  A    between atoms: C_9  and  O_10
REMARK    7  A    between atoms: O_10  and  C_11
REMARK    8  A    between atoms: C_14  and  C_15
REMARK    9  A    between atoms: C_21  and  O_22
REMARK   10  A    between atoms: O_22  and  C_23
REMARK                            x       y       z     vdW  Elec       q    Type
REMARK                         _______ _______ _______ _____ _____    ______ ____
ROOT
ATOM      1  C   UNL     1      46.419   7.431  12.688  0.00  0.00    +0.000 A 
ATOM      2  C   UNL     1      46.808   6.522  13.685  0.00  0.00    +0.000 A 
ATOM      3  C   UNL     1      46.685   5.138  13.493  0.00  0.00    +0.000 A 
ATOM      4  C   UNL     1      46.180   4.662  12.272  0.00  0.00    +0.000 A 
ATOM      5  C   UNL     1      45.795   5.555  11.273  0.00  0.00    +0.000 A 
ATOM      6  C   UNL     1      45.905   6.929  11.487  0.00  0.00    +0.000 A 
ENDROOT
BRANCH   3   7
ATOM      7  C   UNL     1      47.068   4.158  14.522  0.00  0.00    +0.000 C 
ATOM      8  C   UNL     1      46.974   4.367  15.839  0.00  0.00    +0.000 C 
BRANCH   8   9
ATOM      9  O   UNL     1      47.257   3.379  16.755  0.00  0.00    +0.000 OA
BRANCH   9  10
ATOM     10  C   UNL     1      48.579   3.139  17.059  0.00  0.00    +0.000 A 
ATOM     11  C   UNL     1      49.268   1.998  16.640  0.00  0.00    +0.000 A 
ATOM     12  C   UNL     1      50.608   1.825  16.986  0.00  0.00    +0.000 A 
ATOM     13  C   UNL     1      51.281   2.808  17.721  0.00  0.00    +0.000 A 
ATOM     14  C   UNL     1      50.600   3.969  18.110  0.00  0.00    +0.000 A 
ATOM     15  C   UNL     1      49.251   4.133  17.774  0.00  0.00    +0.000 A 
BRANCH  13  16
ATOM     16  C   UNL     1      52.700   2.555  18.083  0.00  0.00    +0.000 C 
ATOM     17  N   UNL     1      53.023   1.312  18.547  0.00  0.00    +0.000 N 
ATOM     18  O   UNL     1      53.548   3.434  18.000  0.00  0.00    +0.000 OA
ATOM     19  H   UNL     1      52.332   0.643  18.849  0.00  0.00    +0.000 HD
ATOM     20  H   UNL     1      53.971   1.197  18.885  0.00  0.00    +0.000 HD
ENDBRANCH  13  16
ENDBRANCH   9  10
ENDBRANCH   8   9
ENDBRANCH   3   7
BRANCH   1  21
ATOM     21  C   UNL     1      46.513   8.921  12.910  0.00  0.00    +0.000 C 
BRANCH  21  22
ATOM     22  C   UNL     1      46.054   9.778  11.724  0.00  0.00    +0.000 C 
BRANCH  22  24
ATOM     23  C   UNL     1      43.735  10.015  10.774  0.00  0.00    +0.000 C 
ATOM     24  C   UNL     1      44.661  10.377  11.924  0.00  0.00    +0.000 C 
ENDBRANCH  22  24
ENDBRANCH  21  22
ENDBRANCH   1  21
BRANCH   5  25
ATOM     25  O   UNL     1      45.252   5.195  10.065  0.00  0.00    +0.000 OA
BRANCH  25  26
ATOM     26  C   UNL     1      43.977   4.514  10.042  0.00  0.00    +0.000 C 
ATOM     27  C   UNL     1      43.047   4.679  11.262  0.00  0.00    +0.000 C 
ATOM     28  N   UNL     1      42.882   3.218  11.345  0.00  0.00    +0.000 NA
ATOM     29  C   UNL     1      44.032   3.027  10.447  0.00  0.00    +0.000 C 
ATOM     30  H   UNL     1      42.000   2.877  10.964  0.00  0.00    +0.000 HD
ENDBRANCH  25  26
ENDBRANCH   5  25
TORSDOF 9
ENDMDL
