MODEL 1
REMARK VINA RESULT:    -6.749      0.000      0.000
REMARK INTER + INTRA:         -10.365
REMARK INTER:                  -8.919
REMARK INTRA:                  -1.447
REMARK UNBOUND:                -1.447
REMARK  Name = 
REMARK  6 active torsions:
REMARK  status: ('A' for Active; 'I' for Inactive)
REMARK    1  A    between atoms: N_1  and  S_2
REMARK    2  A    between atoms: S_2  and  C_5
REMARK    3  A    between atoms: C_10  and  N_11
REMARK    4  A    between atoms: N_11  and  C_12
REMARK    5  A    between atoms: C_12  and  C_13
REMARK    6  A    between atoms: C_17  and  C_18
REMARK                            x       y       z     vdW  Elec       q    Type
REMARK                         _______ _______ _______ _____ _____    ______ ____
ROOT
ATOM      1  N   UNL     1      48.568   6.302  14.684  0.00  0.00    +0.000 N 
ATOM      2  H   UNL     1      49.322   5.757  14.249  0.00  0.00    +0.000 HD
ENDROOT
BRANCH   1   8
ATOM      3  C   UNL     1      48.208   5.264  16.936  0.00  0.00    +0.000 A 
ATOM      4  C   UNL     1      48.300   5.367  18.341  0.00  0.00    +0.000 A 
ATOM      5  C   UNL     1      48.822   6.506  18.943  0.00  0.00    +0.000 A 
ATOM      6  C   UNL     1      49.228   7.563  18.147  0.00  0.00    +0.000 A 
ATOM      7  C   UNL     1      49.118   7.470  16.758  0.00  0.00    +0.000 A 
ATOM      8  C   UNL     1      48.662   6.306  16.099  0.00  0.00    +0.000 A 
BRANCH   3   9
ATOM      9  S   UNL     1      47.630   3.703  16.327  0.00  0.00    +0.000 S 
ATOM     10  O   UNL     1      48.732   2.775  16.265  0.00  0.00    +0.000 OA
ATOM     11  O   UNL     1      46.762   3.913  15.191  0.00  0.00    +0.000 OA
BRANCH   9  12
ATOM     12  N   UNL     1      46.642   3.152  17.570  0.00  0.00    +0.000 NA
ATOM     13  H   UNL     1      47.031   2.297  17.968  0.00  0.00    +0.000 HD
ATOM     14  H   UNL     1      45.684   3.054  17.232  0.00  0.00    +0.000 HD
ENDBRANCH   9  12
ENDBRANCH   3   9
ENDBRANCH   1   8
BRANCH   1  15
ATOM     15  C   UNL     1      48.453   7.628  14.065  0.00  0.00    +0.000 C 
BRANCH  15  16
ATOM     16  C   UNL     1      47.258   7.778  13.164  0.00  0.00    +0.000 A 
ATOM     17  C   UNL     1      46.783   9.038  12.796  0.00  0.00    +0.000 A 
ATOM     18  C   UNL     1      45.570   9.157  12.119  0.00  0.00    +0.000 A 
ATOM     19  C   UNL     1      44.862   8.019  11.736  0.00  0.00    +0.000 A 
ATOM     20  C   UNL     1      45.392   6.743  11.962  0.00  0.00    +0.000 A 
ATOM     21  C   UNL     1      46.557   6.639  12.742  0.00  0.00    +0.000 A 
BRANCH  20  22
ATOM     22  C   UNL     1      44.934   5.500  11.202  0.00  0.00    +0.000 C 
ATOM     23  C   UNL     1      43.393   5.553  11.127  0.00  0.00    +0.000 C 
ATOM     24  C   UNL     1      42.772   5.225  12.485  0.00  0.00    +0.000 C 
ATOM     25  C   UNL     1      43.281   3.890  13.030  0.00  0.00    +0.000 C 
ATOM     26  N   UNL     1      44.737   3.758  13.028  0.00  0.00    +0.000 NA
ATOM     27  C   UNL     1      45.345   4.112  11.741  0.00  0.00    +0.000 C 
ATOM     28  H   UNL     1      44.998   2.806  13.283  0.00  0.00    +0.000 HD
ENDBRANCH  20  22
ENDBRANCH  15  16
ENDBRANCH   1  15
TORSDOF 6
ENDMDL
MODEL 2
REMARK VINA RESULT:    -6.734      3.794      7.071
REMARK INTER + INTRA:         -10.346
REMARK INTER:                  -9.377
REMARK INTRA:                  -0.969
REMARK UNBOUND:                -1.447
REMARK  Name = 
REMARK  6 active torsions:
REMARK  status: ('A' for Active; 'I' for Inactive)
REMARK    1  A    between atoms: N_1  and  S_2
REMARK    2  A    between atoms: S_2  and  C_5
REMARK    3  A    between atoms: C_10  and  N_11
REMARK    4  A    between atoms: N_11  and  C_12
REMARK    5  A    between atoms: C_12  and  C_13
REMARK    6  A    between atoms: C_17  and  C_18
REMARK                            x       y       z     vdW  Elec       q    Type
REMARK                         _______ _______ _______ _____ _____    ______ ____
ROOT
ATOM      1  N   UNL     1      45.002   5.895  10.657  0.00  0.00    +0.000 N 
ATOM      2  H   UNL     1      44.903   6.742  10.083  0.00  0.00    +0.000 HD
ENDROOT
BRANCH   1   8
ATOM      3  C   UNL     1      44.620   3.453  10.252  0.00  0.00    +0.000 A 
ATOM      4  C   UNL     1      44.793   2.325   9.419  0.00  0.00    +0.000 A 
ATOM      5  C   UNL     1      45.456   2.430   8.202  0.00  0.00    +0.000 A 
ATOM      6  C   UNL     1      45.977   3.654   7.821  0.00  0.00    +0.000 A 
ATOM      7  C   UNL     1      45.824   4.765   8.654  0.00  0.00    +0.000 A 
ATOM      8  C   UNL     1      45.095   4.723   9.864  0.00  0.00    +0.000 A 
BRANCH   3   9
ATOM      9  S   UNL     1      43.651   3.175  11.710  0.00  0.00    +0.000 S 
ATOM     10  O   UNL     1      44.473   3.377  12.877  0.00  0.00    +0.000 OA
ATOM     11  O   UNL     1      42.860   1.976  11.549  0.00  0.00    +0.000 OA
BRANCH   9  12
ATOM     12  N   UNL     1      42.563   4.455  11.694  0.00  0.00    +0.000 NA
ATOM     13  H   UNL     1      43.044   5.316  11.434  0.00  0.00    +0.000 HD
ATOM     14  H   UNL     1      42.076   4.507  12.590  0.00  0.00    +0.000 HD
ENDBRANCH   9  12
ENDBRANCH   3   9
ENDBRANCH   1   8
BRANCH   1  15
ATOM     15  C   UNL     1      46.066   6.058  11.655  0.00  0.00    +0.000 C 
BRANCH  15  16
ATOM     16  C   UNL     1      46.402   7.493  11.956  0.00  0.00    +0.000 A 
ATOM     17  C   UNL     1      45.434   8.496  11.875  0.00  0.00    +0.000 A 
ATOM     18  C   UNL     1      45.805   9.835  11.974  0.00  0.00    +0.000 A 
ATOM     19  C   UNL     1      47.131  10.183  12.232  0.00  0.00    +0.000 A 
ATOM     20  C   UNL     1      48.092   9.192  12.466  0.00  0.00    +0.000 A 
ATOM     21  C   UNL     1      47.726   7.852  12.252  0.00  0.00    +0.000 A 
BRANCH  20  22
ATOM     22  C   UNL     1      49.413   9.461  13.181  0.00  0.00    +0.000 C 
ATOM     23  C   UNL     1      50.154  10.551  12.377  0.00  0.00    +0.000 C 
ATOM     24  C   UNL     1      50.718   9.976  11.077  0.00  0.00    +0.000 C 
ATOM     25  C   UNL     1      51.593   8.749  11.335  0.00  0.00    +0.000 C 
ATOM     26  N   UNL     1      50.966   7.731  12.176  0.00  0.00    +0.000 NA
ATOM     27  C   UNL     1      50.384   8.281  13.406  0.00  0.00    +0.000 C 
ATOM     28  H   UNL     1      51.645   7.008  12.409  0.00  0.00    +0.000 HD
ENDBRANCH  20  22
ENDBRANCH  15  16
ENDBRANCH   1  15
TORSDOF 6
ENDMDL
MODEL 3
REMARK VINA RESULT:    -6.443      5.266      7.967
REMARK INTER + INTRA:          -9.962
REMARK INTER:                  -8.789
REMARK INTRA:                  -1.173
REMARK UNBOUND:                -1.447
REMARK  Name = 
REMARK  6 active torsions:
REMARK  status: ('A' for Active; 'I' for Inactive)
REMARK    1  A    between atoms: N_1  and  S_2
REMARK    2  A    between atoms: S_2  and  C_5
REMARK    3  A    between atoms: C_10  and  N_11
REMARK    4  A    between atoms: N_11  and  C_12
REMARK    5  A    between atoms: C_12  and  C_13
REMARK    6  A    between atoms: C_17  and  C_18
REMARK                            x       y       z     vdW  Elec       q    Type
REMARK                         _______ _______ _______ _____ _____    ______ ____
ROOT
ATOM      1  N   UNL     1      43.457   9.400  10.649  0.00  0.00    +0.000 N 
ATOM      2  H   UNL     1      42.669   9.019  11.187  0.00  0.00    +0.000 HD
ENDROOT
BRANCH   1   8
ATOM      3  C   UNL     1      41.876  11.210   9.946  0.00  0.00    +0.000 A 
ATOM      4  C   UNL     1      41.527  12.216   9.017  0.00  0.00    +0.000 A 
ATOM      5  C   UNL     1      42.326  12.475   7.910  0.00  0.00    +0.000 A 
ATOM      6  C   UNL     1      43.462  11.712   7.705  0.00  0.00    +0.000 A 
ATOM      7  C   UNL     1      43.796  10.704   8.612  0.00  0.00    +0.000 A 
ATOM      8  C   UNL     1      43.056  10.453   9.789  0.00  0.00    +0.000 A 
BRANCH   3   9
ATOM      9  S   UNL     1      40.816  11.088  11.361  0.00  0.00    +0.000 S 
ATOM     10  O   UNL     1      39.558  11.730  11.076  0.00  0.00    +0.000 OA
ATOM     11  O   UNL     1      41.563  11.401  12.559  0.00  0.00    +0.000 OA
BRANCH   9  12
ATOM     12  N   UNL     1      40.478   9.443  11.443  0.00  0.00    +0.000 NA
ATOM     13  H   UNL     1      40.083   9.216  12.355  0.00  0.00    +0.000 HD
ATOM     14  H   UNL     1      41.314   8.907  11.208  0.00  0.00    +0.000 HD
ENDBRANCH   9  12
ENDBRANCH   3   9
ENDBRANCH   1   8
BRANCH   1  15
ATOM     15  C   UNL     1      44.590   9.712  11.528  0.00  0.00    +0.000 C 
BRANCH  15  16
ATOM     16  C   UNL     1      45.399   8.508  11.929  0.00  0.00    +0.000 A 
ATOM     17  C   UNL     1      46.794   8.555  11.969  0.00  0.00    +0.000 A 
ATOM     18  C   UNL     1      47.527   7.385  12.159  0.00  0.00    +0.000 A 
ATOM     19  C   UNL     1      46.875   6.174  12.388  0.00  0.00    +0.000 A 
ATOM     20  C   UNL     1      45.481   6.128  12.500  0.00  0.00    +0.000 A 
ATOM     21  C   UNL     1      44.754   7.292  12.197  0.00  0.00    +0.000 A 
BRANCH  20  22
ATOM     22  C   UNL     1      44.734   4.982  13.179  0.00  0.00    +0.000 C 
ATOM     23  C   UNL     1      45.363   3.666  12.676  0.00  0.00    +0.000 C 
ATOM     24  C   UNL     1      44.945   3.381  11.233  0.00  0.00    +0.000 C 
ATOM     25  C   UNL     1      43.424   3.395  11.073  0.00  0.00    +0.000 C 
ATOM     26  N   UNL     1      42.774   4.583  11.625  0.00  0.00    +0.000 NA
ATOM     27  C   UNL     1      43.203   4.888  12.995  0.00  0.00    +0.000 C 
ATOM     28  H   UNL     1      41.762   4.468  11.597  0.00  0.00    +0.000 HD
ENDBRANCH  20  22
ENDBRANCH  15  16
ENDBRANCH   1  15
TORSDOF 6
ENDMDL
MODEL 4
REMARK VINA RESULT:    -6.437      2.561      6.937
REMARK INTER + INTRA:          -9.954
REMARK INTER:                  -8.660
REMARK INTRA:                  -1.293
REMARK UNBOUND:                -1.447
REMARK  Name = 
REMARK  6 active torsions:
REMARK  status: ('A' for Active; 'I' for Inactive)
REMARK    1  A    between atoms: N_1  and  S_2
REMARK    2  A    between atoms: S_2  and  C_5
REMARK    3  A    between atoms: C_10  and  N_11
REMARK    4  A    between atoms: N_11  and  C_12
REMARK    5  A    between atoms: C_12  and  C_13
REMARK    6  A    between atoms: C_17  and  C_18
REMARK                            x       y       z     vdW  Elec       q    Type
REMARK                         _______ _______ _______ _____ _____    ______ ____
ROOT
ATOM      1  N   UNL     1      45.980   4.643  14.495  0.00  0.00    +0.000 N 
ATOM      2  H   UNL     1      45.834   5.309  15.263  0.00  0.00    +0.000 HD
ENDROOT
BRANCH   1   8
ATOM      3  C   UNL     1      45.159   5.069  12.167  0.00  0.00    +0.000 A 
ATOM      4  C   UNL     1      45.329   5.724  10.927  0.00  0.00    +0.000 A 
ATOM      5  C   UNL     1      46.393   6.593  10.718  0.00  0.00    +0.000 A 
ATOM      6  C   UNL     1      47.313   6.790  11.732  0.00  0.00    +0.000 A 
ATOM      7  C   UNL     1      47.158   6.125  12.951  0.00  0.00    +0.000 A 
ATOM      8  C   UNL     1      46.053   5.291  13.236  0.00  0.00    +0.000 A 
BRANCH   3   9
ATOM      9  S   UNL     1      43.689   4.090  12.310  0.00  0.00    +0.000 S 
ATOM     10  O   UNL     1      44.007   2.836  12.945  0.00  0.00    +0.000 OA
ATOM     11  O   UNL     1      42.950   4.135  11.068  0.00  0.00    +0.000 OA
BRANCH   9  12
ATOM     12  N   UNL     1      42.769   4.944  13.427  0.00  0.00    +0.000 NA
ATOM     13  H   UNL     1      43.369   5.296  14.173  0.00  0.00    +0.000 HD
ATOM     14  H   UNL     1      41.997   4.363  13.756  0.00  0.00    +0.000 HD
ENDBRANCH   9  12
ENDBRANCH   3   9
ENDBRANCH   1   8
BRANCH   1  15
ATOM     15  C   UNL     1      47.094   3.734  14.792  0.00  0.00    +0.000 C 
BRANCH  15  16
ATOM     16  C   UNL     1      47.729   3.969  16.136  0.00  0.00    +0.000 A 
ATOM     17  C   UNL     1      47.849   2.937  17.068  0.00  0.00    +0.000 A 
ATOM     18  C   UNL     1      48.266   3.216  18.369  0.00  0.00    +0.000 A 
ATOM     19  C   UNL     1      48.640   4.511  18.727  0.00  0.00    +0.000 A 
ATOM     20  C   UNL     1      48.670   5.532  17.770  0.00  0.00    +0.000 A 
ATOM     21  C   UNL     1      48.143   5.260  16.495  0.00  0.00    +0.000 A 
BRANCH  20  22
ATOM     22  C   UNL     1      49.471   6.820  17.945  0.00  0.00    +0.000 C 
ATOM     23  C   UNL     1      49.294   7.271  19.411  0.00  0.00    +0.000 C 
ATOM     24  C   UNL     1      47.895   7.847  19.636  0.00  0.00    +0.000 C 
ATOM     25  C   UNL     1      47.578   8.964  18.642  0.00  0.00    +0.000 C 
ATOM     26  N   UNL     1      47.826   8.612  17.244  0.00  0.00    +0.000 NA
ATOM     27  C   UNL     1      49.150   8.020  17.026  0.00  0.00    +0.000 C 
ATOM     28  H   UNL     1      47.715   9.436  16.655  0.00  0.00    +0.000 HD
ENDBRANCH  20  22
ENDBRANCH  15  16
ENDBRANCH   1  15
TORSDOF 6
ENDMDL
MODEL 5
REMARK VINA RESULT:    -6.380      2.781      7.074
REMARK INTER + INTRA:          -9.878
REMARK INTER:                  -9.007
REMARK INTRA:                  -0.870
REMARK UNBOUND:                -1.447
REMARK  Name = 
REMARK  6 active torsions:
REMARK  status: ('A' for Active; 'I' for Inactive)
REMARK    1  A    between atoms: N_1  and  S_2
REMARK    2  A    between atoms: S_2  and  C_5
REMARK    3  A    between atoms: C_10  and  N_11
REMARK    4  A    between atoms: N_11  and  C_12
REMARK    5  A    between atoms: C_12  and  C_13
REMARK    6  A    between atoms: C_17  and  C_18
REMARK                            x       y       z     vdW  Elec       q    Type
REMARK                         _______ _______ _______ _____ _____    ______ ____
ROOT
ATOM      1  N   UNL     1      45.370   5.796  11.410  0.00  0.00    +0.000 N 
ATOM      2  H   UNL     1      45.515   6.762  11.091  0.00  0.00    +0.000 HD
ENDROOT
BRANCH   1   8
ATOM      3  C   UNL     1      44.536   3.666  10.390  0.00  0.00    +0.000 A 
ATOM      4  C   UNL     1      44.479   2.802   9.274  0.00  0.00    +0.000 A 
ATOM      5  C   UNL     1      45.121   3.128   8.084  0.00  0.00    +0.000 A 
ATOM      6  C   UNL     1      45.850   4.302   8.010  0.00  0.00    +0.000 A 
ATOM      7  C   UNL     1      45.923   5.146   9.121  0.00  0.00    +0.000 A 
ATOM      8  C   UNL     1      45.228   4.893  10.326  0.00  0.00    +0.000 A 
BRANCH   3   9
ATOM      9  S   UNL     1      43.567   3.161  11.786  0.00  0.00    +0.000 S 
ATOM     10  O   UNL     1      44.387   3.185  12.972  0.00  0.00    +0.000 OA
ATOM     11  O   UNL     1      42.781   1.998  11.440  0.00  0.00    +0.000 OA
BRANCH   9  12
ATOM     12  N   UNL     1      42.472   4.424  11.966  0.00  0.00    +0.000 NA
ATOM     13  H   UNL     1      41.523   4.083  11.818  0.00  0.00    +0.000 HD
ATOM     14  H   UNL     1      42.734   5.198  11.355  0.00  0.00    +0.000 HD
ENDBRANCH   9  12
ENDBRANCH   3   9
ENDBRANCH   1   8
BRANCH   1  15
ATOM     15  C   UNL     1      46.377   5.416  12.408  0.00  0.00    +0.000 C 
BRANCH  15  16
ATOM     16  C   UNL     1      47.416   6.474  12.657  0.00  0.00    +0.000 A 
ATOM     17  C   UNL     1      47.884   7.287  11.622  0.00  0.00    +0.000 A 
ATOM     18  C   UNL     1      48.975   8.128  11.833  0.00  0.00    +0.000 A 
ATOM     19  C   UNL     1      49.557   8.224  13.097  0.00  0.00    +0.000 A 
ATOM     20  C   UNL     1      49.012   7.533  14.185  0.00  0.00    +0.000 A 
ATOM     21  C   UNL     1      47.985   6.606  13.933  0.00  0.00    +0.000 A 
BRANCH  20  22
ATOM     22  C   UNL     1      49.282   7.914  15.638  0.00  0.00    +0.000 C 
ATOM     23  C   UNL     1      50.731   8.441  15.711  0.00  0.00    +0.000 C 
ATOM     24  C   UNL     1      51.733   7.293  15.592  0.00  0.00    +0.000 C 
ATOM     25  C   UNL     1      51.461   6.198  16.625  0.00  0.00    +0.000 C 
ATOM     26  N   UNL     1      50.074   5.737  16.659  0.00  0.00    +0.000 NA
ATOM     27  C   UNL     1      49.104   6.835  16.730  0.00  0.00    +0.000 C 
ATOM     28  H   UNL     1      49.939   5.106  17.448  0.00  0.00    +0.000 HD
ENDBRANCH  20  22
ENDBRANCH  15  16
ENDBRANCH   1  15
TORSDOF 6
ENDMDL
MODEL 6
REMARK VINA RESULT:    -6.040      2.109      2.844
REMARK INTER + INTRA:          -9.429
REMARK INTER:                  -8.487
REMARK INTRA:                  -0.942
REMARK UNBOUND:                -1.447
REMARK  Name = 
REMARK  6 active torsions:
REMARK  status: ('A' for Active; 'I' for Inactive)
REMARK    1  A    between atoms: N_1  and  S_2
REMARK    2  A    between atoms: S_2  and  C_5
REMARK    3  A    between atoms: C_10  and  N_11
REMARK    4  A    between atoms: N_11  and  C_12
REMARK    5  A    between atoms: C_12  and  C_13
REMARK    6  A    between atoms: C_17  and  C_18
REMARK                            x       y       z     vdW  Elec       q    Type
REMARK                         _______ _______ _______ _____ _____    ______ ____
ROOT
ATOM      1  N   UNL     1      47.615   5.240  16.442  0.00  0.00    +0.000 N 
ATOM      2  H   UNL     1      47.282   4.810  17.313  0.00  0.00    +0.000 HD
ENDROOT
BRANCH   1   8
ATOM      3  C   UNL     1      49.995   5.161  17.220  0.00  0.00    +0.000 A 
ATOM      4  C   UNL     1      51.242   5.810  17.360  0.00  0.00    +0.000 A 
ATOM      5  C   UNL     1      51.430   7.106  16.895  0.00  0.00    +0.000 A 
ATOM      6  C   UNL     1      50.367   7.775  16.314  0.00  0.00    +0.000 A 
ATOM      7  C   UNL     1      49.128   7.142  16.194  0.00  0.00    +0.000 A 
ATOM      8  C   UNL     1      48.909   5.801  16.586  0.00  0.00    +0.000 A 
BRANCH   3   9
ATOM      9  S   UNL     1      49.956   3.473  17.758  0.00  0.00    +0.000 S 
ATOM     10  O   UNL     1      50.242   2.607  16.641  0.00  0.00    +0.000 OA
ATOM     11  O   UNL     1      48.800   3.255  18.598  0.00  0.00    +0.000 OA
BRANCH   9  12
ATOM     12  N   UNL     1      51.293   3.364  18.771  0.00  0.00    +0.000 NA
ATOM     13  H   UNL     1      50.987   3.212  19.732  0.00  0.00    +0.000 HD
ATOM     14  H   UNL     1      51.885   4.187  18.650  0.00  0.00    +0.000 HD
ENDBRANCH   9  12
ENDBRANCH   3   9
ENDBRANCH   1   8
BRANCH   1  15
ATOM     15  C   UNL     1      47.458   4.320  15.309  0.00  0.00    +0.000 C 
BRANCH  15  16
ATOM     16  C   UNL     1      46.867   4.960  14.083  0.00  0.00    +0.000 A 
ATOM     17  C   UNL     1      47.610   5.844  13.299  0.00  0.00    +0.000 A 
ATOM     18  C   UNL     1      46.989   6.567  12.281  0.00  0.00    +0.000 A 
ATOM     19  C   UNL     1      45.642   6.356  11.987  0.00  0.00    +0.000 A 
ATOM     20  C   UNL     1      44.915   5.367  12.660  0.00  0.00    +0.000 A 
ATOM     21  C   UNL     1      45.523   4.728  13.754  0.00  0.00    +0.000 A 
BRANCH  20  22
ATOM     22  C   UNL     1      43.620   4.767  12.118  0.00  0.00    +0.000 C 
ATOM     23  C   UNL     1      43.817   3.237  12.058  0.00  0.00    +0.000 C 
ATOM     24  C   UNL     1      44.740   2.853  10.902  0.00  0.00    +0.000 C 
ATOM     25  C   UNL     1      44.249   3.427   9.573  0.00  0.00    +0.000 C 
ATOM     26  N   UNL     1      43.957   4.859   9.610  0.00  0.00    +0.000 NA
ATOM     27  C   UNL     1      43.105   5.243  10.741  0.00  0.00    +0.000 C 
ATOM     28  H   UNL     1      43.519   5.145   8.735  0.00  0.00    +0.000 HD
ENDBRANCH  20  22
ENDBRANCH  15  16
ENDBRANCH   1  15
TORSDOF 6
ENDMDL
MODEL 7
REMARK VINA RESULT:    -5.979      3.119      6.633
REMARK INTER + INTRA:          -9.348
REMARK INTER:                  -8.356
REMARK INTRA:                  -0.992
REMARK UNBOUND:                -1.447
REMARK  Name = 
REMARK  6 active torsions:
REMARK  status: ('A' for Active; 'I' for Inactive)
REMARK    1  A    between atoms: N_1  and  S_2
REMARK    2  A    between atoms: S_2  and  C_5
REMARK    3  A    between atoms: C_10  and  N_11
REMARK    4  A    between atoms: N_11  and  C_12
REMARK    5  A    between atoms: C_12  and  C_13
REMARK    6  A    between atoms: C_17  and  C_18
REMARK                            x       y       z     vdW  Elec       q    Type
REMARK                         _______ _______ _______ _____ _____    ______ ____
ROOT
ATOM      1  N   UNL     1      45.763   6.082  11.388  0.00  0.00    +0.000 N 
ATOM      2  H   UNL     1      46.020   5.726  12.317  0.00  0.00    +0.000 HD
ENDROOT
BRANCH   1   8
ATOM      3  C   UNL     1      44.567   3.925  10.944  0.00  0.00    +0.000 A 
ATOM      4  C   UNL     1      44.197   2.916  10.028  0.00  0.00    +0.000 A 
ATOM      5  C   UNL     1      44.575   2.990   8.692  0.00  0.00    +0.000 A 
ATOM      6  C   UNL     1      45.350   4.054   8.267  0.00  0.00    +0.000 A 
ATOM      7  C   UNL     1      45.734   5.041   9.178  0.00  0.00    +0.000 A 
ATOM      8  C   UNL     1      45.314   5.048  10.527  0.00  0.00    +0.000 A 
BRANCH   3   9
ATOM      9  S   UNL     1      43.907   3.742  12.578  0.00  0.00    +0.000 S 
ATOM     10  O   UNL     1      43.472   2.382  12.770  0.00  0.00    +0.000 OA
ATOM     11  O   UNL     1      43.038   4.857  12.881  0.00  0.00    +0.000 OA
BRANCH   9  12
ATOM     12  N   UNL     1      45.259   3.929  13.559  0.00  0.00    +0.000 NA
ATOM     13  H   UNL     1      45.583   3.017  13.879  0.00  0.00    +0.000 HD
ATOM     14  H   UNL     1      45.051   4.583  14.314  0.00  0.00    +0.000 HD
ENDBRANCH   9  12
ENDBRANCH   3   9
ENDBRANCH   1   8
BRANCH   1  15
ATOM     15  C   UNL     1      44.861   7.234  11.498  0.00  0.00    +0.000 C 
BRANCH  15  16
ATOM     16  C   UNL     1      45.565   8.533  11.784  0.00  0.00    +0.000 A 
ATOM     17  C   UNL     1      44.882   9.750  11.746  0.00  0.00    +0.000 A 
ATOM     18  C   UNL     1      45.587  10.949  11.827  0.00  0.00    +0.000 A 
ATOM     19  C   UNL     1      46.968  10.944  12.026  0.00  0.00    +0.000 A 
ATOM     20  C   UNL     1      47.653   9.738  12.217  0.00  0.00    +0.000 A 
ATOM     21  C   UNL     1      46.948   8.538  12.021  0.00  0.00    +0.000 A 
BRANCH  20  22
ATOM     22  C   UNL     1      49.029   9.653  12.874  0.00  0.00    +0.000 C 
ATOM     23  C   UNL     1      49.030   8.396  13.770  0.00  0.00    +0.000 C 
ATOM     24  C   UNL     1      48.196   8.628  15.031  0.00  0.00    +0.000 C 
ATOM     25  C   UNL     1      48.649   9.879  15.784  0.00  0.00    +0.000 C 
ATOM     26  N   UNL     1      48.757  11.075  14.951  0.00  0.00    +0.000 NA
ATOM     27  C   UNL     1      49.519  10.850  13.718  0.00  0.00    +0.000 C 
ATOM     28  H   UNL     1      49.181  11.832  15.486  0.00  0.00    +0.000 HD
ENDBRANCH  20  22
ENDBRANCH  15  16
ENDBRANCH   1  15
TORSDOF 6
ENDMDL
MODEL 8
REMARK VINA RESULT:    -5.840      1.940      6.326
REMARK INTER + INTRA:          -9.164
REMARK INTER:                  -8.363
REMARK INTRA:                  -0.801
REMARK UNBOUND:                -1.447
REMARK  Name = 
REMARK  6 active torsions:
REMARK  status: ('A' for Active; 'I' for Inactive)
REMARK    1  A    between atoms: N_1  and  S_2
REMARK    2  A    between atoms: S_2  and  C_5
REMARK    3  A    between atoms: C_10  and  N_11
REMARK    4  A    between atoms: N_11  and  C_12
REMARK    5  A    between atoms: C_12  and  C_13
REMARK    6  A    between atoms: C_17  and  C_18
REMARK                            x       y       z     vdW  Elec       q    Type
REMARK                         _______ _______ _______ _____ _____    ______ ____
ROOT
ATOM      1  N   UNL     1      46.748   5.968  13.751  0.00  0.00    +0.000 N 
ATOM      2  H   UNL     1      46.444   5.940  14.732  0.00  0.00    +0.000 HD
ENDROOT
BRANCH   1   8
ATOM      3  C   UNL     1      44.864   5.319  12.234  0.00  0.00    +0.000 A 
ATOM      4  C   UNL     1      43.847   5.710  11.336  0.00  0.00    +0.000 A 
ATOM      5  C   UNL     1      43.633   7.051  11.038  0.00  0.00    +0.000 A 
ATOM      6  C   UNL     1      44.452   8.008  11.610  0.00  0.00    +0.000 A 
ATOM      7  C   UNL     1      45.472   7.620  12.482  0.00  0.00    +0.000 A 
ATOM      8  C   UNL     1      45.680   6.277  12.871  0.00  0.00    +0.000 A 
BRANCH   3   9
ATOM      9  S   UNL     1      44.927   3.585  12.597  0.00  0.00    +0.000 S 
ATOM     10  O   UNL     1      43.666   3.166  13.158  0.00  0.00    +0.000 OA
ATOM     11  O   UNL     1      46.179   3.267  13.245  0.00  0.00    +0.000 OA
BRANCH   9  12
ATOM     12  N   UNL     1      45.001   2.880  11.072  0.00  0.00    +0.000 NA
ATOM     13  H   UNL     1      44.505   3.461  10.397  0.00  0.00    +0.000 HD
ATOM     14  H   UNL     1      44.662   1.918  11.119  0.00  0.00    +0.000 HD
ENDBRANCH   9  12
ENDBRANCH   3   9
ENDBRANCH   1   8
BRANCH   1  15
ATOM     15  C   UNL     1      47.944   6.806  13.596  0.00  0.00    +0.000 C 
BRANCH  15  16
ATOM     16  C   UNL     1      48.877   6.759  14.775  0.00  0.00    +0.000 A 
ATOM     17  C   UNL     1      50.115   7.403  14.743  0.00  0.00    +0.000 A 
ATOM     18  C   UNL     1      51.039   7.191  15.766  0.00  0.00    +0.000 A 
ATOM     19  C   UNL     1      50.705   6.400  16.865  0.00  0.00    +0.000 A 
ATOM     20  C   UNL     1      49.418   5.866  16.991  0.00  0.00    +0.000 A 
ATOM     21  C   UNL     1      48.538   5.995  15.902  0.00  0.00    +0.000 A 
BRANCH  20  22
ATOM     22  C   UNL     1      48.835   5.392  18.320  0.00  0.00    +0.000 C 
ATOM     23  C   UNL     1      49.496   4.037  18.651  0.00  0.00    +0.000 C 
ATOM     24  C   UNL     1      48.939   2.929  17.756  0.00  0.00    +0.000 C 
ATOM     25  C   UNL     1      47.413   2.862  17.824  0.00  0.00    +0.000 C 
ATOM     26  N   UNL     1      46.747   4.147  17.613  0.00  0.00    +0.000 NA
ATOM     27  C   UNL     1      47.304   5.225  18.437  0.00  0.00    +0.000 C 
ATOM     28  H   UNL     1      45.749   4.052  17.797  0.00  0.00    +0.000 HD
ENDBRANCH  20  22
ENDBRANCH  15  16
ENDBRANCH   1  15
TORSDOF 6
ENDMDL
MODEL 9
REMARK VINA RESULT:    -5.746      2.663      7.215
REMARK INTER + INTRA:          -9.040
REMARK INTER:                  -7.585
REMARK INTRA:                  -1.455
REMARK UNBOUND:                -1.447
REMARK  Name = 
REMARK  6 active torsions:
REMARK  status: ('A' for Active; 'I' for Inactive)
REMARK    1  A    between atoms: N_1  and  S_2
REMARK    2  A    between atoms: S_2  and  C_5
REMARK    3  A    between atoms: C_10  and  N_11
REMARK    4  A    between atoms: N_11  and  C_12
REMARK    5  A    between atoms: C_12  and  C_13
REMARK    6  A    between atoms: C_17  and  C_18
REMARK                            x       y       z     vdW  Elec       q    Type
REMARK                         _______ _______ _______ _____ _____    ______ ____
ROOT
ATOM      1  N   UNL     1      47.118   5.460  14.120  0.00  0.00    +0.000 N 
ATOM      2  H   UNL     1      48.031   5.481  13.650  0.00  0.00    +0.000 HD
ENDROOT
BRANCH   1   8
ATOM      3  C   UNL     1      45.825   7.007  12.634  0.00  0.00    +0.000 A 
ATOM      4  C   UNL     1      44.713   7.223  11.791  0.00  0.00    +0.000 A 
ATOM      5  C   UNL     1      43.800   6.206  11.537  0.00  0.00    +0.000 A 
ATOM      6  C   UNL     1      43.973   4.976  12.148  0.00  0.00    +0.000 A 
ATOM      7  C   UNL     1      45.061   4.769  12.999  0.00  0.00    +0.000 A 
ATOM      8  C   UNL     1      46.054   5.748  13.229  0.00  0.00    +0.000 A 
BRANCH   3   9
ATOM      9  S   UNL     1      46.955   8.367  12.758  0.00  0.00    +0.000 S 
ATOM     10  O   UNL     1      46.364   9.538  12.161  0.00  0.00    +0.000 OA
ATOM     11  O   UNL     1      48.285   7.931  12.397  0.00  0.00    +0.000 OA
BRANCH   9  12
ATOM     12  N   UNL     1      47.001   8.674  14.410  0.00  0.00    +0.000 NA
ATOM     13  H   UNL     1      46.439   7.984  14.907  0.00  0.00    +0.000 HD
ATOM     14  H   UNL     1      46.724   9.641  14.590  0.00  0.00    +0.000 HD
ENDBRANCH   9  12
ENDBRANCH   3   9
ENDBRANCH   1   8
BRANCH   1  15
ATOM     15  C   UNL     1      46.958   4.227  14.901  0.00  0.00    +0.000 C 
BRANCH  15  16
ATOM     16  C   UNL     1      47.657   4.256  16.233  0.00  0.00    +0.000 A 
ATOM     17  C   UNL     1      47.871   3.086  16.963  0.00  0.00    +0.000 A 
ATOM     18  C   UNL     1      48.348   3.156  18.271  0.00  0.00    +0.000 A 
ATOM     19  C   UNL     1      48.690   4.386  18.832  0.00  0.00    +0.000 A 
ATOM     20  C   UNL     1      48.626   5.557  18.069  0.00  0.00    +0.000 A 
ATOM     21  C   UNL     1      48.039   5.484  16.793  0.00  0.00    +0.000 A 
BRANCH  20  22
ATOM     22  C   UNL     1      49.383   6.833  18.429  0.00  0.00    +0.000 C 
ATOM     23  C   UNL     1      49.004   7.194  19.881  0.00  0.00    +0.000 C 
ATOM     24  C   UNL     1      47.583   7.753  19.948  0.00  0.00    +0.000 C 
ATOM     25  C   UNL     1      47.393   8.929  18.989  0.00  0.00    +0.000 C 
ATOM     26  N   UNL     1      47.831   8.662  17.620  0.00  0.00    +0.000 NA
ATOM     27  C   UNL     1      49.178   8.086  17.549  0.00  0.00    +0.000 C 
ATOM     28  H   UNL     1      47.793   9.521  17.072  0.00  0.00    +0.000 HD
ENDBRANCH  20  22
ENDBRANCH  15  16
ENDBRANCH   1  15
TORSDOF 6
ENDMDL
