MODEL 1
REMARK VINA RESULT:    -8.021      0.000      0.000
REMARK INTER + INTRA:         -11.504
REMARK INTER:                 -10.835
REMARK INTRA:                  -0.669
REMARK UNBOUND:                -0.669
REMARK  Name = 
REMARK  8 active torsions:
REMARK  status: ('A' for Active; 'I' for Inactive)
REMARK    1  A    between atoms: C_1  and  C_2
REMARK    2  A    between atoms: C_4  and  C_5
REMARK    3  A    between atoms: C_5  and  C_6
REMARK    4  A    between atoms: C_6  and  N_7
REMARK    5  A    between atoms: C_11  and  C_12
REMARK    6  A    between atoms: C_18  and  C_19
REMARK    7  A    between atoms: C_20  and  O_21
REMARK    8  A    between atoms: O_21  and  C_22
REMARK                            x       y       z     vdW  Elec       q    Type
REMARK                         _______ _______ _______ _____ _____    ______ ____
ROOT
ATOM      1  C   UNL     1      43.079   5.372  12.179  0.00  0.00    +0.000 C 
ENDROOT
BRANCH   1   5
ATOM      2  C   UNL     1      46.967   8.519  12.628  0.00  0.00    +0.000 C 
ATOM      3  C   UNL     1      46.434   7.156  12.963  0.00  0.00    +0.000 A 
ATOM      4  C   UNL     1      45.121   6.886  12.530  0.00  0.00    +0.000 A 
ATOM      5  C   UNL     1      44.479   5.653  12.713  0.00  0.00    +0.000 A 
ATOM      6  C   UNL     1      45.183   4.662  13.398  0.00  0.00    +0.000 A 
ATOM      7  C   UNL     1      46.498   4.891  13.848  0.00  0.00    +0.000 A 
ATOM      8  C   UNL     1      47.227   3.789  14.575  0.00  0.00    +0.000 C 
ATOM      9  C   UNL     1      47.135   6.136  13.616  0.00  0.00    +0.000 A 
BRANCH   9  10
ATOM     10  O   UNL     1      48.468   6.145  13.961  0.00  0.00    +0.000 OA
BRANCH  10  11
ATOM     11  C   UNL     1      49.015   7.041  14.946  0.00  0.00    +0.000 C 
ATOM     12  C   UNL     1      50.257   7.812  14.472  0.00  0.00    +0.000 C 
ATOM     13  O   UNL     1      51.062   7.293  15.550  0.00  0.00    +0.000 OA
ATOM     14  C   UNL     1      49.958   6.483  16.018  0.00  0.00    +0.000 C 
ENDBRANCH  10  11
ENDBRANCH   9  10
ENDBRANCH   1   5
BRANCH   1  15
ATOM     15  C   UNL     1      43.084   4.559  10.880  0.00  0.00    +0.000 C 
BRANCH  15  16
ATOM     16  N   UNL     1      43.907   5.126   9.807  0.00  0.00    +0.000 N 
ATOM     17  C   UNL     1      44.670   4.101   9.189  0.00  0.00    +0.000 A 
ATOM     18  C   UNL     1      45.539   4.439   8.157  0.00  0.00    +0.000 A 
ATOM     19  C   UNL     1      46.307   3.443   7.546  0.00  0.00    +0.000 A 
ATOM     20  C   UNL     1      46.188   2.123   7.982  0.00  0.00    +0.000 A 
ATOM     21  C   UNL     1      45.301   1.868   9.009  0.00  0.00    +0.000 A 
ATOM     22  N   UNL     1      44.540   2.819   9.601  0.00  0.00    +0.000 NA
ATOM     23  H   UNL     1      44.551   5.832  10.153  0.00  0.00    +0.000 HD
BRANCH  20  24
ATOM     24  C   UNL     1      46.971   0.995   7.438  0.00  0.00    +0.000 C 
ATOM     25  N   UNL     1      47.827   1.263   6.406  0.00  0.00    +0.000 N 
ATOM     26  O   UNL     1      46.840  -0.145   7.867  0.00  0.00    +0.000 OA
ATOM     27  H   UNL     1      47.794   2.117   5.869  0.00  0.00    +0.000 HD
ATOM     28  H   UNL     1      48.281   0.461   5.985  0.00  0.00    +0.000 HD
ENDBRANCH  20  24
ENDBRANCH  15  16
ENDBRANCH   1  15
TORSDOF 6
ENDMDL
MODEL 2
REMARK VINA RESULT:    -7.973      1.279      2.244
REMARK INTER + INTRA:         -11.439
REMARK INTER:                 -10.646
REMARK INTRA:                  -0.793
REMARK UNBOUND:                -0.669
REMARK  Name = 
REMARK  8 active torsions:
REMARK  status: ('A' for Active; 'I' for Inactive)
REMARK    1  A    between atoms: C_1  and  C_2
REMARK    2  A    between atoms: C_4  and  C_5
REMARK    3  A    between atoms: C_5  and  C_6
REMARK    4  A    between atoms: C_6  and  N_7
REMARK    5  A    between atoms: C_11  and  C_12
REMARK    6  A    between atoms: C_18  and  C_19
REMARK    7  A    between atoms: C_20  and  O_21
REMARK    8  A    between atoms: O_21  and  C_22
REMARK                            x       y       z     vdW  Elec       q    Type
REMARK                         _______ _______ _______ _____ _____    ______ ____
ROOT
ATOM      1  C   UNL     1      43.663   5.671  11.656  0.00  0.00    +0.000 C 
ENDROOT
BRANCH   1   5
ATOM      2  C   UNL     1      47.064   4.231  15.059  0.00  0.00    +0.000 C 
ATOM      3  C   UNL     1      46.812   5.072  13.841  0.00  0.00    +0.000 A 
ATOM      4  C   UNL     1      45.517   4.989  13.294  0.00  0.00    +0.000 A 
ATOM      5  C   UNL     1      45.091   5.737  12.187  0.00  0.00    +0.000 A 
ATOM      6  C   UNL     1      46.028   6.578  11.585  0.00  0.00    +0.000 A 
ATOM      7  C   UNL     1      47.333   6.689  12.100  0.00  0.00    +0.000 A 
ATOM      8  C   UNL     1      48.312   7.617  11.426  0.00  0.00    +0.000 C 
ATOM      9  C   UNL     1      47.725   5.948  13.244  0.00  0.00    +0.000 A 
BRANCH   9  10
ATOM     10  O   UNL     1      48.969   6.293  13.724  0.00  0.00    +0.000 OA
BRANCH  10  11
ATOM     11  C   UNL     1      49.158   7.187  14.836  0.00  0.00    +0.000 C 
ATOM     12  C   UNL     1      50.288   8.208  14.636  0.00  0.00    +0.000 C 
ATOM     13  O   UNL     1      50.985   7.755  15.814  0.00  0.00    +0.000 OA
ATOM     14  C   UNL     1      49.996   6.721  16.031  0.00  0.00    +0.000 C 
ENDBRANCH  10  11
ENDBRANCH   9  10
ENDBRANCH   1   5
BRANCH   1  15
ATOM     15  C   UNL     1      43.560   4.959  10.302  0.00  0.00    +0.000 C 
BRANCH  15  16
ATOM     16  N   UNL     1      43.920   3.538  10.329  0.00  0.00    +0.000 N 
ATOM     17  C   UNL     1      44.829   3.250   9.278  0.00  0.00    +0.000 A 
ATOM     18  C   UNL     1      45.277   1.943   9.115  0.00  0.00    +0.000 A 
ATOM     19  C   UNL     1      46.163   1.640   8.077  0.00  0.00    +0.000 A 
ATOM     20  C   UNL     1      46.586   2.656   7.219  0.00  0.00    +0.000 A 
ATOM     21  C   UNL     1      46.099   3.928   7.448  0.00  0.00    +0.000 A 
ATOM     22  N   UNL     1      45.252   4.240   8.458  0.00  0.00    +0.000 NA
ATOM     23  H   UNL     1      43.109   2.937  10.216  0.00  0.00    +0.000 HD
BRANCH  20  24
ATOM     24  C   UNL     1      47.489   2.450   6.069  0.00  0.00    +0.000 C 
ATOM     25  N   UNL     1      48.833   2.421   6.322  0.00  0.00    +0.000 N 
ATOM     26  O   UNL     1      47.062   2.342   4.926  0.00  0.00    +0.000 OA
ATOM     27  H   UNL     1      49.238   2.739   7.190  0.00  0.00    +0.000 HD
ATOM     28  H   UNL     1      49.437   2.376   5.510  0.00  0.00    +0.000 HD
ENDBRANCH  20  24
ENDBRANCH  15  16
ENDBRANCH   1  15
TORSDOF 6
ENDMDL
MODEL 3
REMARK VINA RESULT:    -7.153      1.396      2.315
REMARK INTER + INTRA:         -10.331
REMARK INTER:                  -9.804
REMARK INTRA:                  -0.527
REMARK UNBOUND:                -0.669
REMARK  Name = 
REMARK  8 active torsions:
REMARK  status: ('A' for Active; 'I' for Inactive)
REMARK    1  A    between atoms: C_1  and  C_2
REMARK    2  A    between atoms: C_4  and  C_5
REMARK    3  A    between atoms: C_5  and  C_6
REMARK    4  A    between atoms: C_6  and  N_7
REMARK    5  A    between atoms: C_11  and  C_12
REMARK    6  A    between atoms: C_18  and  C_19
REMARK    7  A    between atoms: C_20  and  O_21
REMARK    8  A    between atoms: O_21  and  C_22
REMARK                            x       y       z     vdW  Elec       q    Type
REMARK                         _______ _______ _______ _____ _____    ______ ____
ROOT
ATOM      1  C   UNL     1      43.262   4.499  12.461  0.00  0.00    +0.000 C 
ENDROOT
BRANCH   1   5
ATOM      2  C   UNL     1      47.813   5.409  14.382  0.00  0.00    +0.000 C 
ATOM      3  C   UNL     1      46.652   5.985  13.623  0.00  0.00    +0.000 A 
ATOM      4  C   UNL     1      45.595   5.096  13.347  0.00  0.00    +0.000 A 
ATOM      5  C   UNL     1      44.414   5.471  12.691  0.00  0.00    +0.000 A 
ATOM      6  C   UNL     1      44.315   6.795  12.261  0.00  0.00    +0.000 A 
ATOM      7  C   UNL     1      45.349   7.716  12.516  0.00  0.00    +0.000 A 
ATOM      8  C   UNL     1      45.197   9.140  12.043  0.00  0.00    +0.000 C 
ATOM      9  C   UNL     1      46.517   7.317  13.215  0.00  0.00    +0.000 A 
BRANCH   9  10
ATOM     10  O   UNL     1      47.352   8.365  13.534  0.00  0.00    +0.000 OA
BRANCH  10  11
ATOM     11  C   UNL     1      48.521   8.696  12.762  0.00  0.00    +0.000 C 
ATOM     12  C   UNL     1      48.741   7.794  11.538  0.00  0.00    +0.000 C 
ATOM     13  O   UNL     1      50.046   7.388  11.998  0.00  0.00    +0.000 OA
ATOM     14  C   UNL     1      49.885   8.160  13.211  0.00  0.00    +0.000 C 
ENDBRANCH  10  11
ENDBRANCH   9  10
ENDBRANCH   1   5
BRANCH   1  15
ATOM     15  C   UNL     1      43.370   3.745  11.132  0.00  0.00    +0.000 C 
BRANCH  15  16
ATOM     16  N   UNL     1      43.874   4.546  10.013  0.00  0.00    +0.000 N 
ATOM     17  C   UNL     1      44.735   3.759   9.204  0.00  0.00    +0.000 A 
ATOM     18  C   UNL     1      45.340   4.345   8.097  0.00  0.00    +0.000 A 
ATOM     19  C   UNL     1      46.200   3.588   7.297  0.00  0.00    +0.000 A 
ATOM     20  C   UNL     1      46.438   2.251   7.622  0.00  0.00    +0.000 A 
ATOM     21  C   UNL     1      45.796   1.741   8.733  0.00  0.00    +0.000 A 
ATOM     22  N   UNL     1      44.950   2.459   9.509  0.00  0.00    +0.000 NA
ATOM     23  H   UNL     1      44.397   5.358  10.330  0.00  0.00    +0.000 HD
BRANCH  20  24
ATOM     24  C   UNL     1      47.352   1.364   6.873  0.00  0.00    +0.000 C 
ATOM     25  N   UNL     1      48.530   1.902   6.433  0.00  0.00    +0.000 N 
ATOM     26  O   UNL     1      47.059   0.201   6.624  0.00  0.00    +0.000 OA
ATOM     27  H   UNL     1      48.705   2.895   6.403  0.00  0.00    +0.000 HD
ATOM     28  H   UNL     1      49.096   1.306   5.841  0.00  0.00    +0.000 HD
ENDBRANCH  20  24
ENDBRANCH  15  16
ENDBRANCH   1  15
TORSDOF 6
ENDMDL
MODEL 4
REMARK VINA RESULT:    -6.909      2.007      2.500
REMARK INTER + INTRA:         -10.001
REMARK INTER:                  -9.355
REMARK INTRA:                  -0.647
REMARK UNBOUND:                -0.669
REMARK  Name = 
REMARK  8 active torsions:
REMARK  status: ('A' for Active; 'I' for Inactive)
REMARK    1  A    between atoms: C_1  and  C_2
REMARK    2  A    between atoms: C_4  and  C_5
REMARK    3  A    between atoms: C_5  and  C_6
REMARK    4  A    between atoms: C_6  and  N_7
REMARK    5  A    between atoms: C_11  and  C_12
REMARK    6  A    between atoms: C_18  and  C_19
REMARK    7  A    between atoms: C_20  and  O_21
REMARK    8  A    between atoms: O_21  and  C_22
REMARK                            x       y       z     vdW  Elec       q    Type
REMARK                         _______ _______ _______ _____ _____    ______ ____
ROOT
ATOM      1  C   UNL     1      43.803   5.690  11.835  0.00  0.00    +0.000 C 
ENDROOT
BRANCH   1   5
ATOM      2  C   UNL     1      45.413  10.447  11.820  0.00  0.00    +0.000 C 
ATOM      3  C   UNL     1      45.804   9.009  12.007  0.00  0.00    +0.000 A 
ATOM      4  C   UNL     1      44.759   8.070  11.907  0.00  0.00    +0.000 A 
ATOM      5  C   UNL     1      44.946   6.684  12.008  0.00  0.00    +0.000 A 
ATOM      6  C   UNL     1      46.241   6.230  12.258  0.00  0.00    +0.000 A 
ATOM      7  C   UNL     1      47.314   7.136  12.365  0.00  0.00    +0.000 A 
ATOM      8  C   UNL     1      48.701   6.603  12.626  0.00  0.00    +0.000 C 
ATOM      9  C   UNL     1      47.101   8.530  12.222  0.00  0.00    +0.000 A 
BRANCH   9  10
ATOM     10  O   UNL     1      48.266   9.264  12.181  0.00  0.00    +0.000 OA
BRANCH  10  11
ATOM     11  C   UNL     1      48.634  10.206  13.206  0.00  0.00    +0.000 C 
ATOM     12  C   UNL     1      50.147  10.435  13.334  0.00  0.00    +0.000 C 
ATOM     13  O   UNL     1      50.151  10.029  14.718  0.00  0.00    +0.000 OA
ATOM     14  C   UNL     1      48.738   9.723  14.657  0.00  0.00    +0.000 C 
ENDBRANCH  10  11
ENDBRANCH   9  10
ENDBRANCH   1   5
BRANCH   1  15
ATOM     15  C   UNL     1      43.749   5.075  10.432  0.00  0.00    +0.000 C 
BRANCH  15  16
ATOM     16  N   UNL     1      43.996   3.631  10.387  0.00  0.00    +0.000 N 
ATOM     17  C   UNL     1      44.880   3.324   9.320  0.00  0.00    +0.000 A 
ATOM     18  C   UNL     1      45.223   1.996   9.091  0.00  0.00    +0.000 A 
ATOM     19  C   UNL     1      46.083   1.676   8.036  0.00  0.00    +0.000 A 
ATOM     20  C   UNL     1      46.586   2.697   7.228  0.00  0.00    +0.000 A 
ATOM     21  C   UNL     1      46.201   3.991   7.523  0.00  0.00    +0.000 A 
ATOM     22  N   UNL     1      45.381   4.317   8.549  0.00  0.00    +0.000 NA
ATOM     23  H   UNL     1      43.140   3.102  10.247  0.00  0.00    +0.000 HD
BRANCH  20  24
ATOM     24  C   UNL     1      47.471   2.478   6.067  0.00  0.00    +0.000 C 
ATOM     25  N   UNL     1      48.819   2.460   6.298  0.00  0.00    +0.000 N 
ATOM     26  O   UNL     1      47.025   2.349   4.933  0.00  0.00    +0.000 OA
ATOM     27  H   UNL     1      49.236   2.794   7.154  0.00  0.00    +0.000 HD
ATOM     28  H   UNL     1      49.410   2.405   5.477  0.00  0.00    +0.000 HD
ENDBRANCH  20  24
ENDBRANCH  15  16
ENDBRANCH   1  15
TORSDOF 6
ENDMDL
MODEL 5
REMARK VINA RESULT:    -6.666      4.089      6.211
REMARK INTER + INTRA:          -9.674
REMARK INTER:                  -9.111
REMARK INTRA:                  -0.563
REMARK UNBOUND:                -0.669
REMARK  Name = 
REMARK  8 active torsions:
REMARK  status: ('A' for Active; 'I' for Inactive)
REMARK    1  A    between atoms: C_1  and  C_2
REMARK    2  A    between atoms: C_4  and  C_5
REMARK    3  A    between atoms: C_5  and  C_6
REMARK    4  A    between atoms: C_6  and  N_7
REMARK    5  A    between atoms: C_11  and  C_12
REMARK    6  A    between atoms: C_18  and  C_19
REMARK    7  A    between atoms: C_20  and  O_21
REMARK    8  A    between atoms: O_21  and  C_22
REMARK                            x       y       z     vdW  Elec       q    Type
REMARK                         _______ _______ _______ _____ _____    ______ ____
ROOT
ATOM      1  C   UNL     1      47.654   4.056  17.076  0.00  0.00    +0.000 C 
ENDROOT
BRANCH   1   5
ATOM      2  C   UNL     1      52.109   6.234  17.872  0.00  0.00    +0.000 C 
ATOM      3  C   UNL     1      51.377   4.931  17.725  0.00  0.00    +0.000 A 
ATOM      4  C   UNL     1      49.984   5.025  17.538  0.00  0.00    +0.000 A 
ATOM      5  C   UNL     1      49.149   3.917  17.337  0.00  0.00    +0.000 A 
ATOM      6  C   UNL     1      49.745   2.655  17.364  0.00  0.00    +0.000 A 
ATOM      7  C   UNL     1      51.134   2.517  17.549  0.00  0.00    +0.000 A 
ATOM      8  C   UNL     1      51.739   1.135  17.561  0.00  0.00    +0.000 C 
ATOM      9  C   UNL     1      51.959   3.658  17.713  0.00  0.00    +0.000 A 
BRANCH   9  10
ATOM     10  O   UNL     1      53.306   3.369  17.710  0.00  0.00    +0.000 OA
BRANCH  10  11
ATOM     11  C   UNL     1      54.143   3.534  18.869  0.00  0.00    +0.000 C 
ATOM     12  C   UNL     1      54.916   2.268  19.270  0.00  0.00    +0.000 C 
ATOM     13  O   UNL     1      54.332   2.259  20.588  0.00  0.00    +0.000 OA
ATOM     14  C   UNL     1      53.518   3.410  20.262  0.00  0.00    +0.000 C 
ENDBRANCH  10  11
ENDBRANCH   9  10
ENDBRANCH   1   5
BRANCH   1  15
ATOM     15  C   UNL     1      47.280   3.859  15.603  0.00  0.00    +0.000 C 
BRANCH  15  16
ATOM     16  N   UNL     1      46.859   5.081  14.910  0.00  0.00    +0.000 N 
ATOM     17  C   UNL     1      46.172   4.747  13.714  0.00  0.00    +0.000 A 
ATOM     18  C   UNL     1      45.709   5.772  12.896  0.00  0.00    +0.000 A 
ATOM     19  C   UNL     1      45.041   5.459  11.708  0.00  0.00    +0.000 A 
ATOM     20  C   UNL     1      44.847   4.121  11.363  0.00  0.00    +0.000 A 
ATOM     21  C   UNL     1      45.333   3.162  12.230  0.00  0.00    +0.000 A 
ATOM     22  N   UNL     1      45.969   3.449  13.390  0.00  0.00    +0.000 NA
ATOM     23  H   UNL     1      47.649   5.671  14.664  0.00  0.00    +0.000 HD
BRANCH  20  24
ATOM     24  C   UNL     1      44.189   3.671  10.120  0.00  0.00    +0.000 C 
ATOM     25  N   UNL     1      43.895   4.623   9.183  0.00  0.00    +0.000 N 
ATOM     26  O   UNL     1      43.884   2.498   9.942  0.00  0.00    +0.000 OA
ATOM     27  H   UNL     1      43.906   5.613   9.380  0.00  0.00    +0.000 HD
ATOM     28  H   UNL     1      43.358   4.309   8.383  0.00  0.00    +0.000 HD
ENDBRANCH  20  24
ENDBRANCH  15  16
ENDBRANCH   1  15
TORSDOF 6
ENDMDL
MODEL 6
REMARK VINA RESULT:    -6.233      4.192      8.226
REMARK INTER + INTRA:          -9.089
REMARK INTER:                  -8.200
REMARK INTRA:                  -0.889
REMARK UNBOUND:                -0.669
REMARK  Name = 
REMARK  8 active torsions:
REMARK  status: ('A' for Active; 'I' for Inactive)
REMARK    1  A    between atoms: C_1  and  C_2
REMARK    2  A    between atoms: C_4  and  C_5
REMARK    3  A    between atoms: C_5  and  C_6
REMARK    4  A    between atoms: C_6  and  N_7
REMARK    5  A    between atoms: C_11  and  C_12
REMARK    6  A    between atoms: C_18  and  C_19
REMARK    7  A    between atoms: C_20  and  O_21
REMARK    8  A    between atoms: O_21  and  C_22
REMARK                            x       y       z     vdW  Elec       q    Type
REMARK                         _______ _______ _______ _____ _____    ______ ____
ROOT
ATOM      1  C   UNL     1      49.326   7.948  12.908  0.00  0.00    +0.000 C 
ENDROOT
BRANCH   1   5
ATOM      2  C   UNL     1      44.546   8.265  11.396  0.00  0.00    +0.000 C 
ATOM      3  C   UNL     1      45.603   7.372  11.979  0.00  0.00    +0.000 A 
ATOM      4  C   UNL     1      46.880   7.947  12.132  0.00  0.00    +0.000 A 
ATOM      5  C   UNL     1      47.972   7.277  12.700  0.00  0.00    +0.000 A 
ATOM      6  C   UNL     1      47.775   5.954  13.096  0.00  0.00    +0.000 A 
ATOM      7  C   UNL     1      46.514   5.341  12.960  0.00  0.00    +0.000 A 
ATOM      8  C   UNL     1      46.341   3.912  13.411  0.00  0.00    +0.000 C 
ATOM      9  C   UNL     1      45.417   6.055  12.416  0.00  0.00    +0.000 A 
BRANCH   9  10
ATOM     10  O   UNL     1      44.220   5.380  12.508  0.00  0.00    +0.000 OA
BRANCH  10  11
ATOM     11  C   UNL     1      43.520   4.871  11.358  0.00  0.00    +0.000 C 
ATOM     12  C   UNL     1      43.163   3.379  11.450  0.00  0.00    +0.000 C 
ATOM     13  O   UNL     1      43.889   3.072  10.242  0.00  0.00    +0.000 OA
ATOM     14  C   UNL     1      44.324   4.447  10.124  0.00  0.00    +0.000 C 
ENDBRANCH  10  11
ENDBRANCH   9  10
ENDBRANCH   1   5
BRANCH   1  15
ATOM     15  C   UNL     1      49.980   7.579  14.243  0.00  0.00    +0.000 C 
BRANCH  15  16
ATOM     16  N   UNL     1      49.372   8.213  15.418  0.00  0.00    +0.000 N 
ATOM     17  C   UNL     1      49.205   7.255  16.452  0.00  0.00    +0.000 A 
ATOM     18  C   UNL     1      48.619   7.653  17.649  0.00  0.00    +0.000 A 
ATOM     19  C   UNL     1      48.436   6.719  18.673  0.00  0.00    +0.000 A 
ATOM     20  C   UNL     1      48.846   5.399  18.478  0.00  0.00    +0.000 A 
ATOM     21  C   UNL     1      49.423   5.084  17.263  0.00  0.00    +0.000 A 
ATOM     22  N   UNL     1      49.620   5.980  16.268  0.00  0.00    +0.000 NA
ATOM     23  H   UNL     1      48.461   8.610  15.208  0.00  0.00    +0.000 HD
BRANCH  20  24
ATOM     24  C   UNL     1      48.673   4.320  19.471  0.00  0.00    +0.000 C 
ATOM     25  N   UNL     1      48.322   3.084  19.002  0.00  0.00    +0.000 N 
ATOM     26  O   UNL     1      48.803   4.524  20.672  0.00  0.00    +0.000 OA
ATOM     27  H   UNL     1      47.975   2.926  18.068  0.00  0.00    +0.000 HD
ATOM     28  H   UNL     1      48.115   2.384  19.705  0.00  0.00    +0.000 HD
ENDBRANCH  20  24
ENDBRANCH  15  16
ENDBRANCH   1  15
TORSDOF 6
ENDMDL
MODEL 7
REMARK VINA RESULT:    -6.174      3.731      6.148
REMARK INTER + INTRA:          -9.009
REMARK INTER:                  -8.443
REMARK INTRA:                  -0.566
REMARK UNBOUND:                -0.669
REMARK  Name = 
REMARK  8 active torsions:
REMARK  status: ('A' for Active; 'I' for Inactive)
REMARK    1  A    between atoms: C_1  and  C_2
REMARK    2  A    between atoms: C_4  and  C_5
REMARK    3  A    between atoms: C_5  and  C_6
REMARK    4  A    between atoms: C_6  and  N_7
REMARK    5  A    between atoms: C_11  and  C_12
REMARK    6  A    between atoms: C_18  and  C_19
REMARK    7  A    between atoms: C_20  and  O_21
REMARK    8  A    between atoms: O_21  and  C_22
REMARK                            x       y       z     vdW  Elec       q    Type
REMARK                         _______ _______ _______ _____ _____    ______ ____
ROOT
ATOM      1  C   UNL     1      47.442   3.895  17.019  0.00  0.00    +0.000 C 
ENDROOT
BRANCH   1   5
ATOM      2  C   UNL     1      51.788   1.410  17.416  0.00  0.00    +0.000 C 
ATOM      3  C   UNL     1      51.057   2.682  17.735  0.00  0.00    +0.000 A 
ATOM      4  C   UNL     1      49.735   2.768  17.257  0.00  0.00    +0.000 A 
ATOM      5  C   UNL     1      48.889   3.859  17.499  0.00  0.00    +0.000 A 
ATOM      6  C   UNL     1      49.416   4.927  18.226  0.00  0.00    +0.000 A 
ATOM      7  C   UNL     1      50.734   4.882  18.721  0.00  0.00    +0.000 A 
ATOM      8  C   UNL     1      51.261   6.054  19.511  0.00  0.00    +0.000 C 
ATOM      9  C   UNL     1      51.554   3.749  18.492  0.00  0.00    +0.000 A 
BRANCH   9  10
ATOM     10  O   UNL     1      52.746   3.784  19.182  0.00  0.00    +0.000 OA
BRANCH  10  11
ATOM     11  C   UNL     1      54.017   3.989  18.538  0.00  0.00    +0.000 C 
ATOM     12  C   UNL     1      54.857   5.117  19.155  0.00  0.00    +0.000 C 
ATOM     13  O   UNL     1      54.923   5.831  17.903  0.00  0.00    +0.000 OA
ATOM     14  C   UNL     1      54.077   4.844  17.268  0.00  0.00    +0.000 C 
ENDBRANCH  10  11
ENDBRANCH   9  10
ENDBRANCH   1   5
BRANCH   1  15
ATOM     15  C   UNL     1      47.314   3.830  15.493  0.00  0.00    +0.000 C 
BRANCH  15  16
ATOM     16  N   UNL     1      46.782   5.047  14.872  0.00  0.00    +0.000 N 
ATOM     17  C   UNL     1      46.111   4.720  13.665  0.00  0.00    +0.000 A 
ATOM     18  C   UNL     1      45.553   5.744  12.907  0.00  0.00    +0.000 A 
ATOM     19  C   UNL     1      44.899   5.440  11.709  0.00  0.00    +0.000 A 
ATOM     20  C   UNL     1      44.816   4.110  11.293  0.00  0.00    +0.000 A 
ATOM     21  C   UNL     1      45.392   3.151  12.103  0.00  0.00    +0.000 A 
ATOM     22  N   UNL     1      46.016   3.429  13.272  0.00  0.00    +0.000 NA
ATOM     23  H   UNL     1      47.516   5.715  14.652  0.00  0.00    +0.000 HD
BRANCH  20  24
ATOM     24  C   UNL     1      44.183   3.673  10.032  0.00  0.00    +0.000 C 
ATOM     25  N   UNL     1      43.919   4.633   9.094  0.00  0.00    +0.000 N 
ATOM     26  O   UNL     1      43.872   2.503   9.840  0.00  0.00    +0.000 OA
ATOM     27  H   UNL     1      43.934   5.621   9.297  0.00  0.00    +0.000 HD
ATOM     28  H   UNL     1      43.399   4.328   8.280  0.00  0.00    +0.000 HD
ENDBRANCH  20  24
ENDBRANCH  15  16
ENDBRANCH   1  15
TORSDOF 6
ENDMDL
MODEL 8
REMARK VINA RESULT:    -6.108      4.125      7.191
REMARK INTER + INTRA:          -8.920
REMARK INTER:                  -8.103
REMARK INTRA:                  -0.817
REMARK UNBOUND:                -0.669
REMARK  Name = 
REMARK  8 active torsions:
REMARK  status: ('A' for Active; 'I' for Inactive)
REMARK    1  A    between atoms: C_1  and  C_2
REMARK    2  A    between atoms: C_4  and  C_5
REMARK    3  A    between atoms: C_5  and  C_6
REMARK    4  A    between atoms: C_6  and  N_7
REMARK    5  A    between atoms: C_11  and  C_12
REMARK    6  A    between atoms: C_18  and  C_19
REMARK    7  A    between atoms: C_20  and  O_21
REMARK    8  A    between atoms: O_21  and  C_22
REMARK                            x       y       z     vdW  Elec       q    Type
REMARK                         _______ _______ _______ _____ _____    ______ ____
ROOT
ATOM      1  C   UNL     1      48.580   8.614  12.540  0.00  0.00    +0.000 C 
ENDROOT
BRANCH   1   5
ATOM      2  C   UNL     1      45.517   5.502  10.058  0.00  0.00    +0.000 C 
ATOM      3  C   UNL     1      46.257   5.746  11.341  0.00  0.00    +0.000 A 
ATOM      4  C   UNL     1      47.053   6.908  11.380  0.00  0.00    +0.000 A 
ATOM      5  C   UNL     1      47.776   7.318  12.509  0.00  0.00    +0.000 A 
ATOM      6  C   UNL     1      47.721   6.497  13.636  0.00  0.00    +0.000 A 
ATOM      7  C   UNL     1      46.938   5.327  13.639  0.00  0.00    +0.000 A 
ATOM      8  C   UNL     1      46.898   4.473  14.881  0.00  0.00    +0.000 C 
ATOM      9  C   UNL     1      46.188   4.956  12.494  0.00  0.00    +0.000 A 
BRANCH   9  10
ATOM     10  O   UNL     1      45.345   3.889  12.711  0.00  0.00    +0.000 OA
BRANCH  10  11
ATOM     11  C   UNL     1      43.937   4.043  12.968  0.00  0.00    +0.000 C 
ATOM     12  C   UNL     1      43.042   3.760  11.752  0.00  0.00    +0.000 C 
ATOM     13  O   UNL     1      42.459   5.078  11.801  0.00  0.00    +0.000 OA
ATOM     14  C   UNL     1      43.319   5.444  12.906  0.00  0.00    +0.000 C 
ENDBRANCH  10  11
ENDBRANCH   9  10
ENDBRANCH   1   5
BRANCH   1  15
ATOM     15  C   UNL     1      47.739   9.833  12.933  0.00  0.00    +0.000 C 
BRANCH  15  16
ATOM     16  N   UNL     1      47.462  10.765  11.835  0.00  0.00    +0.000 N 
ATOM     17  C   UNL     1      46.086  10.712  11.491  0.00  0.00    +0.000 A 
ATOM     18  C   UNL     1      45.623  11.509  10.449  0.00  0.00    +0.000 A 
ATOM     19  C   UNL     1      44.273  11.460  10.089  0.00  0.00    +0.000 A 
ATOM     20  C   UNL     1      43.410  10.610  10.783  0.00  0.00    +0.000 A 
ATOM     21  C   UNL     1      43.946   9.854  11.807  0.00  0.00    +0.000 A 
ATOM     22  N   UNL     1      45.247   9.902  12.176  0.00  0.00    +0.000 NA
ATOM     23  H   UNL     1      48.003  10.545  11.004  0.00  0.00    +0.000 HD
BRANCH  20  24
ATOM     24  C   UNL     1      41.975  10.447  10.470  0.00  0.00    +0.000 C 
ATOM     25  N   UNL     1      41.296   9.458  11.127  0.00  0.00    +0.000 N 
ATOM     26  O   UNL     1      41.417  11.145   9.633  0.00  0.00    +0.000 OA
ATOM     27  H   UNL     1      41.756   8.718  11.635  0.00  0.00    +0.000 HD
ATOM     28  H   UNL     1      40.341   9.301  10.828  0.00  0.00    +0.000 HD
ENDBRANCH  20  24
ENDBRANCH  15  16
ENDBRANCH   1  15
TORSDOF 6
ENDMDL
MODEL 9
REMARK VINA RESULT:    -5.903      4.043      8.217
REMARK INTER + INTRA:          -8.643
REMARK INTER:                  -7.905
REMARK INTRA:                  -0.737
REMARK UNBOUND:                -0.669
REMARK  Name = 
REMARK  8 active torsions:
REMARK  status: ('A' for Active; 'I' for Inactive)
REMARK    1  A    between atoms: C_1  and  C_2
REMARK    2  A    between atoms: C_4  and  C_5
REMARK    3  A    between atoms: C_5  and  C_6
REMARK    4  A    between atoms: C_6  and  N_7
REMARK    5  A    between atoms: C_11  and  C_12
REMARK    6  A    between atoms: C_18  and  C_19
REMARK    7  A    between atoms: C_20  and  O_21
REMARK    8  A    between atoms: O_21  and  C_22
REMARK                            x       y       z     vdW  Elec       q    Type
REMARK                         _______ _______ _______ _____ _____    ______ ____
ROOT
ATOM      1  C   UNL     1      49.339   7.945  12.062  0.00  0.00    +0.000 C 
ENDROOT
BRANCH   1   5
ATOM      2  C   UNL     1      46.223   4.235  13.383  0.00  0.00    +0.000 C 
ATOM      3  C   UNL     1      46.324   5.627  12.829  0.00  0.00    +0.000 A 
ATOM      4  C   UNL     1      47.626   6.159  12.738  0.00  0.00    +0.000 A 
ATOM      5  C   UNL     1      47.914   7.423  12.203  0.00  0.00    +0.000 A 
ATOM      6  C   UNL     1      46.834   8.198  11.778  0.00  0.00    +0.000 A 
ATOM      7  C   UNL     1      45.518   7.704  11.853  0.00  0.00    +0.000 A 
ATOM      8  C   UNL     1      44.381   8.570  11.372  0.00  0.00    +0.000 C 
ATOM      9  C   UNL     1      45.260   6.407  12.364  0.00  0.00    +0.000 A 
BRANCH   9  10
ATOM     10  O   UNL     1      43.951   6.006  12.212  0.00  0.00    +0.000 OA
BRANCH  10  11
ATOM     11  C   UNL     1      43.494   5.234  11.086  0.00  0.00    +0.000 C 
ATOM     12  C   UNL     1      43.207   3.761  11.410  0.00  0.00    +0.000 C 
ATOM     13  O   UNL     1      44.151   3.298  10.423  0.00  0.00    +0.000 OA
ATOM     14  C   UNL     1      44.527   4.660  10.110  0.00  0.00    +0.000 C 
ENDBRANCH  10  11
ENDBRANCH   9  10
ENDBRANCH   1   5
BRANCH   1  15
ATOM     15  C   UNL     1      50.171   7.773  13.338  0.00  0.00    +0.000 C 
BRANCH  15  16
ATOM     16  N   UNL     1      49.801   8.673  14.435  0.00  0.00    +0.000 N 
ATOM     17  C   UNL     1      49.352   7.918  15.549  0.00  0.00    +0.000 A 
ATOM     18  C   UNL     1      48.929   8.590  16.691  0.00  0.00    +0.000 A 
ATOM     19  C   UNL     1      48.473   7.862  17.794  0.00  0.00    +0.000 A 
ATOM     20  C   UNL     1      48.449   6.468  17.731  0.00  0.00    +0.000 A 
ATOM     21  C   UNL     1      48.889   5.874  16.564  0.00  0.00    +0.000 A 
ATOM     22  N   UNL     1      49.347   6.566  15.494  0.00  0.00    +0.000 NA
ATOM     23  H   UNL     1      49.057   9.313  14.169  0.00  0.00    +0.000 HD
BRANCH  20  24
ATOM     24  C   UNL     1      47.956   5.596  18.816  0.00  0.00    +0.000 C 
ATOM     25  N   UNL     1      46.603   5.528  19.003  0.00  0.00    +0.000 N 
ATOM     26  O   UNL     1      48.724   4.980  19.545  0.00  0.00    +0.000 OA
ATOM     27  H   UNL     1      45.956   6.187  18.596  0.00  0.00    +0.000 HD
ATOM     28  H   UNL     1      46.292   5.002  19.811  0.00  0.00    +0.000 HD
ENDBRANCH  20  24
ENDBRANCH  15  16
ENDBRANCH   1  15
TORSDOF 6
ENDMDL
