MODEL 1
REMARK VINA RESULT:    -6.992      0.000      0.000
REMARK INTER + INTRA:          -8.103
REMARK INTER:                  -7.810
REMARK INTRA:                  -0.294
REMARK UNBOUND:                -0.294
REMARK  Name = 
REMARK  3 active torsions:
REMARK  status: ('A' for Active; 'I' for Inactive)
REMARK    1  A    between atoms: C_1  and  C_2
REMARK    2  A    between atoms: C_9  and  C_10
REMARK    3  A    between atoms: C_14  and  C_15
REMARK                            x       y       z     vdW  Elec       q    Type
REMARK                         _______ _______ _______ _____ _____    ______ ____
ROOT
ATOM      1  C   UNL     1      43.280   5.098  12.988  0.00  0.00    +0.000 C 
ATOM      2  C   UNL     1      43.800   4.485  11.730  0.00  0.00    +0.000 A 
ATOM      3  C   UNL     1      43.463   4.975  10.480  0.00  0.00    +0.000 A 
ATOM      4  C   UNL     1      43.994   4.368   9.342  0.00  0.00    +0.000 A 
ATOM      5  C   UNL     1      44.854   3.276   9.472  0.00  0.00    +0.000 A 
ATOM      6  N   UNL     1      45.413   2.681   8.359  0.00  0.00    +0.000 N 
ATOM      7  C   UNL     1      45.671   1.245   8.403  0.00  0.00    +0.000 C 
ATOM      8  C   UNL     1      47.091   0.899   7.980  0.00  0.00    +0.000 C 
ATOM      9  C   UNL     1      47.579   1.661   6.742  0.00  0.00    +0.000 C 
ATOM     10  C   UNL     1      47.369   3.165   6.944  0.00  0.00    +0.000 C 
ATOM     11  C   UNL     1      45.931   3.527   7.291  0.00  0.00    +0.000 C 
ATOM     12  N   UNL     1      45.165   2.782  10.686  0.00  0.00    +0.000 NA
ATOM     13  C   UNL     1      44.652   3.391  11.778  0.00  0.00    +0.000 A 
ENDROOT
BRANCH   9  14
ATOM     14  C   UNL     1      47.030   1.180   5.402  0.00  0.00    +0.000 A 
ATOM     15  C   UNL     1      46.522   2.050   4.428  0.00  0.00    +0.000 A 
ATOM     16  C   UNL     1      46.126   1.588   3.180  0.00  0.00    +0.000 A 
ATOM     17  C   UNL     1      46.243   0.238   2.878  0.00  0.00    +0.000 A 
ATOM     18  C   UNL     1      46.770  -0.675   3.804  0.00  0.00    +0.000 A 
ATOM     19  C   UNL     1      47.128  -0.185   5.076  0.00  0.00    +0.000 A 
BRANCH  18  20
ATOM     20  C   UNL     1      47.010  -2.071   3.417  0.00  0.00    +0.000 A 
ATOM     21  C   UNL     1      47.923  -2.419   2.427  0.00  0.00    +0.000 A 
ATOM     22  N   UNL     1      48.200  -3.679   2.035  0.00  0.00    +0.000 NA
ATOM     23  C   UNL     1      47.531  -4.642   2.681  0.00  0.00    +0.000 A 
ATOM     24  N   UNL     1      46.633  -4.452   3.660  0.00  0.00    +0.000 NA
ATOM     25  C   UNL     1      46.395  -3.164   4.001  0.00  0.00    +0.000 A 
ENDBRANCH  18  20
ENDBRANCH   9  14
TORSDOF 2
ENDMDL
MODEL 2
REMARK VINA RESULT:    -6.856      4.076      7.056
REMARK INTER + INTRA:          -7.951
REMARK INTER:                  -7.507
REMARK INTRA:                  -0.444
REMARK UNBOUND:                -0.294
REMARK  Name = 
REMARK  3 active torsions:
REMARK  status: ('A' for Active; 'I' for Inactive)
REMARK    1  A    between atoms: C_1  and  C_2
REMARK    2  A    between atoms: C_9  and  C_10
REMARK    3  A    between atoms: C_14  and  C_15
REMARK                            x       y       z     vdW  Elec       q    Type
REMARK                         _______ _______ _______ _____ _____    ______ ____
ROOT
ATOM      1  C   UNL     1      50.268   8.436  17.112  0.00  0.00    +0.000 C 
ATOM      2  C   UNL     1      49.423   7.711  16.118  0.00  0.00    +0.000 A 
ATOM      3  C   UNL     1      48.900   6.455  16.376  0.00  0.00    +0.000 A 
ATOM      4  C   UNL     1      48.104   5.836  15.412  0.00  0.00    +0.000 A 
ATOM      5  C   UNL     1      47.844   6.483  14.203  0.00  0.00    +0.000 A 
ATOM      6  N   UNL     1      47.034   5.899  13.250  0.00  0.00    +0.000 N 
ATOM      7  C   UNL     1      47.325   6.163  11.844  0.00  0.00    +0.000 C 
ATOM      8  C   UNL     1      46.093   6.612  11.072  0.00  0.00    +0.000 C 
ATOM      9  C   UNL     1      44.829   5.804  11.386  0.00  0.00    +0.000 C 
ATOM     10  C   UNL     1      44.600   5.767  12.900  0.00  0.00    +0.000 C 
ATOM     11  C   UNL     1      45.804   5.243  13.674  0.00  0.00    +0.000 C 
ATOM     12  N   UNL     1      48.371   7.694  13.940  0.00  0.00    +0.000 NA
ATOM     13  C   UNL     1      49.128   8.286  14.890  0.00  0.00    +0.000 A 
ENDROOT
BRANCH   9  14
ATOM     14  C   UNL     1      44.751   4.415  10.761  0.00  0.00    +0.000 A 
ATOM     15  C   UNL     1      43.816   3.450  11.156  0.00  0.00    +0.000 A 
ATOM     16  C   UNL     1      43.707   2.233  10.495  0.00  0.00    +0.000 A 
ATOM     17  C   UNL     1      44.531   1.964   9.411  0.00  0.00    +0.000 A 
ATOM     18  C   UNL     1      45.466   2.904   8.953  0.00  0.00    +0.000 A 
ATOM     19  C   UNL     1      45.582   4.114   9.666  0.00  0.00    +0.000 A 
BRANCH  18  20
ATOM     20  C   UNL     1      46.230   2.653   7.724  0.00  0.00    +0.000 A 
ATOM     21  C   UNL     1      47.019   1.519   7.561  0.00  0.00    +0.000 A 
ATOM     22  N   UNL     1      47.732   1.222   6.455  0.00  0.00    +0.000 NA
ATOM     23  C   UNL     1      47.640   2.109   5.457  0.00  0.00    +0.000 A 
ATOM     24  N   UNL     1      46.912   3.236   5.473  0.00  0.00    +0.000 NA
ATOM     25  C   UNL     1      46.226   3.479   6.614  0.00  0.00    +0.000 A 
ENDBRANCH  18  20
ENDBRANCH   9  14
TORSDOF 2
ENDMDL
MODEL 3
REMARK VINA RESULT:    -6.093      7.327     10.496
REMARK INTER + INTRA:          -7.098
REMARK INTER:                  -6.812
REMARK INTRA:                  -0.287
REMARK UNBOUND:                -0.294
REMARK  Name = 
REMARK  3 active torsions:
REMARK  status: ('A' for Active; 'I' for Inactive)
REMARK    1  A    between atoms: C_1  and  C_2
REMARK    2  A    between atoms: C_9  and  C_10
REMARK    3  A    between atoms: C_14  and  C_15
REMARK                            x       y       z     vdW  Elec       q    Type
REMARK                         _______ _______ _______ _____ _____    ______ ____
ROOT
ATOM      1  C   UNL     1      52.255   6.305  19.431  0.00  0.00    +0.000 C 
ATOM      2  C   UNL     1      51.300   6.615  18.327  0.00  0.00    +0.000 A 
ATOM      3  C   UNL     1      50.076   7.218  18.562  0.00  0.00    +0.000 A 
ATOM      4  C   UNL     1      49.234   7.496  17.485  0.00  0.00    +0.000 A 
ATOM      5  C   UNL     1      49.629   7.165  16.188  0.00  0.00    +0.000 A 
ATOM      6  N   UNL     1      48.821   7.460  15.108  0.00  0.00    +0.000 N 
ATOM      7  C   UNL     1      48.847   6.554  13.962  0.00  0.00    +0.000 C 
ATOM      8  C   UNL     1      49.054   7.291  12.647  0.00  0.00    +0.000 C 
ATOM      9  C   UNL     1      48.224   8.572  12.509  0.00  0.00    +0.000 C 
ATOM     10  C   UNL     1      48.445   9.467  13.732  0.00  0.00    +0.000 C 
ATOM     11  C   UNL     1      48.163   8.759  15.051  0.00  0.00    +0.000 C 
ATOM     12  N   UNL     1      50.808   6.556  15.959  0.00  0.00    +0.000 NA
ATOM     13  C   UNL     1      51.618   6.307  17.012  0.00  0.00    +0.000 A 
ENDROOT
BRANCH   9  14
ATOM     14  C   UNL     1      46.742   8.378  12.202  0.00  0.00    +0.000 A 
ATOM     15  C   UNL     1      45.913   9.412  11.749  0.00  0.00    +0.000 A 
ATOM     16  C   UNL     1      44.595   9.176  11.382  0.00  0.00    +0.000 A 
ATOM     17  C   UNL     1      44.082   7.888  11.451  0.00  0.00    +0.000 A 
ATOM     18  C   UNL     1      44.874   6.808  11.870  0.00  0.00    +0.000 A 
ATOM     19  C   UNL     1      46.196   7.083  12.274  0.00  0.00    +0.000 A 
BRANCH  18  20
ATOM     20  C   UNL     1      44.353   5.437  11.806  0.00  0.00    +0.000 A 
ATOM     21  C   UNL     1      44.165   4.663  12.946  0.00  0.00    +0.000 A 
ATOM     22  N   UNL     1      43.678   3.405  12.958  0.00  0.00    +0.000 NA
ATOM     23  C   UNL     1      43.354   2.902  11.761  0.00  0.00    +0.000 A 
ATOM     24  N   UNL     1      43.472   3.538  10.585  0.00  0.00    +0.000 NA
ATOM     25  C   UNL     1      43.973   4.794  10.642  0.00  0.00    +0.000 A 
ENDBRANCH  18  20
ENDBRANCH   9  14
TORSDOF 2
ENDMDL
MODEL 4
REMARK VINA RESULT:    -5.826      8.744     13.271
REMARK INTER + INTRA:          -6.800
REMARK INTER:                  -6.384
REMARK INTRA:                  -0.416
REMARK UNBOUND:                -0.294
REMARK  Name = 
REMARK  3 active torsions:
REMARK  status: ('A' for Active; 'I' for Inactive)
REMARK    1  A    between atoms: C_1  and  C_2
REMARK    2  A    between atoms: C_9  and  C_10
REMARK    3  A    between atoms: C_14  and  C_15
REMARK                            x       y       z     vdW  Elec       q    Type
REMARK                         _______ _______ _______ _____ _____    ______ ____
ROOT
ATOM      1  C   UNL     1      44.257   6.554  11.098  0.00  0.00    +0.000 C 
ATOM      2  C   UNL     1      45.209   6.072  12.141  0.00  0.00    +0.000 A 
ATOM      3  C   UNL     1      46.507   6.546  12.227  0.00  0.00    +0.000 A 
ATOM      4  C   UNL     1      47.344   6.068  13.235  0.00  0.00    +0.000 A 
ATOM      5  C   UNL     1      46.870   5.118  14.142  0.00  0.00    +0.000 A 
ATOM      6  N   UNL     1      47.675   4.656  15.164  0.00  0.00    +0.000 N 
ATOM      7  C   UNL     1      47.498   3.276  15.607  0.00  0.00    +0.000 C 
ATOM      8  C   UNL     1      47.346   3.168  17.118  0.00  0.00    +0.000 C 
ATOM      9  C   UNL     1      48.329   4.038  17.909  0.00  0.00    +0.000 C 
ATOM     10  C   UNL     1      48.262   5.484  17.407  0.00  0.00    +0.000 C 
ATOM     11  C   UNL     1      48.492   5.607  15.906  0.00  0.00    +0.000 C 
ATOM     12  N   UNL     1      45.616   4.637  14.047  0.00  0.00    +0.000 NA
ATOM     13  C   UNL     1      44.814   5.122  13.073  0.00  0.00    +0.000 A 
ENDROOT
BRANCH   9  14
ATOM     14  C   UNL     1      49.763   3.525  17.986  0.00  0.00    +0.000 A 
ATOM     15  C   UNL     1      50.170   2.305  17.431  0.00  0.00    +0.000 A 
ATOM     16  C   UNL     1      51.504   1.917  17.430  0.00  0.00    +0.000 A 
ATOM     17  C   UNL     1      52.463   2.757  17.980  0.00  0.00    +0.000 A 
ATOM     18  C   UNL     1      52.118   4.003  18.524  0.00  0.00    +0.000 A 
ATOM     19  C   UNL     1      50.754   4.353  18.546  0.00  0.00    +0.000 A 
BRANCH  18  20
ATOM     20  C   UNL     1      53.163   4.931  18.975  0.00  0.00    +0.000 A 
ATOM     21  C   UNL     1      53.603   5.990  18.189  0.00  0.00    +0.000 A 
ATOM     22  N   UNL     1      54.545   6.885  18.549  0.00  0.00    +0.000 NA
ATOM     23  C   UNL     1      55.068   6.710  19.770  0.00  0.00    +0.000 A 
ATOM     24  N   UNL     1      54.731   5.742  20.635  0.00  0.00    +0.000 NA
ATOM     25  C   UNL     1      53.785   4.873  20.210  0.00  0.00    +0.000 A 
ENDBRANCH  18  20
ENDBRANCH   9  14
TORSDOF 2
ENDMDL
MODEL 5
REMARK VINA RESULT:    -5.736      6.789     13.175
REMARK INTER + INTRA:          -6.700
REMARK INTER:                  -6.332
REMARK INTRA:                  -0.368
REMARK UNBOUND:                -0.294
REMARK  Name = 
REMARK  3 active torsions:
REMARK  status: ('A' for Active; 'I' for Inactive)
REMARK    1  A    between atoms: C_1  and  C_2
REMARK    2  A    between atoms: C_9  and  C_10
REMARK    3  A    between atoms: C_14  and  C_15
REMARK                            x       y       z     vdW  Elec       q    Type
REMARK                         _______ _______ _______ _____ _____    ______ ____
ROOT
ATOM      1  C   UNL     1      44.362   3.744   9.412  0.00  0.00    +0.000 C 
ATOM      2  C   UNL     1      44.995   4.499  10.532  0.00  0.00    +0.000 A 
ATOM      3  C   UNL     1      45.105   3.969  11.807  0.00  0.00    +0.000 A 
ATOM      4  C   UNL     1      45.722   4.719  12.808  0.00  0.00    +0.000 A 
ATOM      5  C   UNL     1      46.219   5.991  12.520  0.00  0.00    +0.000 A 
ATOM      6  N   UNL     1      46.860   6.735  13.490  0.00  0.00    +0.000 N 
ATOM      7  C   UNL     1      46.726   8.188  13.442  0.00  0.00    +0.000 C 
ATOM      8  C   UNL     1      48.071   8.896  13.528  0.00  0.00    +0.000 C 
ATOM      9  C   UNL     1      49.018   8.313  14.583  0.00  0.00    +0.000 C 
ATOM     10  C   UNL     1      49.155   6.801  14.379  0.00  0.00    +0.000 C 
ATOM     11  C   UNL     1      47.815   6.075  14.371  0.00  0.00    +0.000 C 
ATOM     12  N   UNL     1      46.093   6.519  11.287  0.00  0.00    +0.000 NA
ATOM     13  C   UNL     1      45.505   5.773  10.326  0.00  0.00    +0.000 A 
ENDROOT
BRANCH   9  14
ATOM     14  C   UNL     1      48.704   8.669  16.033  0.00  0.00    +0.000 A 
ATOM     15  C   UNL     1      48.196   9.915  16.421  0.00  0.00    +0.000 A 
ATOM     16  C   UNL     1      47.824  10.169  17.736  0.00  0.00    +0.000 A 
ATOM     17  C   UNL     1      47.946   9.167  18.689  0.00  0.00    +0.000 A 
ATOM     18  C   UNL     1      48.421   7.891  18.352  0.00  0.00    +0.000 A 
ATOM     19  C   UNL     1      48.827   7.674  17.020  0.00  0.00    +0.000 A 
BRANCH  18  20
ATOM     20  C   UNL     1      48.413   6.809  19.345  0.00  0.00    +0.000 A 
ATOM     21  C   UNL     1      49.085   5.609  19.138  0.00  0.00    +0.000 A 
ATOM     22  N   UNL     1      49.130   4.584  20.013  0.00  0.00    +0.000 NA
ATOM     23  C   UNL     1      48.470   4.779  21.162  0.00  0.00    +0.000 A 
ATOM     24  N   UNL     1      47.791   5.887  21.498  0.00  0.00    +0.000 NA
ATOM     25  C   UNL     1      47.779   6.875  20.573  0.00  0.00    +0.000 A 
ENDBRANCH  18  20
ENDBRANCH   9  14
TORSDOF 2
ENDMDL
MODEL 6
REMARK VINA RESULT:    -5.634      7.536     11.029
REMARK INTER + INTRA:          -6.586
REMARK INTER:                  -6.110
REMARK INTRA:                  -0.476
REMARK UNBOUND:                -0.294
REMARK  Name = 
REMARK  3 active torsions:
REMARK  status: ('A' for Active; 'I' for Inactive)
REMARK    1  A    between atoms: C_1  and  C_2
REMARK    2  A    between atoms: C_9  and  C_10
REMARK    3  A    between atoms: C_14  and  C_15
REMARK                            x       y       z     vdW  Elec       q    Type
REMARK                         _______ _______ _______ _____ _____    ______ ____
ROOT
ATOM      1  C   UNL     1      43.239   1.994  11.787  0.00  0.00    +0.000 C 
ATOM      2  C   UNL     1      43.943   3.308  11.714  0.00  0.00    +0.000 A 
ATOM      3  C   UNL     1      43.527   4.318  10.863  0.00  0.00    +0.000 A 
ATOM      4  C   UNL     1      44.218   5.530  10.853  0.00  0.00    +0.000 A 
ATOM      5  C   UNL     1      45.318   5.713  11.693  0.00  0.00    +0.000 A 
ATOM      6  N   UNL     1      45.995   6.915  11.718  0.00  0.00    +0.000 N 
ATOM      7  C   UNL     1      47.431   6.890  11.981  0.00  0.00    +0.000 C 
ATOM      8  C   UNL     1      47.834   7.864  13.079  0.00  0.00    +0.000 C 
ATOM      9  C   UNL     1      47.165   9.239  12.974  0.00  0.00    +0.000 C 
ATOM     10  C   UNL     1      45.646   9.068  12.860  0.00  0.00    +0.000 C 
ATOM     11  C   UNL     1      45.231   8.156  11.712  0.00  0.00    +0.000 C 
ATOM     12  N   UNL     1      45.739   4.723  12.504  0.00  0.00    +0.000 NA
ATOM     13  C   UNL     1      45.049   3.561  12.512  0.00  0.00    +0.000 A 
ENDROOT
BRANCH   9  14
ATOM     14  C   UNL     1      47.718  10.171  11.901  0.00  0.00    +0.000 A 
ATOM     15  C   UNL     1      46.987  11.240  11.367  0.00  0.00    +0.000 A 
ATOM     16  C   UNL     1      47.559  12.131  10.467  0.00  0.00    +0.000 A 
ATOM     17  C   UNL     1      48.886  11.972  10.093  0.00  0.00    +0.000 A 
ATOM     18  C   UNL     1      49.675  10.937  10.617  0.00  0.00    +0.000 A 
ATOM     19  C   UNL     1      49.058  10.026  11.498  0.00  0.00    +0.000 A 
BRANCH  18  20
ATOM     20  C   UNL     1      51.109  10.869  10.313  0.00  0.00    +0.000 A 
ATOM     21  C   UNL     1      51.899   9.793  10.705  0.00  0.00    +0.000 A 
ATOM     22  N   UNL     1      53.216   9.662  10.445  0.00  0.00    +0.000 NA
ATOM     23  C   UNL     1      53.766  10.662   9.745  0.00  0.00    +0.000 A 
ATOM     24  N   UNL     1      53.124  11.750   9.294  0.00  0.00    +0.000 NA
ATOM     25  C   UNL     1      51.807  11.824   9.595  0.00  0.00    +0.000 A 
ENDBRANCH  18  20
ENDBRANCH   9  14
TORSDOF 2
ENDMDL
MODEL 7
REMARK VINA RESULT:    -5.553      7.295     10.945
REMARK INTER + INTRA:          -6.496
REMARK INTER:                  -6.244
REMARK INTRA:                  -0.252
REMARK UNBOUND:                -0.294
REMARK  Name = 
REMARK  3 active torsions:
REMARK  status: ('A' for Active; 'I' for Inactive)
REMARK    1  A    between atoms: C_1  and  C_2
REMARK    2  A    between atoms: C_9  and  C_10
REMARK    3  A    between atoms: C_14  and  C_15
REMARK                            x       y       z     vdW  Elec       q    Type
REMARK                         _______ _______ _______ _____ _____    ______ ____
ROOT
ATOM      1  C   UNL     1      54.741  11.153  16.700  0.00  0.00    +0.000 C 
ATOM      2  C   UNL     1      53.508  10.683  16.004  0.00  0.00    +0.000 A 
ATOM      3  C   UNL     1      52.345  11.435  15.981  0.00  0.00    +0.000 A 
ATOM      4  C   UNL     1      51.230  10.948  15.298  0.00  0.00    +0.000 A 
ATOM      5  C   UNL     1      51.294   9.712  14.651  0.00  0.00    +0.000 A 
ATOM      6  N   UNL     1      50.210   9.229  13.946  0.00  0.00    +0.000 N 
ATOM      7  C   UNL     1      50.005   7.783  13.908  0.00  0.00    +0.000 C 
ATOM      8  C   UNL     1      49.800   7.265  12.492  0.00  0.00    +0.000 C 
ATOM      9  C   UNL     1      48.864   8.129  11.638  0.00  0.00    +0.000 C 
ATOM     10  C   UNL     1      49.329   9.588  11.675  0.00  0.00    +0.000 C 
ATOM     11  C   UNL     1      49.460  10.139  13.090  0.00  0.00    +0.000 C 
ATOM     12  N   UNL     1      52.416   8.968  14.692  0.00  0.00    +0.000 NA
ATOM     13  C   UNL     1      53.491   9.462  15.345  0.00  0.00    +0.000 A 
ENDROOT
BRANCH   9  14
ATOM     14  C   UNL     1      47.374   7.995  11.936  0.00  0.00    +0.000 A 
ATOM     15  C   UNL     1      46.535   9.096  12.148  0.00  0.00    +0.000 A 
ATOM     16  C   UNL     1      45.165   8.942  12.314  0.00  0.00    +0.000 A 
ATOM     17  C   UNL     1      44.605   7.673  12.258  0.00  0.00    +0.000 A 
ATOM     18  C   UNL     1      45.392   6.537  12.020  0.00  0.00    +0.000 A 
ATOM     19  C   UNL     1      46.784   6.718  11.894  0.00  0.00    +0.000 A 
BRANCH  18  20
ATOM     20  C   UNL     1      44.763   5.223  11.830  0.00  0.00    +0.000 A 
ATOM     21  C   UNL     1      44.398   4.415  12.902  0.00  0.00    +0.000 A 
ATOM     22  N   UNL     1      43.804   3.209  12.797  0.00  0.00    +0.000 NA
ATOM     23  C   UNL     1      43.557   2.796  11.548  0.00  0.00    +0.000 A 
ATOM     24  N   UNL     1      43.845   3.474  10.426  0.00  0.00    +0.000 NA
ATOM     25  C   UNL     1      44.445   4.675  10.600  0.00  0.00    +0.000 A 
ENDBRANCH  18  20
ENDBRANCH   9  14
TORSDOF 2
ENDMDL
MODEL 8
REMARK VINA RESULT:    -5.352      7.668     10.303
REMARK INTER + INTRA:          -6.272
REMARK INTER:                  -5.980
REMARK INTRA:                  -0.292
REMARK UNBOUND:                -0.294
REMARK  Name = 
REMARK  3 active torsions:
REMARK  status: ('A' for Active; 'I' for Inactive)
REMARK    1  A    between atoms: C_1  and  C_2
REMARK    2  A    between atoms: C_9  and  C_10
REMARK    3  A    between atoms: C_14  and  C_15
REMARK                            x       y       z     vdW  Elec       q    Type
REMARK                         _______ _______ _______ _____ _____    ______ ____
ROOT
ATOM      1  C   UNL     1      43.272   2.764  11.789  0.00  0.00    +0.000 C 
ATOM      2  C   UNL     1      44.301   3.844  11.836  0.00  0.00    +0.000 A 
ATOM      3  C   UNL     1      44.285   4.913  10.955  0.00  0.00    +0.000 A 
ATOM      4  C   UNL     1      45.266   5.899  11.060  0.00  0.00    +0.000 A 
ATOM      5  C   UNL     1      46.251   5.800  12.044  0.00  0.00    +0.000 A 
ATOM      6  N   UNL     1      47.212   6.782  12.182  0.00  0.00    +0.000 N 
ATOM      7  C   UNL     1      48.541   6.384  12.637  0.00  0.00    +0.000 C 
ATOM      8  C   UNL     1      49.035   7.236  13.797  0.00  0.00    +0.000 C 
ATOM      9  C   UNL     1      48.773   8.736  13.628  0.00  0.00    +0.000 C 
ATOM     10  C   UNL     1      47.293   8.971  13.307  0.00  0.00    +0.000 C 
ATOM     11  C   UNL     1      46.811   8.180  12.097  0.00  0.00    +0.000 C 
ATOM     12  N   UNL     1      46.283   4.750  12.887  0.00  0.00    +0.000 NA
ATOM     13  C   UNL     1      45.317   3.811  12.780  0.00  0.00    +0.000 A 
ENDROOT
BRANCH   9  14
ATOM     14  C   UNL     1      49.692   9.471  12.657  0.00  0.00    +0.000 A 
ATOM     15  C   UNL     1      49.830  10.865  12.640  0.00  0.00    +0.000 A 
ATOM     16  C   UNL     1      50.753  11.492  11.813  0.00  0.00    +0.000 A 
ATOM     17  C   UNL     1      51.568  10.727  10.989  0.00  0.00    +0.000 A 
ATOM     18  C   UNL     1      51.494   9.327  10.985  0.00  0.00    +0.000 A 
ATOM     19  C   UNL     1      50.523   8.719  11.805  0.00  0.00    +0.000 A 
BRANCH  18  20
ATOM     20  C   UNL     1      52.457   8.535  10.209  0.00  0.00    +0.000 A 
ATOM     21  C   UNL     1      52.298   7.168  10.006  0.00  0.00    +0.000 A 
ATOM     22  N   UNL     1      53.135   6.387   9.293  0.00  0.00    +0.000 NA
ATOM     23  C   UNL     1      54.183   7.016   8.747  0.00  0.00    +0.000 A 
ATOM     24  N   UNL     1      54.453   8.326   8.851  0.00  0.00    +0.000 NA
ATOM     25  C   UNL     1      53.578   9.052   9.585  0.00  0.00    +0.000 A 
ENDBRANCH  18  20
ENDBRANCH   9  14
TORSDOF 2
ENDMDL
MODEL 9
REMARK VINA RESULT:    -5.326      7.690     12.783
REMARK INTER + INTRA:          -6.242
REMARK INTER:                  -6.318
REMARK INTRA:                   0.076
REMARK UNBOUND:                -0.294
REMARK  Name = 
REMARK  3 active torsions:
REMARK  status: ('A' for Active; 'I' for Inactive)
REMARK    1  A    between atoms: C_1  and  C_2
REMARK    2  A    between atoms: C_9  and  C_10
REMARK    3  A    between atoms: C_14  and  C_15
REMARK                            x       y       z     vdW  Elec       q    Type
REMARK                         _______ _______ _______ _____ _____    ______ ____
ROOT
ATOM      1  C   UNL     1      43.257   2.641  11.406  0.00  0.00    +0.000 C 
ATOM      2  C   UNL     1      44.123   3.782  11.825  0.00  0.00    +0.000 A 
ATOM      3  C   UNL     1      45.221   3.607  12.651  0.00  0.00    +0.000 A 
ATOM      4  C   UNL     1      46.001   4.711  12.994  0.00  0.00    +0.000 A 
ATOM      5  C   UNL     1      45.669   5.977  12.507  0.00  0.00    +0.000 A 
ATOM      6  N   UNL     1      46.446   7.076  12.811  0.00  0.00    +0.000 N 
ATOM      7  C   UNL     1      45.785   8.372  12.940  0.00  0.00    +0.000 C 
ATOM      8  C   UNL     1      46.468   9.454  12.117  0.00  0.00    +0.000 C 
ATOM      9  C   UNL     1      47.998   9.436  12.207  0.00  0.00    +0.000 C 
ATOM     10  C   UNL     1      48.520   8.031  11.889  0.00  0.00    +0.000 C 
ATOM     11  C   UNL     1      47.898   6.950  12.764  0.00  0.00    +0.000 C 
ATOM     12  N   UNL     1      44.588   6.154  11.723  0.00  0.00    +0.000 NA
ATOM     13  C   UNL     1      43.852   5.070  11.389  0.00  0.00    +0.000 A 
ENDROOT
BRANCH   9  14
ATOM     14  C   UNL     1      48.599   9.993  13.494  0.00  0.00    +0.000 A 
ATOM     15  C   UNL     1      49.279  11.216  13.554  0.00  0.00    +0.000 A 
ATOM     16  C   UNL     1      49.723  11.740  14.761  0.00  0.00    +0.000 A 
ATOM     17  C   UNL     1      49.481  11.048  15.940  0.00  0.00    +0.000 A 
ATOM     18  C   UNL     1      48.780   9.833  15.944  0.00  0.00    +0.000 A 
ATOM     19  C   UNL     1      48.376   9.306  14.701  0.00  0.00    +0.000 A 
BRANCH  18  20
ATOM     20  C   UNL     1      48.418   9.188  17.213  0.00  0.00    +0.000 A 
ATOM     21  C   UNL     1      47.719   9.858  18.211  0.00  0.00    +0.000 A 
ATOM     22  N   UNL     1      47.344   9.320  19.390  0.00  0.00    +0.000 NA
ATOM     23  C   UNL     1      47.682   8.038  19.571  0.00  0.00    +0.000 A 
ATOM     24  N   UNL     1      48.345   7.270  18.692  0.00  0.00    +0.000 NA
ATOM     25  C   UNL     1      48.698   7.872  17.533  0.00  0.00    +0.000 A 
ENDBRANCH  18  20
ENDBRANCH   9  14
TORSDOF 2
ENDMDL
