MODEL 1
REMARK VINA RESULT:    -7.931      0.000      0.000
REMARK INTER + INTRA:         -12.031
REMARK INTER:                 -11.176
REMARK INTRA:                  -0.855
REMARK UNBOUND:                -0.855
REMARK  Name = 
REMARK  8 active torsions:
REMARK  status: ('A' for Active; 'I' for Inactive)
REMARK    1  A    between atoms: C_1  and  N_2
REMARK    2  A    between atoms: N_2  and  C_3
REMARK    3  A    between atoms: N_2  and  C_10
REMARK    4  A    between atoms: C_3  and  C_4
REMARK    5  A    between atoms: C_10  and  C_11
REMARK    6  A    between atoms: C_14  and  C_15
REMARK    7  A    between atoms: C_15  and  N_16
REMARK    8  A    between atoms: C_17  and  C_19
REMARK                            x       y       z     vdW  Elec       q    Type
REMARK                         _______ _______ _______ _____ _____    ______ ____
ROOT
ATOM      1  C   UNL     1      45.584   5.482  11.878  0.00  0.00    +0.000 A 
ATOM      2  C   UNL     1      46.223   6.675  11.536  0.00  0.00    +0.000 A 
ATOM      3  C   UNL     1      47.319   7.111  12.278  0.00  0.00    +0.000 A 
ATOM      4  C   UNL     1      47.736   6.351  13.369  0.00  0.00    +0.000 A 
ATOM      5  N   UNL     1      47.154   5.170  13.699  0.00  0.00    +0.000 NA
ATOM      6  C   UNL     1      46.104   4.766  12.950  0.00  0.00    +0.000 A 
ENDROOT
BRANCH   1   7
ATOM      7  C   UNL     1      44.367   4.985  11.138  0.00  0.00    +0.000 C 
BRANCH   7   9
ATOM      8  C   UNL     1      43.468   2.753  11.385  0.00  0.00    +0.000 C 
ATOM      9  N   UNL     1      44.460   3.581  10.686  0.00  0.00    +0.000 NA
BRANCH   9  10
ATOM     10  C   UNL     1      44.254   3.538   9.222  0.00  0.00    +0.000 C 
BRANCH  10  11
ATOM     11  C   UNL     1      45.387   2.899   8.449  0.00  0.00    +0.000 A 
ATOM     12  C   UNL     1      46.203   3.668   7.613  0.00  0.00    +0.000 A 
ATOM     13  C   UNL     1      47.227   3.041   6.918  0.00  0.00    +0.000 A 
ATOM     14  N   UNL     1      47.494   1.721   7.003  0.00  0.00    +0.000 NA
ATOM     15  C   UNL     1      46.696   0.995   7.816  0.00  0.00    +0.000 A 
ATOM     16  C   UNL     1      45.647   1.529   8.550  0.00  0.00    +0.000 A 
ENDBRANCH  10  11
ENDBRANCH   9  10
ENDBRANCH   7   9
ENDBRANCH   1   7
BRANCH   4  17
ATOM     17  C   UNL     1      48.856   6.835  14.254  0.00  0.00    +0.000 C 
BRANCH  17  18
ATOM     18  N   UNL     1      48.480   6.908  15.646  0.00  0.00    +0.000 N 
ATOM     19  C   UNL     1      49.264   6.396  16.642  0.00  0.00    +0.000 C 
ATOM     20  O   UNL     1      50.315   5.804  16.411  0.00  0.00    +0.000 OA
ATOM     21  H   UNL     1      47.519   7.177  15.834  0.00  0.00    +0.000 HD
BRANCH  19  22
ATOM     22  C   UNL     1      48.829   6.670  18.015  0.00  0.00    +0.000 A 
ATOM     23  C   UNL     1      48.554   7.977  18.404  0.00  0.00    +0.000 A 
ATOM     24  S   UNL     1      48.008   8.107  20.018  0.00  0.00    +0.000 S 
ATOM     25  C   UNL     1      48.171   6.433  20.260  0.00  0.00    +0.000 A 
ATOM     26  N   UNL     1      47.897   5.852  21.455  0.00  0.00    +0.000 NA
ATOM     27  N   UNL     1      48.070   4.615  21.593  0.00  0.00    +0.000 NA
ATOM     28  N   UNL     1      48.506   3.879  20.527  0.00  0.00    +0.000 N 
ATOM     29  C   UNL     1      48.766   4.355  19.265  0.00  0.00    +0.000 A 
ATOM     30  O   UNL     1      49.093   3.616  18.347  0.00  0.00    +0.000 OA
ATOM     31  C   UNL     1      48.603   5.783  19.127  0.00  0.00    +0.000 A 
ATOM     32  H   UNL     1      48.613   2.885  20.690  0.00  0.00    +0.000 HD
ENDBRANCH  19  22
ENDBRANCH  17  18
ENDBRANCH   4  17
TORSDOF 7
ENDMDL
MODEL 2
REMARK VINA RESULT:    -7.638      3.560      5.104
REMARK INTER + INTRA:         -11.618
REMARK INTER:                 -10.432
REMARK INTRA:                  -1.186
REMARK UNBOUND:                -0.855
REMARK  Name = 
REMARK  8 active torsions:
REMARK  status: ('A' for Active; 'I' for Inactive)
REMARK    1  A    between atoms: C_1  and  N_2
REMARK    2  A    between atoms: N_2  and  C_3
REMARK    3  A    between atoms: N_2  and  C_10
REMARK    4  A    between atoms: C_3  and  C_4
REMARK    5  A    between atoms: C_10  and  C_11
REMARK    6  A    between atoms: C_14  and  C_15
REMARK    7  A    between atoms: C_15  and  N_16
REMARK    8  A    between atoms: C_17  and  C_19
REMARK                            x       y       z     vdW  Elec       q    Type
REMARK                         _______ _______ _______ _____ _____    ______ ____
ROOT
ATOM      1  C   UNL     1      47.332   5.633  13.911  0.00  0.00    +0.000 A 
ATOM      2  C   UNL     1      47.978   6.140  15.041  0.00  0.00    +0.000 A 
ATOM      3  C   UNL     1      48.180   5.320  16.149  0.00  0.00    +0.000 A 
ATOM      4  C   UNL     1      47.706   4.010  16.111  0.00  0.00    +0.000 A 
ATOM      5  N   UNL     1      47.107   3.484  15.013  0.00  0.00    +0.000 NA
ATOM      6  C   UNL     1      46.940   4.299  13.948  0.00  0.00    +0.000 A 
ENDROOT
BRANCH   1   7
ATOM      7  C   UNL     1      47.046   6.487  12.702  0.00  0.00    +0.000 C 
BRANCH   7   9
ATOM      8  C   UNL     1      45.761   8.521  12.953  0.00  0.00    +0.000 C 
ATOM      9  N   UNL     1      45.692   7.079  12.680  0.00  0.00    +0.000 NA
BRANCH   9  10
ATOM     10  C   UNL     1      45.079   6.814  11.360  0.00  0.00    +0.000 C 
BRANCH  10  11
ATOM     11  C   UNL     1      44.543   5.410  11.189  0.00  0.00    +0.000 A 
ATOM     12  C   UNL     1      44.884   4.648  10.066  0.00  0.00    +0.000 A 
ATOM     13  C   UNL     1      44.366   3.367   9.946  0.00  0.00    +0.000 A 
ATOM     14  N   UNL     1      43.550   2.798  10.858  0.00  0.00    +0.000 NA
ATOM     15  C   UNL     1      43.234   3.548  11.936  0.00  0.00    +0.000 A 
ATOM     16  C   UNL     1      43.699   4.838  12.146  0.00  0.00    +0.000 A 
ENDBRANCH  10  11
ENDBRANCH   9  10
ENDBRANCH   7   9
ENDBRANCH   1   7
BRANCH   4  17
ATOM     17  C   UNL     1      47.819   3.121  17.323  0.00  0.00    +0.000 C 
BRANCH  17  18
ATOM     18  N   UNL     1      49.187   2.885  17.721  0.00  0.00    +0.000 N 
ATOM     19  C   UNL     1      50.043   2.122  16.978  0.00  0.00    +0.000 C 
ATOM     20  O   UNL     1      49.689   1.552  15.949  0.00  0.00    +0.000 OA
ATOM     21  H   UNL     1      49.423   3.146  18.674  0.00  0.00    +0.000 HD
BRANCH  19  22
ATOM     22  C   UNL     1      51.438   2.089  17.427  0.00  0.00    +0.000 A 
ATOM     23  C   UNL     1      52.067   0.867  17.640  0.00  0.00    +0.000 A 
ATOM     24  S   UNL     1      53.704   1.014  18.107  0.00  0.00    +0.000 S 
ATOM     25  C   UNL     1      53.608   2.711  18.088  0.00  0.00    +0.000 A 
ATOM     26  N   UNL     1      54.665   3.492  18.425  0.00  0.00    +0.000 NA
ATOM     27  N   UNL     1      54.530   4.741  18.432  0.00  0.00    +0.000 NA
ATOM     28  N   UNL     1      53.329   5.285  18.075  0.00  0.00    +0.000 N 
ATOM     29  C   UNL     1      52.213   4.593  17.672  0.00  0.00    +0.000 A 
ATOM     30  O   UNL     1      51.193   5.161  17.307  0.00  0.00    +0.000 OA
ATOM     31  C   UNL     1      52.364   3.157  17.706  0.00  0.00    +0.000 A 
ATOM     32  H   UNL     1      53.281   6.297  18.084  0.00  0.00    +0.000 HD
ENDBRANCH  19  22
ENDBRANCH  17  18
ENDBRANCH   4  17
TORSDOF 7
ENDMDL
MODEL 3
REMARK VINA RESULT:    -7.609      1.965      2.608
REMARK INTER + INTRA:         -11.579
REMARK INTER:                 -11.304
REMARK INTRA:                  -0.274
REMARK UNBOUND:                -0.855
REMARK  Name = 
REMARK  8 active torsions:
REMARK  status: ('A' for Active; 'I' for Inactive)
REMARK    1  A    between atoms: C_1  and  N_2
REMARK    2  A    between atoms: N_2  and  C_3
REMARK    3  A    between atoms: N_2  and  C_10
REMARK    4  A    between atoms: C_3  and  C_4
REMARK    5  A    between atoms: C_10  and  C_11
REMARK    6  A    between atoms: C_14  and  C_15
REMARK    7  A    between atoms: C_15  and  N_16
REMARK    8  A    between atoms: C_17  and  C_19
REMARK                            x       y       z     vdW  Elec       q    Type
REMARK                         _______ _______ _______ _____ _____    ______ ____
ROOT
ATOM      1  C   UNL     1      44.704   5.110  10.779  0.00  0.00    +0.000 A 
ATOM      2  C   UNL     1      44.242   5.366  12.072  0.00  0.00    +0.000 A 
ATOM      3  C   UNL     1      44.942   6.246  12.894  0.00  0.00    +0.000 A 
ATOM      4  C   UNL     1      46.110   6.833  12.411  0.00  0.00    +0.000 A 
ATOM      5  N   UNL     1      46.559   6.627  11.147  0.00  0.00    +0.000 NA
ATOM      6  C   UNL     1      45.849   5.782  10.368  0.00  0.00    +0.000 A 
ENDROOT
BRANCH   1   7
ATOM      7  C   UNL     1      44.012   4.133   9.861  0.00  0.00    +0.000 C 
BRANCH   7   9
ATOM      8  C   UNL     1      44.319   1.828   9.195  0.00  0.00    +0.000 C 
ATOM      9  N   UNL     1      44.918   3.169   9.202  0.00  0.00    +0.000 NA
BRANCH   9  10
ATOM     10  C   UNL     1      45.192   3.639   7.827  0.00  0.00    +0.000 C 
BRANCH  10  11
ATOM     11  C   UNL     1      46.208   2.810   7.072  0.00  0.00    +0.000 A 
ATOM     12  C   UNL     1      46.790   1.683   7.661  0.00  0.00    +0.000 A 
ATOM     13  C   UNL     1      47.720   0.955   6.935  0.00  0.00    +0.000 A 
ATOM     14  N   UNL     1      48.101   1.264   5.678  0.00  0.00    +0.000 NA
ATOM     15  C   UNL     1      47.527   2.355   5.124  0.00  0.00    +0.000 A 
ATOM     16  C   UNL     1      46.589   3.148   5.769  0.00  0.00    +0.000 A 
ENDBRANCH  10  11
ENDBRANCH   9  10
ENDBRANCH   7   9
ENDBRANCH   1   7
BRANCH   4  17
ATOM     17  C   UNL     1      46.947   7.715  13.302  0.00  0.00    +0.000 C 
BRANCH  17  18
ATOM     18  N   UNL     1      47.408   7.039  14.491  0.00  0.00    +0.000 N 
ATOM     19  C   UNL     1      48.718   6.699  14.677  0.00  0.00    +0.000 C 
ATOM     20  O   UNL     1      49.578   6.908  13.824  0.00  0.00    +0.000 OA
ATOM     21  H   UNL     1      46.685   6.651  15.090  0.00  0.00    +0.000 HD
BRANCH  19  22
ATOM     22  C   UNL     1      49.065   6.149  15.991  0.00  0.00    +0.000 A 
ATOM     23  C   UNL     1      50.075   6.740  16.742  0.00  0.00    +0.000 A 
ATOM     24  S   UNL     1      50.309   6.006  18.268  0.00  0.00    +0.000 S 
ATOM     25  C   UNL     1      49.107   4.848  17.949  0.00  0.00    +0.000 A 
ATOM     26  N   UNL     1      48.802   3.869  18.838  0.00  0.00    +0.000 NA
ATOM     27  N   UNL     1      47.932   3.013  18.538  0.00  0.00    +0.000 NA
ATOM     28  N   UNL     1      47.293   3.105  17.334  0.00  0.00    +0.000 N 
ATOM     29  C   UNL     1      47.487   4.079  16.385  0.00  0.00    +0.000 A 
ATOM     30  O   UNL     1      46.826   4.125  15.356  0.00  0.00    +0.000 OA
ATOM     31  C   UNL     1      48.518   5.034  16.720  0.00  0.00    +0.000 A 
ATOM     32  H   UNL     1      46.590   2.399  17.151  0.00  0.00    +0.000 HD
ENDBRANCH  19  22
ENDBRANCH  17  18
ENDBRANCH   4  17
TORSDOF 7
ENDMDL
MODEL 4
REMARK VINA RESULT:    -7.608      3.760      8.564
REMARK INTER + INTRA:         -11.576
REMARK INTER:                 -10.314
REMARK INTRA:                  -1.263
REMARK UNBOUND:                -0.855
REMARK  Name = 
REMARK  8 active torsions:
REMARK  status: ('A' for Active; 'I' for Inactive)
REMARK    1  A    between atoms: C_1  and  N_2
REMARK    2  A    between atoms: N_2  and  C_3
REMARK    3  A    between atoms: N_2  and  C_10
REMARK    4  A    between atoms: C_3  and  C_4
REMARK    5  A    between atoms: C_10  and  C_11
REMARK    6  A    between atoms: C_14  and  C_15
REMARK    7  A    between atoms: C_15  and  N_16
REMARK    8  A    between atoms: C_17  and  C_19
REMARK                            x       y       z     vdW  Elec       q    Type
REMARK                         _______ _______ _______ _____ _____    ______ ____
ROOT
ATOM      1  C   UNL     1      49.222   7.834  16.226  0.00  0.00    +0.000 A 
ATOM      2  C   UNL     1      48.417   8.883  15.776  0.00  0.00    +0.000 A 
ATOM      3  C   UNL     1      48.046   8.945  14.435  0.00  0.00    +0.000 A 
ATOM      4  C   UNL     1      48.513   7.964  13.562  0.00  0.00    +0.000 A 
ATOM      5  N   UNL     1      49.267   6.916  13.982  0.00  0.00    +0.000 NA
ATOM      6  C   UNL     1      49.596   6.875  15.292  0.00  0.00    +0.000 A 
ENDROOT
BRANCH   1   7
ATOM      7  C   UNL     1      49.691   7.742  17.656  0.00  0.00    +0.000 C 
BRANCH   7   9
ATOM      8  C   UNL     1      51.558   6.827  18.891  0.00  0.00    +0.000 C 
ATOM      9  N   UNL     1      50.459   6.518  17.967  0.00  0.00    +0.000 NA
BRANCH   9  10
ATOM     10  C   UNL     1      49.540   5.515  18.547  0.00  0.00    +0.000 C 
BRANCH  10  11
ATOM     11  C   UNL     1      49.425   4.235  17.749  0.00  0.00    +0.000 A 
ATOM     12  C   UNL     1      48.258   3.940  17.036  0.00  0.00    +0.000 A 
ATOM     13  C   UNL     1      48.194   2.753  16.323  0.00  0.00    +0.000 A 
ATOM     14  N   UNL     1      49.199   1.855  16.265  0.00  0.00    +0.000 NA
ATOM     15  C   UNL     1      50.319   2.157  16.959  0.00  0.00    +0.000 A 
ATOM     16  C   UNL     1      50.479   3.317  17.703  0.00  0.00    +0.000 A 
ENDBRANCH  10  11
ENDBRANCH   9  10
ENDBRANCH   7   9
ENDBRANCH   1   7
BRANCH   4  17
ATOM     17  C   UNL     1      48.214   8.047  12.087  0.00  0.00    +0.000 C 
BRANCH  17  18
ATOM     18  N   UNL     1      47.497   6.895  11.593  0.00  0.00    +0.000 N 
ATOM     19  C   UNL     1      46.135   6.872  11.488  0.00  0.00    +0.000 C 
ATOM     20  O   UNL     1      45.433   7.813  11.849  0.00  0.00    +0.000 OA
ATOM     21  H   UNL     1      48.035   6.036  11.517  0.00  0.00    +0.000 HD
BRANCH  19  22
ATOM     22  C   UNL     1      45.555   5.694  10.835  0.00  0.00    +0.000 A 
ATOM     23  C   UNL     1      45.764   5.484   9.477  0.00  0.00    +0.000 A 
ATOM     24  S   UNL     1      45.064   4.038   8.894  0.00  0.00    +0.000 S 
ATOM     25  C   UNL     1      44.420   3.677  10.424  0.00  0.00    +0.000 A 
ATOM     26  N   UNL     1      43.663   2.571  10.639  0.00  0.00    +0.000 NA
ATOM     27  N   UNL     1      43.177   2.369  11.780  0.00  0.00    +0.000 NA
ATOM     28  N   UNL     1      43.445   3.255  12.786  0.00  0.00    +0.000 N 
ATOM     29  C   UNL     1      44.234   4.375  12.691  0.00  0.00    +0.000 A 
ATOM     30  O   UNL     1      44.475   5.083  13.659  0.00  0.00    +0.000 OA
ATOM     31  C   UNL     1      44.755   4.621  11.366  0.00  0.00    +0.000 A 
ATOM     32  H   UNL     1      43.041   3.034  13.688  0.00  0.00    +0.000 HD
ENDBRANCH  19  22
ENDBRANCH  17  18
ENDBRANCH   4  17
TORSDOF 7
ENDMDL
MODEL 5
REMARK VINA RESULT:    -7.440      1.556      2.130
REMARK INTER + INTRA:         -11.340
REMARK INTER:                 -10.473
REMARK INTRA:                  -0.868
REMARK UNBOUND:                -0.855
REMARK  Name = 
REMARK  8 active torsions:
REMARK  status: ('A' for Active; 'I' for Inactive)
REMARK    1  A    between atoms: C_1  and  N_2
REMARK    2  A    between atoms: N_2  and  C_3
REMARK    3  A    between atoms: N_2  and  C_10
REMARK    4  A    between atoms: C_3  and  C_4
REMARK    5  A    between atoms: C_10  and  C_11
REMARK    6  A    between atoms: C_14  and  C_15
REMARK    7  A    between atoms: C_15  and  N_16
REMARK    8  A    between atoms: C_17  and  C_19
REMARK                            x       y       z     vdW  Elec       q    Type
REMARK                         _______ _______ _______ _____ _____    ______ ____
ROOT
ATOM      1  C   UNL     1      46.041   5.100  12.223  0.00  0.00    +0.000 A 
ATOM      2  C   UNL     1      46.743   6.115  12.878  0.00  0.00    +0.000 A 
ATOM      3  C   UNL     1      47.328   5.862  14.117  0.00  0.00    +0.000 A 
ATOM      4  C   UNL     1      47.175   4.601  14.688  0.00  0.00    +0.000 A 
ATOM      5  N   UNL     1      46.528   3.589  14.056  0.00  0.00    +0.000 NA
ATOM      6  C   UNL     1      45.985   3.860  12.848  0.00  0.00    +0.000 A 
ENDROOT
BRANCH   1   7
ATOM      7  C   UNL     1      45.350   5.329  10.902  0.00  0.00    +0.000 C 
BRANCH   7   9
ATOM      8  C   UNL     1      43.119   4.404  11.043  0.00  0.00    +0.000 C 
ATOM      9  N   UNL     1      44.464   4.225  10.479  0.00  0.00    +0.000 NA
BRANCH   9  10
ATOM     10  C   UNL     1      44.422   4.190   9.000  0.00  0.00    +0.000 C 
BRANCH  10  11
ATOM     11  C   UNL     1      45.434   3.261   8.367  0.00  0.00    +0.000 A 
ATOM     12  C   UNL     1      45.447   1.898   8.681  0.00  0.00    +0.000 A 
ATOM     13  C   UNL     1      46.395   1.083   8.081  0.00  0.00    +0.000 A 
ATOM     14  N   UNL     1      47.314   1.525   7.197  0.00  0.00    +0.000 NA
ATOM     15  C   UNL     1      47.286   2.843   6.905  0.00  0.00    +0.000 A 
ATOM     16  C   UNL     1      46.379   3.739   7.453  0.00  0.00    +0.000 A 
ENDBRANCH  10  11
ENDBRANCH   9  10
ENDBRANCH   7   9
ENDBRANCH   1   7
BRANCH   4  17
ATOM     17  C   UNL     1      47.710   4.316  16.068  0.00  0.00    +0.000 C 
BRANCH  17  18
ATOM     18  N   UNL     1      47.574   5.438  16.967  0.00  0.00    +0.000 N 
ATOM     19  C   UNL     1      48.617   6.270  17.261  0.00  0.00    +0.000 C 
ATOM     20  O   UNL     1      49.747   6.088  16.814  0.00  0.00    +0.000 OA
ATOM     21  H   UNL     1      46.723   5.462  17.522  0.00  0.00    +0.000 HD
BRANCH  19  22
ATOM     22  C   UNL     1      48.298   7.449  18.071  0.00  0.00    +0.000 A 
ATOM     23  C   UNL     1      48.382   8.717  17.507  0.00  0.00    +0.000 A 
ATOM     24  S   UNL     1      47.923   9.970  18.575  0.00  0.00    +0.000 S 
ATOM     25  C   UNL     1      47.648   8.862  19.834  0.00  0.00    +0.000 A 
ATOM     26  N   UNL     1      47.256   9.265  21.069  0.00  0.00    +0.000 NA
ATOM     27  N   UNL     1      47.103   8.410  21.977  0.00  0.00    +0.000 NA
ATOM     28  N   UNL     1      47.309   7.089  21.690  0.00  0.00    +0.000 N 
ATOM     29  C   UNL     1      47.658   6.569  20.468  0.00  0.00    +0.000 A 
ATOM     30  O   UNL     1      47.762   5.365  20.280  0.00  0.00    +0.000 OA
ATOM     31  C   UNL     1      47.872   7.563  19.442  0.00  0.00    +0.000 A 
ATOM     32  H   UNL     1      47.157   6.442  22.455  0.00  0.00    +0.000 HD
ENDBRANCH  19  22
ENDBRANCH  17  18
ENDBRANCH   4  17
TORSDOF 7
ENDMDL
MODEL 6
REMARK VINA RESULT:    -7.361      3.900      8.157
REMARK INTER + INTRA:         -11.228
REMARK INTER:                  -8.930
REMARK INTRA:                  -2.298
REMARK UNBOUND:                -0.855
REMARK  Name = 
REMARK  8 active torsions:
REMARK  status: ('A' for Active; 'I' for Inactive)
REMARK    1  A    between atoms: C_1  and  N_2
REMARK    2  A    between atoms: N_2  and  C_3
REMARK    3  A    between atoms: N_2  and  C_10
REMARK    4  A    between atoms: C_3  and  C_4
REMARK    5  A    between atoms: C_10  and  C_11
REMARK    6  A    between atoms: C_14  and  C_15
REMARK    7  A    between atoms: C_15  and  N_16
REMARK    8  A    between atoms: C_17  and  C_19
REMARK                            x       y       z     vdW  Elec       q    Type
REMARK                         _______ _______ _______ _____ _____    ______ ____
ROOT
ATOM      1  C   UNL     1      51.112   7.154  17.158  0.00  0.00    +0.000 A 
ATOM      2  C   UNL     1      51.126   7.104  15.762  0.00  0.00    +0.000 A 
ATOM      3  C   UNL     1      50.192   7.836  15.034  0.00  0.00    +0.000 A 
ATOM      4  C   UNL     1      49.241   8.586  15.723  0.00  0.00    +0.000 A 
ATOM      5  N   UNL     1      49.228   8.679  17.077  0.00  0.00    +0.000 NA
ATOM      6  C   UNL     1      50.158   7.970  17.755  0.00  0.00    +0.000 A 
ENDROOT
BRANCH   1   7
ATOM      7  C   UNL     1      52.071   6.347  17.997  0.00  0.00    +0.000 C 
BRANCH   7   9
ATOM      8  C   UNL     1      53.217   4.221  18.124  0.00  0.00    +0.000 C 
ATOM      9  N   UNL     1      51.938   4.884  17.838  0.00  0.00    +0.000 NA
BRANCH   9  10
ATOM     10  C   UNL     1      50.872   4.403  18.745  0.00  0.00    +0.000 C 
BRANCH  10  11
ATOM     11  C   UNL     1      49.594   3.994  18.048  0.00  0.00    +0.000 A 
ATOM     12  C   UNL     1      49.543   2.830  17.274  0.00  0.00    +0.000 A 
ATOM     13  C   UNL     1      48.352   2.495  16.647  0.00  0.00    +0.000 A 
ATOM     14  N   UNL     1      47.221   3.225  16.744  0.00  0.00    +0.000 NA
ATOM     15  C   UNL     1      47.289   4.345  17.497  0.00  0.00    +0.000 A 
ATOM     16  C   UNL     1      48.432   4.765  18.161  0.00  0.00    +0.000 A 
ENDBRANCH  10  11
ENDBRANCH   9  10
ENDBRANCH   7   9
ENDBRANCH   1   7
BRANCH   4  17
ATOM     17  C   UNL     1      48.154   9.315  14.975  0.00  0.00    +0.000 C 
BRANCH  17  18
ATOM     18  N   UNL     1      47.163   8.427  14.416  0.00  0.00    +0.000 N 
ATOM     19  C   UNL     1      46.987   8.285  13.068  0.00  0.00    +0.000 C 
ATOM     20  O   UNL     1      47.630   8.937  12.250  0.00  0.00    +0.000 OA
ATOM     21  H   UNL     1      46.472   8.065  15.067  0.00  0.00    +0.000 HD
BRANCH  19  22
ATOM     22  C   UNL     1      46.047   7.243  12.643  0.00  0.00    +0.000 A 
ATOM     23  C   UNL     1      44.929   7.586  11.891  0.00  0.00    +0.000 A 
ATOM     24  S   UNL     1      43.974   6.244  11.437  0.00  0.00    +0.000 S 
ATOM     25  C   UNL     1      44.995   5.173  12.272  0.00  0.00    +0.000 A 
ATOM     26  N   UNL     1      44.745   3.840  12.327  0.00  0.00    +0.000 NA
ATOM     27  N   UNL     1      45.510   3.096  12.991  0.00  0.00    +0.000 NA
ATOM     28  N   UNL     1      46.592   3.643  13.620  0.00  0.00    +0.000 N 
ATOM     29  C   UNL     1      46.965   4.965  13.591  0.00  0.00    +0.000 A 
ATOM     30  O   UNL     1      47.988   5.363  14.131  0.00  0.00    +0.000 OA
ATOM     31  C   UNL     1      46.058   5.819  12.860  0.00  0.00    +0.000 A 
ATOM     32  H   UNL     1      47.183   2.995  14.127  0.00  0.00    +0.000 HD
ENDBRANCH  19  22
ENDBRANCH  17  18
ENDBRANCH   4  17
TORSDOF 7
ENDMDL
MODEL 7
REMARK VINA RESULT:    -7.082      3.552      9.044
REMARK INTER + INTRA:         -10.836
REMARK INTER:                  -9.586
REMARK INTRA:                  -1.250
REMARK UNBOUND:                -0.855
REMARK  Name = 
REMARK  8 active torsions:
REMARK  status: ('A' for Active; 'I' for Inactive)
REMARK    1  A    between atoms: C_1  and  N_2
REMARK    2  A    between atoms: N_2  and  C_3
REMARK    3  A    between atoms: N_2  and  C_10
REMARK    4  A    between atoms: C_3  and  C_4
REMARK    5  A    between atoms: C_10  and  C_11
REMARK    6  A    between atoms: C_14  and  C_15
REMARK    7  A    between atoms: C_15  and  N_16
REMARK    8  A    between atoms: C_17  and  C_19
REMARK                            x       y       z     vdW  Elec       q    Type
REMARK                         _______ _______ _______ _____ _____    ______ ____
ROOT
ATOM      1  C   UNL     1      49.371   7.882  16.210  0.00  0.00    +0.000 A 
ATOM      2  C   UNL     1      48.422   8.823  15.804  0.00  0.00    +0.000 A 
ATOM      3  C   UNL     1      47.851   8.729  14.537  0.00  0.00    +0.000 A 
ATOM      4  C   UNL     1      48.264   7.705  13.688  0.00  0.00    +0.000 A 
ATOM      5  N   UNL     1      49.158   6.758  14.071  0.00  0.00    +0.000 NA
ATOM      6  C   UNL     1      49.681   6.866  15.313  0.00  0.00    +0.000 A 
ENDROOT
BRANCH   1   7
ATOM      7  C   UNL     1      50.053   7.960  17.552  0.00  0.00    +0.000 C 
BRANCH   7   9
ATOM      8  C   UNL     1      52.022   7.154  18.702  0.00  0.00    +0.000 C 
ATOM      9  N   UNL     1      50.856   6.768  17.898  0.00  0.00    +0.000 NA
BRANCH   9  10
ATOM     10  C   UNL     1      49.995   5.813  18.629  0.00  0.00    +0.000 C 
BRANCH  10  11
ATOM     11  C   UNL     1      49.801   4.484  17.932  0.00  0.00    +0.000 A 
ATOM     12  C   UNL     1      48.550   4.122  17.421  0.00  0.00    +0.000 A 
ATOM     13  C   UNL     1      48.415   2.892  16.794  0.00  0.00    +0.000 A 
ATOM     14  N   UNL     1      49.427   2.014  16.637  0.00  0.00    +0.000 NA
ATOM     15  C   UNL     1      50.628   2.381  17.136  0.00  0.00    +0.000 A 
ATOM     16  C   UNL     1      50.863   3.587  17.780  0.00  0.00    +0.000 A 
ENDBRANCH  10  11
ENDBRANCH   9  10
ENDBRANCH   7   9
ENDBRANCH   1   7
BRANCH   4  17
ATOM     17  C   UNL     1      47.743   7.624  12.276  0.00  0.00    +0.000 C 
BRANCH  17  18
ATOM     18  N   UNL     1      47.013   6.407  12.015  0.00  0.00    +0.000 N 
ATOM     19  C   UNL     1      45.689   6.267  12.324  0.00  0.00    +0.000 C 
ATOM     20  O   UNL     1      45.049   7.154  12.884  0.00  0.00    +0.000 OA
ATOM     21  H   UNL     1      47.575   5.595  11.776  0.00  0.00    +0.000 HD
BRANCH  19  22
ATOM     22  C   UNL     1      45.044   5.031  11.870  0.00  0.00    +0.000 A 
ATOM     23  C   UNL     1      44.331   4.252  12.775  0.00  0.00    +0.000 A 
ATOM     24  S   UNL     1      43.600   2.880  12.066  0.00  0.00    +0.000 S 
ATOM     25  C   UNL     1      44.255   3.258  10.543  0.00  0.00    +0.000 A 
ATOM     26  N   UNL     1      44.050   2.467   9.460  0.00  0.00    +0.000 NA
ATOM     27  N   UNL     1      44.588   2.770   8.365  0.00  0.00    +0.000 NA
ATOM     28  N   UNL     1      45.346   3.905   8.286  0.00  0.00    +0.000 N 
ATOM     29  C   UNL     1      45.578   4.798   9.304  0.00  0.00    +0.000 A 
ATOM     30  O   UNL     1      46.219   5.826   9.132  0.00  0.00    +0.000 OA
ATOM     31  C   UNL     1      44.990   4.420  10.567  0.00  0.00    +0.000 A 
ATOM     32  H   UNL     1      45.743   4.108   7.376  0.00  0.00    +0.000 HD
ENDBRANCH  19  22
ENDBRANCH  17  18
ENDBRANCH   4  17
TORSDOF 7
ENDMDL
MODEL 8
REMARK VINA RESULT:    -7.002      4.110     10.147
REMARK INTER + INTRA:         -10.723
REMARK INTER:                  -9.505
REMARK INTRA:                  -1.218
REMARK UNBOUND:                -0.855
REMARK  Name = 
REMARK  8 active torsions:
REMARK  status: ('A' for Active; 'I' for Inactive)
REMARK    1  A    between atoms: C_1  and  N_2
REMARK    2  A    between atoms: N_2  and  C_3
REMARK    3  A    between atoms: N_2  and  C_10
REMARK    4  A    between atoms: C_3  and  C_4
REMARK    5  A    between atoms: C_10  and  C_11
REMARK    6  A    between atoms: C_14  and  C_15
REMARK    7  A    between atoms: C_15  and  N_16
REMARK    8  A    between atoms: C_17  and  C_19
REMARK                            x       y       z     vdW  Elec       q    Type
REMARK                         _______ _______ _______ _____ _____    ______ ____
ROOT
ATOM      1  C   UNL     1      51.442   3.133  17.626  0.00  0.00    +0.000 A 
ATOM      2  C   UNL     1      50.752   4.278  18.032  0.00  0.00    +0.000 A 
ATOM      3  C   UNL     1      49.376   4.363  17.833  0.00  0.00    +0.000 A 
ATOM      4  C   UNL     1      48.721   3.307  17.204  0.00  0.00    +0.000 A 
ATOM      5  N   UNL     1      49.362   2.170  16.833  0.00  0.00    +0.000 NA
ATOM      6  C   UNL     1      50.694   2.110  17.054  0.00  0.00    +0.000 A 
ENDROOT
BRANCH   1   7
ATOM      7  C   UNL     1      52.937   3.004  17.776  0.00  0.00    +0.000 C 
BRANCH   7   9
ATOM      8  C   UNL     1      54.001   0.958  18.506  0.00  0.00    +0.000 C 
ATOM      9  N   UNL     1      53.365   2.207  18.945  0.00  0.00    +0.000 NA
BRANCH   9  10
ATOM     10  C   UNL     1      54.293   3.021  19.760  0.00  0.00    +0.000 C 
BRANCH  10  11
ATOM     11  C   UNL     1      53.696   4.302  20.299  0.00  0.00    +0.000 A 
ATOM     12  C   UNL     1      52.667   4.266  21.246  0.00  0.00    +0.000 A 
ATOM     13  C   UNL     1      52.144   5.464  21.710  0.00  0.00    +0.000 A 
ATOM     14  N   UNL     1      52.574   6.678  21.307  0.00  0.00    +0.000 NA
ATOM     15  C   UNL     1      53.569   6.693  20.393  0.00  0.00    +0.000 A 
ATOM     16  C   UNL     1      54.156   5.550  19.868  0.00  0.00    +0.000 A 
ENDBRANCH  10  11
ENDBRANCH   9  10
ENDBRANCH   7   9
ENDBRANCH   1   7
BRANCH   4  17
ATOM     17  C   UNL     1      47.251   3.401  16.884  0.00  0.00    +0.000 C 
BRANCH  17  18
ATOM     18  N   UNL     1      46.953   4.416  15.902  0.00  0.00    +0.000 N 
ATOM     19  C   UNL     1      46.972   4.161  14.559  0.00  0.00    +0.000 C 
ATOM     20  O   UNL     1      47.287   3.065  14.104  0.00  0.00    +0.000 OA
ATOM     21  H   UNL     1      46.924   5.371  16.245  0.00  0.00    +0.000 HD
BRANCH  19  22
ATOM     22  C   UNL     1      46.508   5.245  13.687  0.00  0.00    +0.000 A 
ATOM     23  C   UNL     1      47.324   6.349  13.464  0.00  0.00    +0.000 A 
ATOM     24  S   UNL     1      46.651   7.487  12.382  0.00  0.00    +0.000 S 
ATOM     25  C   UNL     1      45.232   6.565  12.219  0.00  0.00    +0.000 A 
ATOM     26  N   UNL     1      44.195   6.978  11.447  0.00  0.00    +0.000 NA
ATOM     27  N   UNL     1      43.152   6.278  11.391  0.00  0.00    +0.000 NA
ATOM     28  N   UNL     1      43.098   5.104  12.089  0.00  0.00    +0.000 N 
ATOM     29  C   UNL     1      44.102   4.571  12.859  0.00  0.00    +0.000 A 
ATOM     30  O   UNL     1      43.995   3.480  13.401  0.00  0.00    +0.000 OA
ATOM     31  C   UNL     1      45.281   5.401  12.950  0.00  0.00    +0.000 A 
ATOM     32  H   UNL     1      42.240   4.574  11.995  0.00  0.00    +0.000 HD
ENDBRANCH  19  22
ENDBRANCH  17  18
ENDBRANCH   4  17
TORSDOF 7
ENDMDL
MODEL 9
REMARK VINA RESULT:    -6.918      4.119      9.184
REMARK INTER + INTRA:         -10.604
REMARK INTER:                  -9.263
REMARK INTRA:                  -1.341
REMARK UNBOUND:                -0.855
REMARK  Name = 
REMARK  8 active torsions:
REMARK  status: ('A' for Active; 'I' for Inactive)
REMARK    1  A    between atoms: C_1  and  N_2
REMARK    2  A    between atoms: N_2  and  C_3
REMARK    3  A    between atoms: N_2  and  C_10
REMARK    4  A    between atoms: C_3  and  C_4
REMARK    5  A    between atoms: C_10  and  C_11
REMARK    6  A    between atoms: C_14  and  C_15
REMARK    7  A    between atoms: C_15  and  N_16
REMARK    8  A    between atoms: C_17  and  C_19
REMARK                            x       y       z     vdW  Elec       q    Type
REMARK                         _______ _______ _______ _____ _____    ______ ____
ROOT
ATOM      1  C   UNL     1      51.420   3.142  17.784  0.00  0.00    +0.000 A 
ATOM      2  C   UNL     1      50.680   4.209  18.299  0.00  0.00    +0.000 A 
ATOM      3  C   UNL     1      49.309   4.278  18.063  0.00  0.00    +0.000 A 
ATOM      4  C   UNL     1      48.710   3.285  17.290  0.00  0.00    +0.000 A 
ATOM      5  N   UNL     1      49.400   2.220  16.809  0.00  0.00    +0.000 NA
ATOM      6  C   UNL     1      50.725   2.173  17.069  0.00  0.00    +0.000 A 
ENDROOT
BRANCH   1   7
ATOM      7  C   UNL     1      52.913   3.040  17.971  0.00  0.00    +0.000 C 
BRANCH   7   9
ATOM      8  C   UNL     1      54.271   4.035  19.708  0.00  0.00    +0.000 C 
ATOM      9  N   UNL     1      53.553   4.283  18.450  0.00  0.00    +0.000 NA
BRANCH   9  10
ATOM     10  C   UNL     1      54.471   4.780  17.401  0.00  0.00    +0.000 C 
BRANCH  10  11
ATOM     11  C   UNL     1      53.951   5.971  16.627  0.00  0.00    +0.000 A 
ATOM     12  C   UNL     1      54.452   6.270  15.356  0.00  0.00    +0.000 A 
ATOM     13  C   UNL     1      53.951   7.375  14.684  0.00  0.00    +0.000 A 
ATOM     14  N   UNL     1      52.994   8.186  15.180  0.00  0.00    +0.000 NA
ATOM     15  C   UNL     1      52.522   7.881  16.409  0.00  0.00    +0.000 A 
ATOM     16  C   UNL     1      52.959   6.800  17.160  0.00  0.00    +0.000 A 
ENDBRANCH  10  11
ENDBRANCH   9  10
ENDBRANCH   7   9
ENDBRANCH   1   7
BRANCH   4  17
ATOM     17  C   UNL     1      47.248   3.373  16.932  0.00  0.00    +0.000 C 
BRANCH  17  18
ATOM     18  N   UNL     1      46.970   4.396  15.951  0.00  0.00    +0.000 N 
ATOM     19  C   UNL     1      46.990   4.144  14.608  0.00  0.00    +0.000 C 
ATOM     20  O   UNL     1      47.288   3.043  14.151  0.00  0.00    +0.000 OA
ATOM     21  H   UNL     1      46.957   5.351  16.296  0.00  0.00    +0.000 HD
BRANCH  19  22
ATOM     22  C   UNL     1      46.547   5.237  13.737  0.00  0.00    +0.000 A 
ATOM     23  C   UNL     1      47.370   6.341  13.541  0.00  0.00    +0.000 A 
ATOM     24  S   UNL     1      46.722   7.491  12.456  0.00  0.00    +0.000 S 
ATOM     25  C   UNL     1      45.305   6.575  12.255  0.00  0.00    +0.000 A 
ATOM     26  N   UNL     1      44.285   6.998  11.466  0.00  0.00    +0.000 NA
ATOM     27  N   UNL     1      43.242   6.302  11.381  0.00  0.00    +0.000 NA
ATOM     28  N   UNL     1      43.170   5.121  12.066  0.00  0.00    +0.000 N 
ATOM     29  C   UNL     1      44.157   4.578  12.851  0.00  0.00    +0.000 A 
ATOM     30  O   UNL     1      44.036   3.482  13.381  0.00  0.00    +0.000 OA
ATOM     31  C   UNL     1      45.336   5.404  12.975  0.00  0.00    +0.000 A 
ATOM     32  H   UNL     1      42.313   4.594  11.949  0.00  0.00    +0.000 HD
ENDBRANCH  19  22
ENDBRANCH  17  18
ENDBRANCH   4  17
TORSDOF 7
ENDMDL
