MODEL 1
REMARK VINA RESULT:    -7.852      0.000      0.000
REMARK INTER + INTRA:         -12.018
REMARK INTER:                 -11.066
REMARK INTRA:                  -0.953
REMARK UNBOUND:                -0.953
REMARK  Name = 
REMARK  9 active torsions:
REMARK  status: ('A' for Active; 'I' for Inactive)
REMARK    1  A    between atoms: C_1  and  O_2
REMARK    2  A    between atoms: O_2  and  C_3
REMARK    3  A    between atoms: C_5  and  C_6
REMARK    4  A    between atoms: C_6  and  C_7
REMARK    5  A    between atoms: C_7  and  N_8
REMARK    6  A    between atoms: C_12  and  C_13
REMARK    7  A    between atoms: C_21  and  N_22
REMARK    8  A    between atoms: N_22  and  C_23
REMARK    9  A    between atoms: N_25  and  C_26
REMARK                            x       y       z     vdW  Elec       q    Type
REMARK                         _______ _______ _______ _____ _____    ______ ____
ROOT
ATOM      1  C   UNL     1      46.704   5.387  13.844  0.00  0.00    +0.000 A 
ATOM      2  C   UNL     1      45.445   4.882  13.458  0.00  0.00    +0.000 A 
ATOM      3  C   UNL     1      44.519   5.699  12.796  0.00  0.00    +0.000 A 
ATOM      4  C   UNL     1      44.901   7.025  12.538  0.00  0.00    +0.000 A 
ATOM      5  C   UNL     1      46.136   7.549  12.935  0.00  0.00    +0.000 A 
ATOM      6 CL   UNL     1      46.311   9.250  12.667  0.00  0.00    +0.000 Cl
ATOM      7  C   UNL     1      47.083   6.735  13.569  0.00  0.00    +0.000 A 
ENDROOT
BRANCH   1   9
ATOM      8  C   UNL     1      47.333   4.115  15.777  0.00  0.00    +0.000 C 
ATOM      9  O   UNL     1      47.668   4.650  14.504  0.00  0.00    +0.000 OA
ENDBRANCH   1   9
BRANCH   7  10
ATOM     10  N   UNL     1      48.355   7.176  14.049  0.00  0.00    +0.000 N 
ATOM     11  H   UNL     1      48.551   6.681  14.923  0.00  0.00    +0.000 HD
BRANCH  10  12
ATOM     12  C   UNL     1      49.558   7.424  13.288  0.00  0.00    +0.000 C 
ATOM     13  C   UNL     1      49.900   8.913  13.093  0.00  0.00    +0.000 C 
ATOM     14  N   UNL     1      49.799   8.761  11.627  0.00  0.00    +0.000 NA
ATOM     15  C   UNL     1      51.128   8.777  11.017  0.00  0.00    +0.000 C 
ATOM     16  C   UNL     1      49.318   7.374  11.767  0.00  0.00    +0.000 C 
ENDBRANCH  10  12
ENDBRANCH   7  10
BRANCH   3  17
ATOM     17  C   UNL     1      43.132   5.171  12.418  0.00  0.00    +0.000 C 
BRANCH  17  18
ATOM     18  C   UNL     1      43.142   4.414  11.083  0.00  0.00    +0.000 C 
BRANCH  18  19
ATOM     19  N   UNL     1      43.914   5.029  10.000  0.00  0.00    +0.000 N 
ATOM     20  C   UNL     1      44.673   4.022   9.340  0.00  0.00    +0.000 A 
ATOM     21  C   UNL     1      45.508   4.378   8.287  0.00  0.00    +0.000 A 
ATOM     22  C   UNL     1      46.260   3.385   7.644  0.00  0.00    +0.000 A 
ATOM     23  C   UNL     1      46.170   2.054   8.063  0.00  0.00    +0.000 A 
ATOM     24  C   UNL     1      45.305   1.788   9.106  0.00  0.00    +0.000 A 
ATOM     25  N   UNL     1      44.566   2.733   9.733  0.00  0.00    +0.000 NA
ATOM     26  H   UNL     1      44.566   5.731  10.340  0.00  0.00    +0.000 HD
BRANCH  23  27
ATOM     27  C   UNL     1      46.984   1.009   7.397  0.00  0.00    +0.000 C 
ATOM     28  N   UNL     1      47.867   1.371   6.418  0.00  0.00    +0.000 N 
ATOM     29  O   UNL     1      46.870  -0.172   7.714  0.00  0.00    +0.000 OA
ATOM     30  H   UNL     1      48.032   2.304   6.077  0.00  0.00    +0.000 HD
ATOM     31  H   UNL     1      48.393   0.621   5.987  0.00  0.00    +0.000 HD
ENDBRANCH  23  27
ENDBRANCH  18  19
ENDBRANCH  17  18
ENDBRANCH   3  17
TORSDOF 7
ENDMDL
MODEL 2
REMARK VINA RESULT:    -7.844      1.288      1.775
REMARK INTER + INTRA:         -12.006
REMARK INTER:                 -11.099
REMARK INTRA:                  -0.907
REMARK UNBOUND:                -0.953
REMARK  Name = 
REMARK  9 active torsions:
REMARK  status: ('A' for Active; 'I' for Inactive)
REMARK    1  A    between atoms: C_1  and  O_2
REMARK    2  A    between atoms: O_2  and  C_3
REMARK    3  A    between atoms: C_5  and  C_6
REMARK    4  A    between atoms: C_6  and  C_7
REMARK    5  A    between atoms: C_7  and  N_8
REMARK    6  A    between atoms: C_12  and  C_13
REMARK    7  A    between atoms: C_21  and  N_22
REMARK    8  A    between atoms: N_22  and  C_23
REMARK    9  A    between atoms: N_25  and  C_26
REMARK                            x       y       z     vdW  Elec       q    Type
REMARK                         _______ _______ _______ _____ _____    ______ ____
ROOT
ATOM      1  C   UNL     1      46.783   5.074  13.823  0.00  0.00    +0.000 A 
ATOM      2  C   UNL     1      45.464   4.708  13.482  0.00  0.00    +0.000 A 
ATOM      3  C   UNL     1      44.633   5.595  12.785  0.00  0.00    +0.000 A 
ATOM      4  C   UNL     1      45.171   6.848  12.446  0.00  0.00    +0.000 A 
ATOM      5  C   UNL     1      46.468   7.236  12.798  0.00  0.00    +0.000 A 
ATOM      6 CL   UNL     1      46.846   8.884  12.431  0.00  0.00    +0.000 Cl
ATOM      7  C   UNL     1      47.319   6.347  13.467  0.00  0.00    +0.000 A 
ENDROOT
BRANCH   1   9
ATOM      8  C   UNL     1      47.339   3.933  15.858  0.00  0.00    +0.000 C 
ATOM      9  O   UNL     1      47.661   4.261  14.513  0.00  0.00    +0.000 OA
ENDBRANCH   1   9
BRANCH   7  10
ATOM     10  N   UNL     1      48.645   6.654  13.905  0.00  0.00    +0.000 N 
ATOM     11  H   UNL     1      49.218   6.831  13.075  0.00  0.00    +0.000 HD
BRANCH  10  12
ATOM     12  C   UNL     1      49.048   7.474  15.024  0.00  0.00    +0.000 C 
ATOM     13  C   UNL     1      50.309   8.323  14.778  0.00  0.00    +0.000 C 
ATOM     14  N   UNL     1      51.007   7.636  15.884  0.00  0.00    +0.000 NA
ATOM     15  C   UNL     1      51.114   8.517  17.048  0.00  0.00    +0.000 C 
ATOM     16  C   UNL     1      49.884   6.696  16.058  0.00  0.00    +0.000 C 
ENDBRANCH  10  12
ENDBRANCH   7  10
BRANCH   3  17
ATOM     17  C   UNL     1      43.186   5.223  12.454  0.00  0.00    +0.000 C 
BRANCH  17  18
ATOM     18  C   UNL     1      43.068   4.473  11.120  0.00  0.00    +0.000 C 
BRANCH  18  19
ATOM     19  N   UNL     1      43.805   5.047   9.992  0.00  0.00    +0.000 N 
ATOM     20  C   UNL     1      44.569   4.023   9.364  0.00  0.00    +0.000 A 
ATOM     21  C   UNL     1      45.374   4.341   8.277  0.00  0.00    +0.000 A 
ATOM     22  C   UNL     1      46.130   3.331   7.667  0.00  0.00    +0.000 A 
ATOM     23  C   UNL     1      46.075   2.021   8.152  0.00  0.00    +0.000 A 
ATOM     24  C   UNL     1      45.237   1.792   9.226  0.00  0.00    +0.000 A 
ATOM     25  N   UNL     1      44.494   2.753   9.823  0.00  0.00    +0.000 NA
ATOM     26  H   UNL     1      44.450   5.777  10.282  0.00  0.00    +0.000 HD
BRANCH  23  27
ATOM     27  C   UNL     1      46.894   0.959   7.520  0.00  0.00    +0.000 C 
ATOM     28  N   UNL     1      47.848   1.306   6.605  0.00  0.00    +0.000 N 
ATOM     29  O   UNL     1      46.721  -0.222   7.809  0.00  0.00    +0.000 OA
ATOM     30  H   UNL     1      48.065   2.237   6.291  0.00  0.00    +0.000 HD
ATOM     31  H   UNL     1      48.375   0.545   6.195  0.00  0.00    +0.000 HD
ENDBRANCH  23  27
ENDBRANCH  18  19
ENDBRANCH  17  18
ENDBRANCH   3  17
TORSDOF 7
ENDMDL
MODEL 3
REMARK VINA RESULT:    -7.594      2.051      2.897
REMARK INTER + INTRA:         -11.654
REMARK INTER:                 -10.845
REMARK INTRA:                  -0.809
REMARK UNBOUND:                -0.953
REMARK  Name = 
REMARK  9 active torsions:
REMARK  status: ('A' for Active; 'I' for Inactive)
REMARK    1  A    between atoms: C_1  and  O_2
REMARK    2  A    between atoms: O_2  and  C_3
REMARK    3  A    between atoms: C_5  and  C_6
REMARK    4  A    between atoms: C_6  and  C_7
REMARK    5  A    between atoms: C_7  and  N_8
REMARK    6  A    between atoms: C_12  and  C_13
REMARK    7  A    between atoms: C_21  and  N_22
REMARK    8  A    between atoms: N_22  and  C_23
REMARK    9  A    between atoms: N_25  and  C_26
REMARK                            x       y       z     vdW  Elec       q    Type
REMARK                         _______ _______ _______ _____ _____    ______ ____
ROOT
ATOM      1  C   UNL     1      46.369   7.177  12.919  0.00  0.00    +0.000 A 
ATOM      2  C   UNL     1      45.053   6.918  12.481  0.00  0.00    +0.000 A 
ATOM      3  C   UNL     1      44.449   5.677  12.723  0.00  0.00    +0.000 A 
ATOM      4  C   UNL     1      45.207   4.718  13.414  0.00  0.00    +0.000 A 
ATOM      5  C   UNL     1      46.521   4.949  13.834  0.00  0.00    +0.000 A 
ATOM      6 CL   UNL     1      47.312   3.563  14.503  0.00  0.00    +0.000 Cl
ATOM      7  C   UNL     1      47.125   6.195  13.626  0.00  0.00    +0.000 A 
ENDROOT
BRANCH   1   9
ATOM      8  C   UNL     1      46.259   9.510  12.376  0.00  0.00    +0.000 C 
ATOM      9  O   UNL     1      47.035   8.369  12.716  0.00  0.00    +0.000 OA
ENDBRANCH   1   9
BRANCH   7  10
ATOM     10  N   UNL     1      48.471   6.524  13.980  0.00  0.00    +0.000 N 
ATOM     11  H   UNL     1      48.928   6.915  13.151  0.00  0.00    +0.000 HD
BRANCH  10  12
ATOM     12  C   UNL     1      48.949   7.136  15.198  0.00  0.00    +0.000 C 
ATOM     13  C   UNL     1      50.452   7.470  15.203  0.00  0.00    +0.000 C 
ATOM     14  N   UNL     1      50.665   6.571  16.355  0.00  0.00    +0.000 NA
ATOM     15  C   UNL     1      50.886   7.346  17.576  0.00  0.00    +0.000 C 
ATOM     16  C   UNL     1      49.268   6.103  16.294  0.00  0.00    +0.000 C 
ENDBRANCH  10  12
ENDBRANCH   7  10
BRANCH   3  17
ATOM     17  C   UNL     1      43.039   5.373  12.208  0.00  0.00    +0.000 C 
BRANCH  17  18
ATOM     18  C   UNL     1      43.057   4.625  10.868  0.00  0.00    +0.000 C 
BRANCH  18  19
ATOM     19  N   UNL     1      43.946   5.170   9.839  0.00  0.00    +0.000 N 
ATOM     20  C   UNL     1      44.674   4.103   9.241  0.00  0.00    +0.000 A 
ATOM     21  C   UNL     1      45.605   4.385   8.248  0.00  0.00    +0.000 A 
ATOM     22  C   UNL     1      46.325   3.333   7.666  0.00  0.00    +0.000 A 
ATOM     23  C   UNL     1      46.109   2.017   8.086  0.00  0.00    +0.000 A 
ATOM     24  C   UNL     1      45.156   1.826   9.067  0.00  0.00    +0.000 A 
ATOM     25  N   UNL     1      44.446   2.829   9.634  0.00  0.00    +0.000 NA
ATOM     26  H   UNL     1      44.622   5.827  10.220  0.00  0.00    +0.000 HD
BRANCH  23  27
ATOM     27  C   UNL     1      46.889   0.908   7.486  0.00  0.00    +0.000 C 
ATOM     28  N   UNL     1      47.747   1.174   6.455  0.00  0.00    +0.000 N 
ATOM     29  O   UNL     1      46.770  -0.241   7.904  0.00  0.00    +0.000 OA
ATOM     30  H   UNL     1      47.913   2.072   6.033  0.00  0.00    +0.000 HD
ATOM     31  H   UNL     1      48.250   0.382   6.073  0.00  0.00    +0.000 HD
ENDBRANCH  23  27
ENDBRANCH  18  19
ENDBRANCH  17  18
ENDBRANCH   3  17
TORSDOF 7
ENDMDL
MODEL 4
REMARK VINA RESULT:    -6.801      1.677      2.348
REMARK INTER + INTRA:         -10.536
REMARK INTER:                  -9.638
REMARK INTRA:                  -0.898
REMARK UNBOUND:                -0.953
REMARK  Name = 
REMARK  9 active torsions:
REMARK  status: ('A' for Active; 'I' for Inactive)
REMARK    1  A    between atoms: C_1  and  O_2
REMARK    2  A    between atoms: O_2  and  C_3
REMARK    3  A    between atoms: C_5  and  C_6
REMARK    4  A    between atoms: C_6  and  C_7
REMARK    5  A    between atoms: C_7  and  N_8
REMARK    6  A    between atoms: C_12  and  C_13
REMARK    7  A    between atoms: C_21  and  N_22
REMARK    8  A    between atoms: N_22  and  C_23
REMARK    9  A    between atoms: N_25  and  C_26
REMARK                            x       y       z     vdW  Elec       q    Type
REMARK                         _______ _______ _______ _____ _____    ______ ____
ROOT
ATOM      1  C   UNL     1      45.850   8.220  12.462  0.00  0.00    +0.000 A 
ATOM      2  C   UNL     1      44.685   7.622  11.939  0.00  0.00    +0.000 A 
ATOM      3  C   UNL     1      44.353   6.299  12.262  0.00  0.00    +0.000 A 
ATOM      4  C   UNL     1      45.225   5.609  13.120  0.00  0.00    +0.000 A 
ATOM      5  C   UNL     1      46.397   6.179  13.628  0.00  0.00    +0.000 A 
ATOM      6 CL   UNL     1      47.400   5.082  14.515  0.00  0.00    +0.000 Cl
ATOM      7  C   UNL     1      46.724   7.510  13.338  0.00  0.00    +0.000 A 
ENDROOT
BRANCH   1   9
ATOM      8  C   UNL     1      45.244  10.455  11.837  0.00  0.00    +0.000 C 
ATOM      9  O   UNL     1      46.250   9.514  12.188  0.00  0.00    +0.000 OA
ENDBRANCH   1   9
BRANCH   7  10
ATOM     10  N   UNL     1      47.912   8.177  13.773  0.00  0.00    +0.000 N 
ATOM     11  H   UNL     1      47.906   8.196  14.797  0.00  0.00    +0.000 HD
BRANCH  10  12
ATOM     12  C   UNL     1      49.250   8.050  13.243  0.00  0.00    +0.000 C 
ATOM     13  C   UNL     1      49.619   9.095  12.173  0.00  0.00    +0.000 C 
ATOM     14  N   UNL     1      49.839   8.023  11.181  0.00  0.00    +0.000 NA
ATOM     15  C   UNL     1      51.270   7.838  10.935  0.00  0.00    +0.000 C 
ATOM     16  C   UNL     1      49.346   7.000  12.121  0.00  0.00    +0.000 C 
ENDBRANCH  10  12
ENDBRANCH   7  10
BRANCH   3  17
ATOM     17  C   UNL     1      43.116   5.628  11.660  0.00  0.00    +0.000 C 
BRANCH  17  18
ATOM     18  C   UNL     1      43.478   4.599  10.580  0.00  0.00    +0.000 C 
BRANCH  18  19
ATOM     19  N   UNL     1      44.349   5.077   9.503  0.00  0.00    +0.000 N 
ATOM     20  C   UNL     1      45.016   3.965   8.916  0.00  0.00    +0.000 A 
ATOM     21  C   UNL     1      45.919   4.179   7.882  0.00  0.00    +0.000 A 
ATOM     22  C   UNL     1      46.579   3.083   7.311  0.00  0.00    +0.000 A 
ATOM     23  C   UNL     1      46.331   1.790   7.781  0.00  0.00    +0.000 A 
ATOM     24  C   UNL     1      45.407   1.667   8.801  0.00  0.00    +0.000 A 
ATOM     25  N   UNL     1      44.755   2.714   9.359  0.00  0.00    +0.000 NA
ATOM     26  H   UNL     1      45.062   5.720   9.838  0.00  0.00    +0.000 HD
BRANCH  23  27
ATOM     27  C   UNL     1      47.048   0.634   7.192  0.00  0.00    +0.000 C 
ATOM     28  N   UNL     1      47.797   0.816   6.063  0.00  0.00    +0.000 N 
ATOM     29  O   UNL     1      46.972  -0.479   7.705  0.00  0.00    +0.000 OA
ATOM     30  H   UNL     1      47.919   1.679   5.559  0.00  0.00    +0.000 HD
ATOM     31  H   UNL     1      48.260  -0.005   5.693  0.00  0.00    +0.000 HD
ENDBRANCH  23  27
ENDBRANCH  18  19
ENDBRANCH  17  18
ENDBRANCH   3  17
TORSDOF 7
ENDMDL
MODEL 5
REMARK VINA RESULT:    -6.536      2.016      2.821
REMARK INTER + INTRA:         -10.164
REMARK INTER:                  -9.462
REMARK INTRA:                  -0.702
REMARK UNBOUND:                -0.953
REMARK  Name = 
REMARK  9 active torsions:
REMARK  status: ('A' for Active; 'I' for Inactive)
REMARK    1  A    between atoms: C_1  and  O_2
REMARK    2  A    between atoms: O_2  and  C_3
REMARK    3  A    between atoms: C_5  and  C_6
REMARK    4  A    between atoms: C_6  and  C_7
REMARK    5  A    between atoms: C_7  and  N_8
REMARK    6  A    between atoms: C_12  and  C_13
REMARK    7  A    between atoms: C_21  and  N_22
REMARK    8  A    between atoms: N_22  and  C_23
REMARK    9  A    between atoms: N_25  and  C_26
REMARK                            x       y       z     vdW  Elec       q    Type
REMARK                         _______ _______ _______ _____ _____    ______ ____
ROOT
ATOM      1  C   UNL     1      45.348   8.114  12.385  0.00  0.00    +0.000 A 
ATOM      2  C   UNL     1      44.563   6.942  12.390  0.00  0.00    +0.000 A 
ATOM      3  C   UNL     1      45.164   5.679  12.475  0.00  0.00    +0.000 A 
ATOM      4  C   UNL     1      46.566   5.639  12.557  0.00  0.00    +0.000 A 
ATOM      5  C   UNL     1      47.360   6.790  12.529  0.00  0.00    +0.000 A 
ATOM      6 CL   UNL     1      49.062   6.483  12.461  0.00  0.00    +0.000 Cl
ATOM      7  C   UNL     1      46.771   8.059  12.474  0.00  0.00    +0.000 A 
ENDROOT
BRANCH   1   9
ATOM      8  C   UNL     1      44.194   9.766  11.083  0.00  0.00    +0.000 C 
ATOM      9  O   UNL     1      44.834   9.393  12.297  0.00  0.00    +0.000 OA
ENDBRANCH   1   9
BRANCH   7  10
ATOM     10  N   UNL     1      47.487   9.294  12.403  0.00  0.00    +0.000 N 
ATOM     11  H   UNL     1      46.946   9.939  11.819  0.00  0.00    +0.000 HD
BRANCH  10  12
ATOM     12  C   UNL     1      48.184   9.984  13.464  0.00  0.00    +0.000 C 
ATOM     13  C   UNL     1      49.718   9.853  13.417  0.00  0.00    +0.000 C 
ATOM     14  N   UNL     1      49.719   9.199  14.742  0.00  0.00    +0.000 NA
ATOM     15  C   UNL     1      50.218  10.117  15.766  0.00  0.00    +0.000 C 
ATOM     16  C   UNL     1      48.245   9.162  14.765  0.00  0.00    +0.000 C 
ENDBRANCH  10  12
ENDBRANCH   7  10
BRANCH   3  17
ATOM     17  C   UNL     1      44.322   4.401  12.433  0.00  0.00    +0.000 C 
BRANCH  17  18
ATOM     18  C   UNL     1      43.684   4.169  11.056  0.00  0.00    +0.000 C 
BRANCH  18  19
ATOM     19  N   UNL     1      44.285   4.902   9.938  0.00  0.00    +0.000 N 
ATOM     20  C   UNL     1      45.034   3.995   9.136  0.00  0.00    +0.000 A 
ATOM     21  C   UNL     1      45.718   4.472   8.025  0.00  0.00    +0.000 A 
ATOM     22  C   UNL     1      46.461   3.578   7.242  0.00  0.00    +0.000 A 
ATOM     23  C   UNL     1      46.514   2.223   7.582  0.00  0.00    +0.000 A 
ATOM     24  C   UNL     1      45.792   1.833   8.694  0.00  0.00    +0.000 A 
ATOM     25  N   UNL     1      45.064   2.681   9.456  0.00  0.00    +0.000 NA
ATOM     26  H   UNL     1      44.919   5.632  10.250  0.00  0.00    +0.000 HD
BRANCH  23  27
ATOM     27  C   UNL     1      47.320   1.283   6.767  0.00  0.00    +0.000 C 
ATOM     28  N   UNL     1      48.442   1.739   6.134  0.00  0.00    +0.000 N 
ATOM     29  O   UNL     1      46.988   0.105   6.655  0.00  0.00    +0.000 OA
ATOM     30  H   UNL     1      48.797   2.681   6.151  0.00  0.00    +0.000 HD
ATOM     31  H   UNL     1      48.954   1.061   5.582  0.00  0.00    +0.000 HD
ENDBRANCH  23  27
ENDBRANCH  18  19
ENDBRANCH  17  18
ENDBRANCH   3  17
TORSDOF 7
ENDMDL
MODEL 6
REMARK VINA RESULT:    -5.997      4.613      6.954
REMARK INTER + INTRA:          -9.404
REMARK INTER:                  -8.626
REMARK INTRA:                  -0.778
REMARK UNBOUND:                -0.953
REMARK  Name = 
REMARK  9 active torsions:
REMARK  status: ('A' for Active; 'I' for Inactive)
REMARK    1  A    between atoms: C_1  and  O_2
REMARK    2  A    between atoms: O_2  and  C_3
REMARK    3  A    between atoms: C_5  and  C_6
REMARK    4  A    between atoms: C_6  and  C_7
REMARK    5  A    between atoms: C_7  and  N_8
REMARK    6  A    between atoms: C_12  and  C_13
REMARK    7  A    between atoms: C_21  and  N_22
REMARK    8  A    between atoms: N_22  and  C_23
REMARK    9  A    between atoms: N_25  and  C_26
REMARK                            x       y       z     vdW  Elec       q    Type
REMARK                         _______ _______ _______ _____ _____    ______ ____
ROOT
ATOM      1  C   UNL     1      49.594   4.299  17.394  0.00  0.00    +0.000 A 
ATOM      2  C   UNL     1      48.869   5.337  16.771  0.00  0.00    +0.000 A 
ATOM      3  C   UNL     1      49.527   6.466  16.266  0.00  0.00    +0.000 A 
ATOM      4  C   UNL     1      50.924   6.512  16.407  0.00  0.00    +0.000 A 
ATOM      5  C   UNL     1      51.655   5.504  17.043  0.00  0.00    +0.000 A 
ATOM      6 CL   UNL     1      53.334   5.864  17.255  0.00  0.00    +0.000 Cl
ATOM      7  C   UNL     1      51.013   4.356  17.525  0.00  0.00    +0.000 A 
ENDROOT
BRANCH   1   9
ATOM      8  C   UNL     1      47.649   2.917  17.638  0.00  0.00    +0.000 C 
ATOM      9  O   UNL     1      49.020   3.159  17.923  0.00  0.00    +0.000 OA
ENDBRANCH   1   9
BRANCH   7  10
ATOM     10  N   UNL     1      51.658   3.287  18.222  0.00  0.00    +0.000 N 
ATOM     11  H   UNL     1      50.951   2.810  18.790  0.00  0.00    +0.000 HD
BRANCH  10  12
ATOM     12  C   UNL     1      52.657   2.371  17.724  0.00  0.00    +0.000 C 
ATOM     13  C   UNL     1      52.237   0.890  17.742  0.00  0.00    +0.000 C 
ATOM     14  N   UNL     1      53.354   0.568  18.655  0.00  0.00    +0.000 NA
ATOM     15  C   UNL     1      54.412  -0.144  17.939  0.00  0.00    +0.000 C 
ATOM     16  C   UNL     1      53.701   1.995  18.792  0.00  0.00    +0.000 C 
ENDBRANCH  10  12
ENDBRANCH   7  10
BRANCH   3  17
ATOM     17  C   UNL     1      48.742   7.617  15.631  0.00  0.00    +0.000 C 
BRANCH  17  18
ATOM     18  C   UNL     1      48.386   7.341  14.164  0.00  0.00    +0.000 C 
BRANCH  18  19
ATOM     19  N   UNL     1      47.108   7.886  13.699  0.00  0.00    +0.000 N 
ATOM     20  C   UNL     1      46.268   6.813  13.285  0.00  0.00    +0.000 A 
ATOM     21  C   UNL     1      45.005   7.093  12.778  0.00  0.00    +0.000 A 
ATOM     22  C   UNL     1      44.184   6.036  12.365  0.00  0.00    +0.000 A 
ATOM     23  C   UNL     1      44.636   4.716  12.459  0.00  0.00    +0.000 A 
ATOM     24  C   UNL     1      45.898   4.529  12.988  0.00  0.00    +0.000 A 
ATOM     25  N   UNL     1      46.701   5.538  13.399  0.00  0.00    +0.000 NA
ATOM     26  H   UNL     1      47.220   8.512  12.906  0.00  0.00    +0.000 HD
BRANCH  23  27
ATOM     27  C   UNL     1      43.775   3.600  11.999  0.00  0.00    +0.000 C 
ATOM     28  N   UNL     1      43.856   2.390  12.629  0.00  0.00    +0.000 N 
ATOM     29  O   UNL     1      42.998   3.753  11.059  0.00  0.00    +0.000 OA
ATOM     30  H   UNL     1      44.461   2.155  13.398  0.00  0.00    +0.000 HD
ATOM     31  H   UNL     1      43.254   1.657  12.272  0.00  0.00    +0.000 HD
ENDBRANCH  23  27
ENDBRANCH  18  19
ENDBRANCH  17  18
ENDBRANCH   3  17
TORSDOF 7
ENDMDL
MODEL 7
REMARK VINA RESULT:    -5.966      2.904      8.062
REMARK INTER + INTRA:          -9.361
REMARK INTER:                  -8.386
REMARK INTRA:                  -0.975
REMARK UNBOUND:                -0.953
REMARK  Name = 
REMARK  9 active torsions:
REMARK  status: ('A' for Active; 'I' for Inactive)
REMARK    1  A    between atoms: C_1  and  O_2
REMARK    2  A    between atoms: O_2  and  C_3
REMARK    3  A    between atoms: C_5  and  C_6
REMARK    4  A    between atoms: C_6  and  C_7
REMARK    5  A    between atoms: C_7  and  N_8
REMARK    6  A    between atoms: C_12  and  C_13
REMARK    7  A    between atoms: C_21  and  N_22
REMARK    8  A    between atoms: N_22  and  C_23
REMARK    9  A    between atoms: N_25  and  C_26
REMARK                            x       y       z     vdW  Elec       q    Type
REMARK                         _______ _______ _______ _____ _____    ______ ____
ROOT
ATOM      1  C   UNL     1      46.712   5.534  13.634  0.00  0.00    +0.000 A 
ATOM      2  C   UNL     1      47.973   6.151  13.764  0.00  0.00    +0.000 A 
ATOM      3  C   UNL     1      48.205   7.427  13.233  0.00  0.00    +0.000 A 
ATOM      4  C   UNL     1      47.132   8.052  12.575  0.00  0.00    +0.000 A 
ATOM      5  C   UNL     1      45.882   7.445  12.416  0.00  0.00    +0.000 A 
ATOM      6 CL   UNL     1      44.779   8.330  11.420  0.00  0.00    +0.000 Cl
ATOM      7  C   UNL     1      45.629   6.184  12.970  0.00  0.00    +0.000 A 
ENDROOT
BRANCH   1   9
ATOM      8  C   UNL     1      46.996   3.890  15.357  0.00  0.00    +0.000 C 
ATOM      9  O   UNL     1      46.406   4.279  14.124  0.00  0.00    +0.000 OA
ENDBRANCH   1   9
BRANCH   7  10
ATOM     10  N   UNL     1      44.404   5.459  12.835  0.00  0.00    +0.000 N 
ATOM     11  H   UNL     1      43.655   6.029  13.237  0.00  0.00    +0.000 HD
BRANCH  10  12
ATOM     12  C   UNL     1      43.946   4.684  11.705  0.00  0.00    +0.000 C 
ATOM     13  C   UNL     1      44.131   3.162  11.851  0.00  0.00    +0.000 C 
ATOM     14  N   UNL     1      45.010   3.140  10.664  0.00  0.00    +0.000 NA
ATOM     15  C   UNL     1      44.312   2.553   9.520  0.00  0.00    +0.000 C 
ATOM     16  C   UNL     1      44.989   4.611  10.574  0.00  0.00    +0.000 C 
ENDBRANCH  10  12
ENDBRANCH   7  10
BRANCH   3  17
ATOM     17  C   UNL     1      49.585   8.082  13.328  0.00  0.00    +0.000 C 
BRANCH  17  18
ATOM     18  C   UNL     1      50.055   8.243  14.780  0.00  0.00    +0.000 C 
BRANCH  18  19
ATOM     19  N   UNL     1      51.028   7.255  15.254  0.00  0.00    +0.000 N 
ATOM     20  C   UNL     1      50.477   6.554  16.364  0.00  0.00    +0.000 A 
ATOM     21  C   UNL     1      51.236   5.579  16.999  0.00  0.00    +0.000 A 
ATOM     22  C   UNL     1      50.694   4.897  18.097  0.00  0.00    +0.000 A 
ATOM     23  C   UNL     1      49.406   5.200  18.547  0.00  0.00    +0.000 A 
ATOM     24  C   UNL     1      48.717   6.172  17.847  0.00  0.00    +0.000 A 
ATOM     25  N   UNL     1      49.222   6.836  16.781  0.00  0.00    +0.000 NA
ATOM     26  H   UNL     1      51.897   7.684  15.561  0.00  0.00    +0.000 HD
BRANCH  23  27
ATOM     27  C   UNL     1      48.843   4.495  19.723  0.00  0.00    +0.000 C 
ATOM     28  N   UNL     1      48.413   3.204  19.586  0.00  0.00    +0.000 N 
ATOM     29  O   UNL     1      48.758   5.058  20.811  0.00  0.00    +0.000 OA
ATOM     30  H   UNL     1      48.428   2.655  18.743  0.00  0.00    +0.000 HD
ATOM     31  H   UNL     1      48.028   2.768  20.415  0.00  0.00    +0.000 HD
ENDBRANCH  23  27
ENDBRANCH  18  19
ENDBRANCH  17  18
ENDBRANCH   3  17
TORSDOF 7
ENDMDL
MODEL 8
REMARK VINA RESULT:    -5.914      3.262      8.365
REMARK INTER + INTRA:          -9.286
REMARK INTER:                  -8.282
REMARK INTRA:                  -1.004
REMARK UNBOUND:                -0.953
REMARK  Name = 
REMARK  9 active torsions:
REMARK  status: ('A' for Active; 'I' for Inactive)
REMARK    1  A    between atoms: C_1  and  O_2
REMARK    2  A    between atoms: O_2  and  C_3
REMARK    3  A    between atoms: C_5  and  C_6
REMARK    4  A    between atoms: C_6  and  C_7
REMARK    5  A    between atoms: C_7  and  N_8
REMARK    6  A    between atoms: C_12  and  C_13
REMARK    7  A    between atoms: C_21  and  N_22
REMARK    8  A    between atoms: N_22  and  C_23
REMARK    9  A    between atoms: N_25  and  C_26
REMARK                            x       y       z     vdW  Elec       q    Type
REMARK                         _______ _______ _______ _____ _____    ______ ____
ROOT
ATOM      1  C   UNL     1      45.972   7.593  12.453  0.00  0.00    +0.000 A 
ATOM      2  C   UNL     1      47.219   8.223  12.648  0.00  0.00    +0.000 A 
ATOM      3  C   UNL     1      48.317   7.502  13.136  0.00  0.00    +0.000 A 
ATOM      4  C   UNL     1      48.118   6.139  13.415  0.00  0.00    +0.000 A 
ATOM      5  C   UNL     1      46.882   5.505  13.250  0.00  0.00    +0.000 A 
ATOM      6 CL   UNL     1      46.833   3.874  13.826  0.00  0.00    +0.000 Cl
ATOM      7  C   UNL     1      45.785   6.207  12.734  0.00  0.00    +0.000 A 
ENDROOT
BRANCH   1   9
ATOM      8  C   UNL     1      44.909   9.642  11.804  0.00  0.00    +0.000 C 
ATOM      9  O   UNL     1      44.842   8.234  11.983  0.00  0.00    +0.000 OA
ENDBRANCH   1   9
BRANCH   7  10
ATOM     10  N   UNL     1      44.473   5.667  12.562  0.00  0.00    +0.000 N 
ATOM     11  H   UNL     1      43.797   6.398  12.805  0.00  0.00    +0.000 HD
BRANCH  10  12
ATOM     12  C   UNL     1      43.990   4.818  11.497  0.00  0.00    +0.000 C 
ATOM     13  C   UNL     1      44.165   3.309  11.748  0.00  0.00    +0.000 C 
ATOM     14  N   UNL     1      45.025   3.194  10.552  0.00  0.00    +0.000 NA
ATOM     15  C   UNL     1      44.304   2.534   9.464  0.00  0.00    +0.000 C 
ATOM     16  C   UNL     1      45.014   4.656  10.358  0.00  0.00    +0.000 C 
ENDBRANCH  10  12
ENDBRANCH   7  10
BRANCH   3  17
ATOM     17  C   UNL     1      49.659   8.190  13.396  0.00  0.00    +0.000 C 
BRANCH  17  18
ATOM     18  C   UNL     1      50.025   8.210  14.886  0.00  0.00    +0.000 C 
BRANCH  18  19
ATOM     19  N   UNL     1      50.981   7.191  15.327  0.00  0.00    +0.000 N 
ATOM     20  C   UNL     1      50.434   6.488  16.437  0.00  0.00    +0.000 A 
ATOM     21  C   UNL     1      51.179   5.484  17.044  0.00  0.00    +0.000 A 
ATOM     22  C   UNL     1      50.640   4.799  18.141  0.00  0.00    +0.000 A 
ATOM     23  C   UNL     1      49.368   5.128  18.619  0.00  0.00    +0.000 A 
ATOM     24  C   UNL     1      48.692   6.127  17.947  0.00  0.00    +0.000 A 
ATOM     25  N   UNL     1      49.194   6.794  16.881  0.00  0.00    +0.000 NA
ATOM     26  H   UNL     1      51.866   7.594  15.625  0.00  0.00    +0.000 HD
BRANCH  23  27
ATOM     27  C   UNL     1      48.809   4.419  19.795  0.00  0.00    +0.000 C 
ATOM     28  N   UNL     1      48.344   3.141  19.647  0.00  0.00    +0.000 N 
ATOM     29  O   UNL     1      48.758   4.967  20.892  0.00  0.00    +0.000 OA
ATOM     30  H   UNL     1      48.331   2.605  18.796  0.00  0.00    +0.000 HD
ATOM     31  H   UNL     1      47.964   2.703  20.477  0.00  0.00    +0.000 HD
ENDBRANCH  23  27
ENDBRANCH  18  19
ENDBRANCH  17  18
ENDBRANCH   3  17
TORSDOF 7
ENDMDL
MODEL 9
REMARK VINA RESULT:    -5.710      4.337      5.972
REMARK INTER + INTRA:          -8.999
REMARK INTER:                  -8.060
REMARK INTRA:                  -0.939
REMARK UNBOUND:                -0.953
REMARK  Name = 
REMARK  9 active torsions:
REMARK  status: ('A' for Active; 'I' for Inactive)
REMARK    1  A    between atoms: C_1  and  O_2
REMARK    2  A    between atoms: O_2  and  C_3
REMARK    3  A    between atoms: C_5  and  C_6
REMARK    4  A    between atoms: C_6  and  C_7
REMARK    5  A    between atoms: C_7  and  N_8
REMARK    6  A    between atoms: C_12  and  C_13
REMARK    7  A    between atoms: C_21  and  N_22
REMARK    8  A    between atoms: N_22  and  C_23
REMARK    9  A    between atoms: N_25  and  C_26
REMARK                            x       y       z     vdW  Elec       q    Type
REMARK                         _______ _______ _______ _____ _____    ______ ____
ROOT
ATOM      1  C   UNL     1      50.188   5.808  18.336  0.00  0.00    +0.000 A 
ATOM      2  C   UNL     1      49.346   4.951  17.596  0.00  0.00    +0.000 A 
ATOM      3  C   UNL     1      47.968   4.909  17.847  0.00  0.00    +0.000 A 
ATOM      4  C   UNL     1      47.473   5.752  18.856  0.00  0.00    +0.000 A 
ATOM      5  C   UNL     1      48.297   6.589  19.615  0.00  0.00    +0.000 A 
ATOM      6 CL   UNL     1      47.490   7.397  20.916  0.00  0.00    +0.000 Cl
ATOM      7  C   UNL     1      49.671   6.664  19.354  0.00  0.00    +0.000 A 
ENDROOT
BRANCH   1   9
ATOM      8  C   UNL     1      52.027   6.201  16.847  0.00  0.00    +0.000 C 
ATOM      9  O   UNL     1      51.554   5.903  18.154  0.00  0.00    +0.000 OA
ENDBRANCH   1   9
BRANCH   7  10
ATOM     10  N   UNL     1      50.606   7.455  20.091  0.00  0.00    +0.000 N 
ATOM     11  H   UNL     1      51.458   6.900  20.216  0.00  0.00    +0.000 HD
BRANCH  10  12
ATOM     12  C   UNL     1      50.895   8.862  19.945  0.00  0.00    +0.000 C 
ATOM     13  C   UNL     1      50.231   9.531  18.727  0.00  0.00    +0.000 C 
ATOM     14  N   UNL     1      51.557   9.881  18.176  0.00  0.00    +0.000 NA
ATOM     15  C   UNL     1      51.815  11.312  18.331  0.00  0.00    +0.000 C 
ATOM     16  C   UNL     1      52.239   9.120  19.240  0.00  0.00    +0.000 C 
ENDBRANCH  10  12
ENDBRANCH   7  10
BRANCH   3  17
ATOM     17  C   UNL     1      47.056   3.948  17.081  0.00  0.00    +0.000 C 
BRANCH  17  18
ATOM     18  C   UNL     1      47.345   3.948  15.573  0.00  0.00    +0.000 C 
BRANCH  18  19
ATOM     19  N   UNL     1      46.963   5.161  14.846  0.00  0.00    +0.000 N 
ATOM     20  C   UNL     1      46.274   4.793  13.656  0.00  0.00    +0.000 A 
ATOM     21  C   UNL     1      45.835   5.786  12.788  0.00  0.00    +0.000 A 
ATOM     22  C   UNL     1      45.163   5.420  11.613  0.00  0.00    +0.000 A 
ATOM     23  C   UNL     1      44.943   4.070  11.321  0.00  0.00    +0.000 A 
ATOM     24  C   UNL     1      45.400   3.152  12.246  0.00  0.00    +0.000 A 
ATOM     25  N   UNL     1      46.043   3.488  13.389  0.00  0.00    +0.000 NA
ATOM     26  H   UNL     1      47.768   5.719  14.574  0.00  0.00    +0.000 HD
BRANCH  23  27
ATOM     27  C   UNL     1      44.254   3.684  10.066  0.00  0.00    +0.000 C 
ATOM     28  N   UNL     1      43.971   4.645   9.135  0.00  0.00    +0.000 N 
ATOM     29  O   UNL     1      43.934   2.516   9.860  0.00  0.00    +0.000 OA
ATOM     30  H   UNL     1      44.179   5.627   9.207  0.00  0.00    +0.000 HD
ATOM     31  H   UNL     1      43.491   4.333   8.300  0.00  0.00    +0.000 HD
ENDBRANCH  23  27
ENDBRANCH  18  19
ENDBRANCH  17  18
ENDBRANCH   3  17
TORSDOF 7
ENDMDL
