MODEL 1
REMARK VINA RESULT:    -8.423      0.000      0.000
REMARK INTER + INTRA:         -12.897
REMARK INTER:                 -11.869
REMARK INTRA:                  -1.028
REMARK UNBOUND:                -1.028
REMARK  Name = 
REMARK  8 active torsions:
REMARK  status: ('A' for Active; 'I' for Inactive)
REMARK    1  A    between atoms: C_1  and  C_2
REMARK    2  A    between atoms: C_2  and  N_3
REMARK    3  A    between atoms: C_2  and  C_11
REMARK    4  A    between atoms: N_3  and  C_4
REMARK    5  A    between atoms: C_4  and  C_5
REMARK    6  A    between atoms: C_14  and  C_15
REMARK    7  A    between atoms: C_15  and  N_16
REMARK    8  A    between atoms: C_17  and  C_19
REMARK                            x       y       z     vdW  Elec       q    Type
REMARK                         _______ _______ _______ _____ _____    ______ ____
ROOT
ATOM      1  C   UNL     1      45.480   4.651  12.085  0.00  0.00    +0.000 A 
ATOM      2  C   UNL     1      45.953   5.822  11.463  0.00  0.00    +0.000 A 
ATOM      3  C   UNL     1      46.917   6.626  12.074  0.00  0.00    +0.000 A 
ATOM      4  C   UNL     1      47.474   6.247  13.298  0.00  0.00    +0.000 A 
ATOM      5  C   UNL     1      46.987   5.102  13.939  0.00  0.00    +0.000 A 
ATOM      6  C   UNL     1      45.993   4.320  13.347  0.00  0.00    +0.000 A 
ENDROOT
BRANCH   1   8
ATOM      7  C   UNL     1      43.606   4.637  10.368  0.00  0.00    +0.000 C 
ATOM      8  C   UNL     1      44.407   3.816  11.392  0.00  0.00    +0.000 C 
BRANCH   8   9
ATOM      9  N   UNL     1      44.944   2.613  10.725  0.00  0.00    +0.000 NA
ATOM     10  H   UNL     1      44.678   1.787  11.258  0.00  0.00    +0.000 HD
BRANCH   9  11
ATOM     11  C   UNL     1      44.446   2.479   9.357  0.00  0.00    +0.000 C 
BRANCH  11  12
ATOM     12  C   UNL     1      45.537   2.415   8.317  0.00  0.00    +0.000 A 
ATOM     13  C   UNL     1      45.898   3.575   7.613  0.00  0.00    +0.000 A 
ATOM     14  C   UNL     1      46.982   3.567   6.736  0.00  0.00    +0.000 A 
ATOM     15  C   UNL     1      47.713   2.397   6.548  0.00  0.00    +0.000 A 
ATOM     16  C   UNL     1      47.350   1.232   7.225  0.00  0.00    +0.000 A 
ATOM     17  C   UNL     1      46.263   1.238   8.101  0.00  0.00    +0.000 A 
ENDBRANCH  11  12
ENDBRANCH   9  11
ENDBRANCH   8   9
ENDBRANCH   1   8
BRANCH   4  18
ATOM     18  C   UNL     1      48.552   7.069  13.945  0.00  0.00    +0.000 C 
BRANCH  18  19
ATOM     19  N   UNL     1      48.318   7.195  15.358  0.00  0.00    +0.000 N 
ATOM     20  C   UNL     1      49.226   6.730  16.271  0.00  0.00    +0.000 C 
ATOM     21  O   UNL     1      50.298   6.234  15.934  0.00  0.00    +0.000 OA
ATOM     22  H   UNL     1      47.361   7.363  15.649  0.00  0.00    +0.000 HD
BRANCH  20  23
ATOM     23  C   UNL     1      48.878   6.928  17.683  0.00  0.00    +0.000 A 
ATOM     24  C   UNL     1      48.509   8.189  18.130  0.00  0.00    +0.000 A 
ATOM     25  S   UNL     1      48.055   8.223  19.772  0.00  0.00    +0.000 S 
ATOM     26  C   UNL     1      48.394   6.566  19.957  0.00  0.00    +0.000 A 
ATOM     27  N   UNL     1      48.223   5.946  21.156  0.00  0.00    +0.000 NA
ATOM     28  C   UNL     1      48.547   4.696  21.161  0.00  0.00    +0.000 A 
ATOM     29  N   UNL     1      49.027   4.008  20.079  0.00  0.00    +0.000 N 
ATOM     30  C   UNL     1      49.200   4.593  18.847  0.00  0.00    +0.000 A 
ATOM     31  O   UNL     1      49.610   3.937  17.892  0.00  0.00    +0.000 OA
ATOM     32  C   UNL     1      48.842   5.995  18.779  0.00  0.00    +0.000 A 
ATOM     33  H   UNL     1      49.268   3.030  20.148  0.00  0.00    +0.000 HD
ENDBRANCH  20  23
ENDBRANCH  18  19
ENDBRANCH   4  18
TORSDOF 7
ENDMDL
MODEL 2
REMARK VINA RESULT:    -8.237      1.421      2.195
REMARK INTER + INTRA:         -12.635
REMARK INTER:                 -11.385
REMARK INTRA:                  -1.250
REMARK UNBOUND:                -1.028
REMARK  Name = 
REMARK  8 active torsions:
REMARK  status: ('A' for Active; 'I' for Inactive)
REMARK    1  A    between atoms: C_1  and  C_2
REMARK    2  A    between atoms: C_2  and  N_3
REMARK    3  A    between atoms: C_2  and  C_11
REMARK    4  A    between atoms: N_3  and  C_4
REMARK    5  A    between atoms: C_4  and  C_5
REMARK    6  A    between atoms: C_14  and  C_15
REMARK    7  A    between atoms: C_15  and  N_16
REMARK    8  A    between atoms: C_17  and  C_19
REMARK                            x       y       z     vdW  Elec       q    Type
REMARK                         _______ _______ _______ _____ _____    ______ ____
ROOT
ATOM      1  C   UNL     1      44.905   5.030  12.098  0.00  0.00    +0.000 A 
ATOM      2  C   UNL     1      45.352   4.362  13.254  0.00  0.00    +0.000 A 
ATOM      3  C   UNL     1      46.474   4.806  13.957  0.00  0.00    +0.000 A 
ATOM      4  C   UNL     1      47.143   5.965  13.553  0.00  0.00    +0.000 A 
ATOM      5  C   UNL     1      46.726   6.616  12.387  0.00  0.00    +0.000 A 
ATOM      6  C   UNL     1      45.629   6.148  11.660  0.00  0.00    +0.000 A 
ENDROOT
BRANCH   1   8
ATOM      7  C   UNL     1      42.485   5.445  11.439  0.00  0.00    +0.000 C 
ATOM      8  C   UNL     1      43.690   4.494  11.346  0.00  0.00    +0.000 C 
BRANCH   8   9
ATOM      9  N   UNL     1      43.966   4.210   9.923  0.00  0.00    +0.000 NA
ATOM     10  H   UNL     1      44.686   4.847   9.587  0.00  0.00    +0.000 HD
BRANCH   9  11
ATOM     11  C   UNL     1      44.415   2.833   9.718  0.00  0.00    +0.000 C 
BRANCH  11  12
ATOM     12  C   UNL     1      45.414   2.680   8.598  0.00  0.00    +0.000 A 
ATOM     13  C   UNL     1      45.814   3.807   7.862  0.00  0.00    +0.000 A 
ATOM     14  C   UNL     1      46.823   3.710   6.905  0.00  0.00    +0.000 A 
ATOM     15  C   UNL     1      47.440   2.484   6.670  0.00  0.00    +0.000 A 
ATOM     16  C   UNL     1      47.036   1.353   7.379  0.00  0.00    +0.000 A 
ATOM     17  C   UNL     1      46.023   1.448   8.336  0.00  0.00    +0.000 A 
ENDBRANCH  11  12
ENDBRANCH   9  11
ENDBRANCH   8   9
ENDBRANCH   1   8
BRANCH   4  18
ATOM     18  C   UNL     1      48.318   6.489  14.328  0.00  0.00    +0.000 C 
BRANCH  18  19
ATOM     19  N   UNL     1      48.130   6.285  15.738  0.00  0.00    +0.000 N 
ATOM     20  C   UNL     1      49.188   6.010  16.562  0.00  0.00    +0.000 C 
ATOM     21  O   UNL     1      50.345   5.976  16.152  0.00  0.00    +0.000 OA
ATOM     22  H   UNL     1      47.189   6.064  16.046  0.00  0.00    +0.000 HD
BRANCH  20  23
ATOM     23  C   UNL     1      48.868   5.834  17.983  0.00  0.00    +0.000 A 
ATOM     24  C   UNL     1      49.067   4.599  18.585  0.00  0.00    +0.000 A 
ATOM     25  S   UNL     1      48.725   4.592  20.254  0.00  0.00    +0.000 S 
ATOM     26  C   UNL     1      48.241   6.222  20.218  0.00  0.00    +0.000 A 
ATOM     27  N   UNL     1      47.811   6.850  21.345  0.00  0.00    +0.000 NA
ATOM     28  C   UNL     1      47.446   8.077  21.167  0.00  0.00    +0.000 A 
ATOM     29  N   UNL     1      47.471   8.733  19.965  0.00  0.00    +0.000 N 
ATOM     30  C   UNL     1      47.912   8.140  18.807  0.00  0.00    +0.000 A 
ATOM     31  O   UNL     1      47.944   8.769  17.752  0.00  0.00    +0.000 OA
ATOM     32  C   UNL     1      48.345   6.765  18.949  0.00  0.00    +0.000 A 
ATOM     33  H   UNL     1      47.167   9.692  19.890  0.00  0.00    +0.000 HD
ENDBRANCH  20  23
ENDBRANCH  18  19
ENDBRANCH   4  18
TORSDOF 7
ENDMDL
MODEL 3
REMARK VINA RESULT:    -7.686      1.689      2.143
REMARK INTER + INTRA:         -11.860
REMARK INTER:                 -10.620
REMARK INTRA:                  -1.240
REMARK UNBOUND:                -1.028
REMARK  Name = 
REMARK  8 active torsions:
REMARK  status: ('A' for Active; 'I' for Inactive)
REMARK    1  A    between atoms: C_1  and  C_2
REMARK    2  A    between atoms: C_2  and  N_3
REMARK    3  A    between atoms: C_2  and  C_11
REMARK    4  A    between atoms: N_3  and  C_4
REMARK    5  A    between atoms: C_4  and  C_5
REMARK    6  A    between atoms: C_14  and  C_15
REMARK    7  A    between atoms: C_15  and  N_16
REMARK    8  A    between atoms: C_17  and  C_19
REMARK                            x       y       z     vdW  Elec       q    Type
REMARK                         _______ _______ _______ _____ _____    ______ ____
ROOT
ATOM      1  C   UNL     1      45.476   4.768  12.156  0.00  0.00    +0.000 A 
ATOM      2  C   UNL     1      46.155   4.620  13.380  0.00  0.00    +0.000 A 
ATOM      3  C   UNL     1      47.175   5.499  13.751  0.00  0.00    +0.000 A 
ATOM      4  C   UNL     1      47.500   6.583  12.931  0.00  0.00    +0.000 A 
ATOM      5  C   UNL     1      46.853   6.719  11.698  0.00  0.00    +0.000 A 
ATOM      6  C   UNL     1      45.862   5.815  11.308  0.00  0.00    +0.000 A 
ENDROOT
BRANCH   1   8
ATOM      7  C   UNL     1      43.217   4.437  11.037  0.00  0.00    +0.000 C 
ATOM      8  C   UNL     1      44.386   3.768  11.779  0.00  0.00    +0.000 C 
BRANCH   8   9
ATOM      9  N   UNL     1      44.887   2.642  10.964  0.00  0.00    +0.000 NA
ATOM     10  H   UNL     1      44.631   1.764  11.413  0.00  0.00    +0.000 HD
BRANCH   9  11
ATOM     11  C   UNL     1      44.337   2.661   9.609  0.00  0.00    +0.000 C 
BRANCH  11  12
ATOM     12  C   UNL     1      45.385   2.577   8.527  0.00  0.00    +0.000 A 
ATOM     13  C   UNL     1      45.740   3.730   7.808  0.00  0.00    +0.000 A 
ATOM     14  C   UNL     1      46.789   3.702   6.890  0.00  0.00    +0.000 A 
ATOM     15  C   UNL     1      47.491   2.519   6.676  0.00  0.00    +0.000 A 
ATOM     16  C   UNL     1      47.133   1.361   7.367  0.00  0.00    +0.000 A 
ATOM     17  C   UNL     1      46.081   1.387   8.285  0.00  0.00    +0.000 A 
ENDBRANCH  11  12
ENDBRANCH   9  11
ENDBRANCH   8   9
ENDBRANCH   1   8
BRANCH   4  18
ATOM     18  C   UNL     1      48.556   7.572  13.339  0.00  0.00    +0.000 C 
BRANCH  18  19
ATOM     19  N   UNL     1      49.442   6.996  14.313  0.00  0.00    +0.000 N 
ATOM     20  C   UNL     1      49.565   7.535  15.566  0.00  0.00    +0.000 C 
ATOM     21  O   UNL     1      48.894   8.496  15.933  0.00  0.00    +0.000 OA
ATOM     22  H   UNL     1      50.168   6.381  13.962  0.00  0.00    +0.000 HD
BRANCH  20  23
ATOM     23  C   UNL     1      50.493   6.850  16.472  0.00  0.00    +0.000 A 
ATOM     24  C   UNL     1      51.840   6.772  16.147  0.00  0.00    +0.000 A 
ATOM     25  S   UNL     1      52.787   6.019  17.347  0.00  0.00    +0.000 S 
ATOM     26  C   UNL     1      51.421   5.717  18.315  0.00  0.00    +0.000 A 
ATOM     27  N   UNL     1      51.537   5.077  19.509  0.00  0.00    +0.000 NA
ATOM     28  C   UNL     1      50.417   4.888  20.125  0.00  0.00    +0.000 A 
ATOM     29  N   UNL     1      49.191   5.279  19.654  0.00  0.00    +0.000 N 
ATOM     30  C   UNL     1      49.032   5.941  18.460  0.00  0.00    +0.000 A 
ATOM     31  O   UNL     1      47.919   6.299  18.083  0.00  0.00    +0.000 OA
ATOM     32  C   UNL     1      50.259   6.190  17.731  0.00  0.00    +0.000 A 
ATOM     33  H   UNL     1      48.349   5.097  20.181  0.00  0.00    +0.000 HD
ENDBRANCH  20  23
ENDBRANCH  18  19
ENDBRANCH   4  18
TORSDOF 7
ENDMDL
MODEL 4
REMARK VINA RESULT:    -7.529      4.836      5.748
REMARK INTER + INTRA:         -11.638
REMARK INTER:                 -10.371
REMARK INTRA:                  -1.266
REMARK UNBOUND:                -1.028
REMARK  Name = 
REMARK  8 active torsions:
REMARK  status: ('A' for Active; 'I' for Inactive)
REMARK    1  A    between atoms: C_1  and  C_2
REMARK    2  A    between atoms: C_2  and  N_3
REMARK    3  A    between atoms: C_2  and  C_11
REMARK    4  A    between atoms: N_3  and  C_4
REMARK    5  A    between atoms: C_4  and  C_5
REMARK    6  A    between atoms: C_14  and  C_15
REMARK    7  A    between atoms: C_15  and  N_16
REMARK    8  A    between atoms: C_17  and  C_19
REMARK                            x       y       z     vdW  Elec       q    Type
REMARK                         _______ _______ _______ _____ _____    ______ ____
ROOT
ATOM      1  C   UNL     1      44.882   4.895  11.725  0.00  0.00    +0.000 A 
ATOM      2  C   UNL     1      44.151   5.932  11.115  0.00  0.00    +0.000 A 
ATOM      3  C   UNL     1      44.392   7.269  11.434  0.00  0.00    +0.000 A 
ATOM      4  C   UNL     1      45.411   7.606  12.330  0.00  0.00    +0.000 A 
ATOM      5  C   UNL     1      46.119   6.580  12.966  0.00  0.00    +0.000 A 
ATOM      6  C   UNL     1      45.850   5.240  12.678  0.00  0.00    +0.000 A 
ENDROOT
BRANCH   1   8
ATOM      7  C   UNL     1      43.564   2.811  12.344  0.00  0.00    +0.000 C 
ATOM      8  C   UNL     1      44.567   3.445  11.366  0.00  0.00    +0.000 C 
BRANCH   8   9
ATOM      9  N   UNL     1      44.058   3.284   9.989  0.00  0.00    +0.000 NA
ATOM     10  H   UNL     1      44.387   4.060   9.417  0.00  0.00    +0.000 HD
BRANCH   9  11
ATOM     11  C   UNL     1      44.502   2.027   9.386  0.00  0.00    +0.000 C 
BRANCH  11  12
ATOM     12  C   UNL     1      45.584   2.199   8.350  0.00  0.00    +0.000 A 
ATOM     13  C   UNL     1      45.847   3.473   7.820  0.00  0.00    +0.000 A 
ATOM     14  C   UNL     1      46.920   3.676   6.953  0.00  0.00    +0.000 A 
ATOM     15  C   UNL     1      47.739   2.606   6.602  0.00  0.00    +0.000 A 
ATOM     16  C   UNL     1      47.475   1.331   7.103  0.00  0.00    +0.000 A 
ATOM     17  C   UNL     1      46.398   1.126   7.970  0.00  0.00    +0.000 A 
ENDBRANCH  11  12
ENDBRANCH   9  11
ENDBRANCH   8   9
ENDBRANCH   1   8
BRANCH   4  18
ATOM     18  C   UNL     1      45.722   9.041  12.644  0.00  0.00    +0.000 C 
BRANCH  18  19
ATOM     19  N   UNL     1      46.945   9.448  12.009  0.00  0.00    +0.000 N 
ATOM     20  C   UNL     1      48.068   9.723  12.742  0.00  0.00    +0.000 C 
ATOM     21  O   UNL     1      48.102   9.588  13.962  0.00  0.00    +0.000 OA
ATOM     22  H   UNL     1      46.871   9.799  11.060  0.00  0.00    +0.000 HD
BRANCH  20  23
ATOM     23  C   UNL     1      49.256  10.116  11.976  0.00  0.00    +0.000 A 
ATOM     24  C   UNL     1      49.459  11.452  11.660  0.00  0.00    +0.000 A 
ATOM     25  S   UNL     1      50.925  11.744  10.843  0.00  0.00    +0.000 S 
ATOM     26  C   UNL     1      51.311  10.087  10.830  0.00  0.00    +0.000 A 
ATOM     27  N   UNL     1      52.462   9.640  10.259  0.00  0.00    +0.000 NA
ATOM     28  C   UNL     1      52.613   8.358  10.294  0.00  0.00    +0.000 A 
ATOM     29  N   UNL     1      51.718   7.480  10.847  0.00  0.00    +0.000 N 
ATOM     30  C   UNL     1      50.552   7.891  11.447  0.00  0.00    +0.000 A 
ATOM     31  O   UNL     1      49.785   7.076  11.955  0.00  0.00    +0.000 OA
ATOM     32  C   UNL     1      50.335   9.324  11.446  0.00  0.00    +0.000 A 
ATOM     33  H   UNL     1      51.891   6.486  10.838  0.00  0.00    +0.000 HD
ENDBRANCH  20  23
ENDBRANCH  18  19
ENDBRANCH   4  18
TORSDOF 7
ENDMDL
MODEL 5
REMARK VINA RESULT:    -7.499      3.562      8.561
REMARK INTER + INTRA:         -11.595
REMARK INTER:                  -9.715
REMARK INTRA:                  -1.881
REMARK UNBOUND:                -1.028
REMARK  Name = 
REMARK  8 active torsions:
REMARK  status: ('A' for Active; 'I' for Inactive)
REMARK    1  A    between atoms: C_1  and  C_2
REMARK    2  A    between atoms: C_2  and  N_3
REMARK    3  A    between atoms: C_2  and  C_11
REMARK    4  A    between atoms: N_3  and  C_4
REMARK    5  A    between atoms: C_4  and  C_5
REMARK    6  A    between atoms: C_14  and  C_15
REMARK    7  A    between atoms: C_15  and  N_16
REMARK    8  A    between atoms: C_17  and  C_19
REMARK                            x       y       z     vdW  Elec       q    Type
REMARK                         _______ _______ _______ _____ _____    ______ ____
ROOT
ATOM      1  C   UNL     1      48.614   7.688  16.430  0.00  0.00    +0.000 A 
ATOM      2  C   UNL     1      48.835   6.573  15.600  0.00  0.00    +0.000 A 
ATOM      3  C   UNL     1      48.722   6.672  14.212  0.00  0.00    +0.000 A 
ATOM      4  C   UNL     1      48.440   7.905  13.617  0.00  0.00    +0.000 A 
ATOM      5  C   UNL     1      48.186   9.011  14.436  0.00  0.00    +0.000 A 
ATOM      6  C   UNL     1      48.258   8.901  15.826  0.00  0.00    +0.000 A 
ENDROOT
BRANCH   1   8
ATOM      7  C   UNL     1      48.943   8.872  18.656  0.00  0.00    +0.000 C 
ATOM      8  C   UNL     1      48.723   7.527  17.944  0.00  0.00    +0.000 C 
BRANCH   8   9
ATOM      9  N   UNL     1      47.551   6.856  18.544  0.00  0.00    +0.000 NA
ATOM     10  H   UNL     1      46.907   6.582  17.805  0.00  0.00    +0.000 HD
BRANCH   9  11
ATOM     11  C   UNL     1      47.933   5.669  19.307  0.00  0.00    +0.000 C 
BRANCH  11  12
ATOM     12  C   UNL     1      48.274   4.477  18.447  0.00  0.00    +0.000 A 
ATOM     13  C   UNL     1      47.319   3.968  17.551  0.00  0.00    +0.000 A 
ATOM     14  C   UNL     1      47.652   2.947  16.662  0.00  0.00    +0.000 A 
ATOM     15  C   UNL     1      48.940   2.419  16.662  0.00  0.00    +0.000 A 
ATOM     16  C   UNL     1      49.890   2.900  17.564  0.00  0.00    +0.000 A 
ATOM     17  C   UNL     1      49.559   3.921  18.457  0.00  0.00    +0.000 A 
ENDBRANCH  11  12
ENDBRANCH   9  11
ENDBRANCH   8   9
ENDBRANCH   1   8
BRANCH   4  18
ATOM     18  C   UNL     1      48.368   8.044  12.122  0.00  0.00    +0.000 C 
BRANCH  18  19
ATOM     19  N   UNL     1      47.638   6.949  11.544  0.00  0.00    +0.000 N 
ATOM     20  C   UNL     1      46.275   6.995  11.416  0.00  0.00    +0.000 C 
ATOM     21  O   UNL     1      45.621   7.983  11.738  0.00  0.00    +0.000 OA
ATOM     22  H   UNL     1      48.112   6.054  11.507  0.00  0.00    +0.000 HD
BRANCH  20  23
ATOM     23  C   UNL     1      45.648   5.820  10.799  0.00  0.00    +0.000 A 
ATOM     24  C   UNL     1      45.802   5.593   9.439  0.00  0.00    +0.000 A 
ATOM     25  S   UNL     1      45.082   4.144   8.905  0.00  0.00    +0.000 S 
ATOM     26  C   UNL     1      44.487   3.801  10.461  0.00  0.00    +0.000 A 
ATOM     27  N   UNL     1      43.757   2.679  10.700  0.00  0.00    +0.000 NA
ATOM     28  C   UNL     1      43.344   2.559  11.919  0.00  0.00    +0.000 A 
ATOM     29  N   UNL     1      43.594   3.460  12.920  0.00  0.00    +0.000 N 
ATOM     30  C   UNL     1      44.341   4.597  12.725  0.00  0.00    +0.000 A 
ATOM     31  O   UNL     1      44.566   5.369  13.654  0.00  0.00    +0.000 OA
ATOM     32  C   UNL     1      44.839   4.777  11.376  0.00  0.00    +0.000 A 
ATOM     33  H   UNL     1      43.239   3.312  13.853  0.00  0.00    +0.000 HD
ENDBRANCH  20  23
ENDBRANCH  18  19
ENDBRANCH   4  18
TORSDOF 7
ENDMDL
MODEL 6
REMARK VINA RESULT:    -7.420      3.339      9.000
REMARK INTER + INTRA:         -11.485
REMARK INTER:                  -9.645
REMARK INTRA:                  -1.840
REMARK UNBOUND:                -1.028
REMARK  Name = 
REMARK  8 active torsions:
REMARK  status: ('A' for Active; 'I' for Inactive)
REMARK    1  A    between atoms: C_1  and  C_2
REMARK    2  A    between atoms: C_2  and  N_3
REMARK    3  A    between atoms: C_2  and  C_11
REMARK    4  A    between atoms: N_3  and  C_4
REMARK    5  A    between atoms: C_4  and  C_5
REMARK    6  A    between atoms: C_14  and  C_15
REMARK    7  A    between atoms: C_15  and  N_16
REMARK    8  A    between atoms: C_17  and  C_19
REMARK                            x       y       z     vdW  Elec       q    Type
REMARK                         _______ _______ _______ _____ _____    ______ ____
ROOT
ATOM      1  C   UNL     1      48.889   8.061  16.206  0.00  0.00    +0.000 A 
ATOM      2  C   UNL     1      48.415   9.199  15.526  0.00  0.00    +0.000 A 
ATOM      3  C   UNL     1      48.046   9.136  14.181  0.00  0.00    +0.000 A 
ATOM      4  C   UNL     1      48.088   7.917  13.498  0.00  0.00    +0.000 A 
ATOM      5  C   UNL     1      48.589   6.788  14.157  0.00  0.00    +0.000 A 
ATOM      6  C   UNL     1      48.997   6.861  15.490  0.00  0.00    +0.000 A 
ENDROOT
BRANCH   1   8
ATOM      7  C   UNL     1      48.096   8.332  18.607  0.00  0.00    +0.000 C 
ATOM      8  C   UNL     1      49.306   8.183  17.669  0.00  0.00    +0.000 C 
BRANCH   8   9
ATOM      9  N   UNL     1      50.134   7.052  18.135  0.00  0.00    +0.000 NA
ATOM     10  H   UNL     1      50.932   7.412  18.654  0.00  0.00    +0.000 HD
BRANCH   9  11
ATOM     11  C   UNL     1      49.379   6.139  18.993  0.00  0.00    +0.000 C 
BRANCH  11  12
ATOM     12  C   UNL     1      49.002   4.844  18.319  0.00  0.00    +0.000 A 
ATOM     13  C   UNL     1      47.655   4.577  18.026  0.00  0.00    +0.000 A 
ATOM     14  C   UNL     1      47.296   3.444  17.297  0.00  0.00    +0.000 A 
ATOM     15  C   UNL     1      48.280   2.561  16.858  0.00  0.00    +0.000 A 
ATOM     16  C   UNL     1      49.620   2.803  17.163  0.00  0.00    +0.000 A 
ATOM     17  C   UNL     1      49.980   3.937  17.896  0.00  0.00    +0.000 A 
ENDBRANCH  11  12
ENDBRANCH   9  11
ENDBRANCH   8   9
ENDBRANCH   1   8
BRANCH   4  18
ATOM     18  C   UNL     1      47.643   7.817  12.067  0.00  0.00    +0.000 C 
BRANCH  18  19
ATOM     19  N   UNL     1      46.949   6.580  11.835  0.00  0.00    +0.000 N 
ATOM     20  C   UNL     1      45.583   6.512  11.895  0.00  0.00    +0.000 C 
ATOM     21  O   UNL     1      44.887   7.503  12.097  0.00  0.00    +0.000 OA
ATOM     22  H   UNL     1      47.494   5.729  11.916  0.00  0.00    +0.000 HD
BRANCH  20  23
ATOM     23  C   UNL     1      44.993   5.195  11.627  0.00  0.00    +0.000 A 
ATOM     24  C   UNL     1      44.326   4.521  12.642  0.00  0.00    +0.000 A 
ATOM     25  S   UNL     1      43.631   3.050  12.139  0.00  0.00    +0.000 S 
ATOM     26  C   UNL     1      44.248   3.232  10.564  0.00  0.00    +0.000 A 
ATOM     27  N   UNL     1      44.018   2.292   9.608  0.00  0.00    +0.000 NA
ATOM     28  C   UNL     1      44.570   2.544   8.468  0.00  0.00    +0.000 A 
ATOM     29  N   UNL     1      45.332   3.649   8.195  0.00  0.00    +0.000 N 
ATOM     30  C   UNL     1      45.575   4.629   9.127  0.00  0.00    +0.000 A 
ATOM     31  O   UNL     1      46.242   5.620   8.838  0.00  0.00    +0.000 OA
ATOM     32  C   UNL     1      44.970   4.404  10.424  0.00  0.00    +0.000 A 
ATOM     33  H   UNL     1      45.742   3.786   7.283  0.00  0.00    +0.000 HD
ENDBRANCH  20  23
ENDBRANCH  18  19
ENDBRANCH   4  18
TORSDOF 7
ENDMDL
MODEL 7
REMARK VINA RESULT:    -7.296      3.807      9.442
REMARK INTER + INTRA:         -11.310
REMARK INTER:                  -9.264
REMARK INTRA:                  -2.046
REMARK UNBOUND:                -1.028
REMARK  Name = 
REMARK  8 active torsions:
REMARK  status: ('A' for Active; 'I' for Inactive)
REMARK    1  A    between atoms: C_1  and  C_2
REMARK    2  A    between atoms: C_2  and  N_3
REMARK    3  A    between atoms: C_2  and  C_11
REMARK    4  A    between atoms: N_3  and  C_4
REMARK    5  A    between atoms: C_4  and  C_5
REMARK    6  A    between atoms: C_14  and  C_15
REMARK    7  A    between atoms: C_15  and  N_16
REMARK    8  A    between atoms: C_17  and  C_19
REMARK                            x       y       z     vdW  Elec       q    Type
REMARK                         _______ _______ _______ _____ _____    ______ ____
ROOT
ATOM      1  C   UNL     1      48.483   5.447  20.170  0.00  0.00    +0.000 A 
ATOM      2  C   UNL     1      49.289   4.425  19.633  0.00  0.00    +0.000 A 
ATOM      3  C   UNL     1      48.942   3.780  18.444  0.00  0.00    +0.000 A 
ATOM      4  C   UNL     1      47.808   4.182  17.732  0.00  0.00    +0.000 A 
ATOM      5  C   UNL     1      46.984   5.174  18.275  0.00  0.00    +0.000 A 
ATOM      6  C   UNL     1      47.309   5.790  19.485  0.00  0.00    +0.000 A 
ENDROOT
BRANCH   1   8
ATOM      7  C   UNL     1      50.226   5.569  22.016  0.00  0.00    +0.000 C 
ATOM      8  C   UNL     1      48.886   6.106  21.486  0.00  0.00    +0.000 C 
BRANCH   8   9
ATOM      9  N   UNL     1      48.962   7.578  21.400  0.00  0.00    +0.000 NA
ATOM     10  H   UNL     1      49.122   7.961  22.330  0.00  0.00    +0.000 HD
BRANCH   9  11
ATOM     11  C   UNL     1      50.039   8.019  20.513  0.00  0.00    +0.000 C 
BRANCH  11  12
ATOM     12  C   UNL     1      49.581   8.333  19.111  0.00  0.00    +0.000 A 
ATOM     13  C   UNL     1      50.232   7.742  18.016  0.00  0.00    +0.000 A 
ATOM     14  C   UNL     1      49.750   7.922  16.720  0.00  0.00    +0.000 A 
ATOM     15  C   UNL     1      48.616   8.700  16.503  0.00  0.00    +0.000 A 
ATOM     16  C   UNL     1      47.974   9.311  17.581  0.00  0.00    +0.000 A 
ATOM     17  C   UNL     1      48.456   9.134  18.879  0.00  0.00    +0.000 A 
ENDBRANCH  11  12
ENDBRANCH   9  11
ENDBRANCH   8   9
ENDBRANCH   1   8
BRANCH   4  18
ATOM     18  C   UNL     1      47.448   3.538  16.423  0.00  0.00    +0.000 C 
BRANCH  18  19
ATOM     19  N   UNL     1      46.805   4.483  15.551  0.00  0.00    +0.000 N 
ATOM     20  C   UNL     1      46.813   4.313  14.193  0.00  0.00    +0.000 C 
ATOM     21  O   UNL     1      47.320   3.329  13.659  0.00  0.00    +0.000 OA
ATOM     22  H   UNL     1      46.609   5.400  15.937  0.00  0.00    +0.000 HD
BRANCH  20  23
ATOM     23  C   UNL     1      46.112   5.339  13.412  0.00  0.00    +0.000 A 
ATOM     24  C   UNL     1      46.707   6.577  13.212  0.00  0.00    +0.000 A 
ATOM     25  S   UNL     1      45.797   7.617  12.216  0.00  0.00    +0.000 S 
ATOM     26  C   UNL     1      44.548   6.471  12.067  0.00  0.00    +0.000 A 
ATOM     27  N   UNL     1      43.435   6.740  11.332  0.00  0.00    +0.000 NA
ATOM     28  C   UNL     1      42.556   5.794  11.330  0.00  0.00    +0.000 A 
ATOM     29  N   UNL     1      42.686   4.604  11.995  0.00  0.00    +0.000 N 
ATOM     30  C   UNL     1      43.800   4.287  12.735  0.00  0.00    +0.000 A 
ATOM     31  O   UNL     1      43.892   3.198  13.297  0.00  0.00    +0.000 OA
ATOM     32  C   UNL     1      44.826   5.309  12.764  0.00  0.00    +0.000 A 
ATOM     33  H   UNL     1      41.958   3.905  11.959  0.00  0.00    +0.000 HD
ENDBRANCH  20  23
ENDBRANCH  18  19
ENDBRANCH   4  18
TORSDOF 7
ENDMDL
MODEL 8
REMARK VINA RESULT:    -7.281      3.955      9.938
REMARK INTER + INTRA:         -11.288
REMARK INTER:                  -9.180
REMARK INTRA:                  -2.108
REMARK UNBOUND:                -1.028
REMARK  Name = 
REMARK  8 active torsions:
REMARK  status: ('A' for Active; 'I' for Inactive)
REMARK    1  A    between atoms: C_1  and  C_2
REMARK    2  A    between atoms: C_2  and  N_3
REMARK    3  A    between atoms: C_2  and  C_11
REMARK    4  A    between atoms: N_3  and  C_4
REMARK    5  A    between atoms: C_4  and  C_5
REMARK    6  A    between atoms: C_14  and  C_15
REMARK    7  A    between atoms: C_15  and  N_16
REMARK    8  A    between atoms: C_17  and  C_19
REMARK                            x       y       z     vdW  Elec       q    Type
REMARK                         _______ _______ _______ _____ _____    ______ ____
ROOT
ATOM      1  C   UNL     1      51.082   5.530  18.282  0.00  0.00    +0.000 A 
ATOM      2  C   UNL     1      50.247   6.281  17.433  0.00  0.00    +0.000 A 
ATOM      3  C   UNL     1      49.146   5.698  16.802  0.00  0.00    +0.000 A 
ATOM      4  C   UNL     1      48.820   4.362  17.052  0.00  0.00    +0.000 A 
ATOM      5  C   UNL     1      49.663   3.600  17.868  0.00  0.00    +0.000 A 
ATOM      6  C   UNL     1      50.787   4.172  18.466  0.00  0.00    +0.000 A 
ENDROOT
BRANCH   1   8
ATOM      7  C   UNL     1      52.360   7.704  18.607  0.00  0.00    +0.000 C 
ATOM      8  C   UNL     1      52.290   6.202  18.930  0.00  0.00    +0.000 C 
BRANCH   8   9
ATOM      9  N   UNL     1      52.337   6.026  20.396  0.00  0.00    +0.000 NA
ATOM     10  H   UNL     1      53.302   6.102  20.712  0.00  0.00    +0.000 HD
BRANCH   9  11
ATOM     11  C   UNL     1      51.529   7.026  21.092  0.00  0.00    +0.000 C 
BRANCH  11  12
ATOM     12  C   UNL     1      50.066   6.670  21.182  0.00  0.00    +0.000 A 
ATOM     13  C   UNL     1      49.102   7.541  20.648  0.00  0.00    +0.000 A 
ATOM     14  C   UNL     1      47.756   7.177  20.612  0.00  0.00    +0.000 A 
ATOM     15  C   UNL     1      47.359   5.941  21.114  0.00  0.00    +0.000 A 
ATOM     16  C   UNL     1      48.304   5.076  21.668  0.00  0.00    +0.000 A 
ATOM     17  C   UNL     1      49.652   5.441  21.707  0.00  0.00    +0.000 A 
ENDBRANCH  11  12
ENDBRANCH   9  11
ENDBRANCH   8   9
ENDBRANCH   1   8
BRANCH   4  18
ATOM     18  C   UNL     1      47.608   3.732  16.426  0.00  0.00    +0.000 C 
BRANCH  18  19
ATOM     19  N   UNL     1      46.972   4.646  15.517  0.00  0.00    +0.000 N 
ATOM     20  C   UNL     1      46.785   4.321  14.200  0.00  0.00    +0.000 C 
ATOM     21  O   UNL     1      47.102   3.225  13.745  0.00  0.00    +0.000 OA
ATOM     22  H   UNL     1      46.934   5.619  15.800  0.00  0.00    +0.000 HD
BRANCH  20  23
ATOM     23  C   UNL     1      46.113   5.333  13.377  0.00  0.00    +0.000 A 
ATOM     24  C   UNL     1      46.773   6.513  13.064  0.00  0.00    +0.000 A 
ATOM     25  S   UNL     1      45.883   7.538  12.033  0.00  0.00    +0.000 S 
ATOM     26  C   UNL     1      44.561   6.467  12.019  0.00  0.00    +0.000 A 
ATOM     27  N   UNL     1      43.434   6.755  11.314  0.00  0.00    +0.000 NA
ATOM     28  C   UNL     1      42.499   5.869  11.416  0.00  0.00    +0.000 A 
ATOM     29  N   UNL     1      42.587   4.723  12.160  0.00  0.00    +0.000 N 
ATOM     30  C   UNL     1      43.712   4.387  12.874  0.00  0.00    +0.000 A 
ATOM     31  O   UNL     1      43.764   3.337  13.509  0.00  0.00    +0.000 OA
ATOM     32  C   UNL     1      44.800   5.341  12.787  0.00  0.00    +0.000 A 
ATOM     33  H   UNL     1      41.817   4.071  12.204  0.00  0.00    +0.000 HD
ENDBRANCH  20  23
ENDBRANCH  18  19
ENDBRANCH   4  18
TORSDOF 7
ENDMDL
MODEL 9
REMARK VINA RESULT:    -7.140      3.901      9.081
REMARK INTER + INTRA:         -11.090
REMARK INTER:                  -8.799
REMARK INTRA:                  -2.291
REMARK UNBOUND:                -1.028
REMARK  Name = 
REMARK  8 active torsions:
REMARK  status: ('A' for Active; 'I' for Inactive)
REMARK    1  A    between atoms: C_1  and  C_2
REMARK    2  A    between atoms: C_2  and  N_3
REMARK    3  A    between atoms: C_2  and  C_11
REMARK    4  A    between atoms: N_3  and  C_4
REMARK    5  A    between atoms: C_4  and  C_5
REMARK    6  A    between atoms: C_14  and  C_15
REMARK    7  A    between atoms: C_15  and  N_16
REMARK    8  A    between atoms: C_17  and  C_19
REMARK                            x       y       z     vdW  Elec       q    Type
REMARK                         _______ _______ _______ _____ _____    ______ ____
ROOT
ATOM      1  C   UNL     1      51.190   3.920  18.562  0.00  0.00    +0.000 A 
ATOM      2  C   UNL     1      50.093   4.618  19.103  0.00  0.00    +0.000 A 
ATOM      3  C   UNL     1      48.807   4.457  18.585  0.00  0.00    +0.000 A 
ATOM      4  C   UNL     1      48.576   3.549  17.547  0.00  0.00    +0.000 A 
ATOM      5  C   UNL     1      49.665   2.877  16.981  0.00  0.00    +0.000 A 
ATOM      6  C   UNL     1      50.958   3.069  17.473  0.00  0.00    +0.000 A 
ENDROOT
BRANCH   1   8
ATOM      7  C   UNL     1      53.688   3.588  18.233  0.00  0.00    +0.000 C 
ATOM      8  C   UNL     1      52.583   4.147  19.143  0.00  0.00    +0.000 C 
BRANCH   8   9
ATOM      9  N   UNL     1      52.871   5.568  19.426  0.00  0.00    +0.000 NA
ATOM     10  H   UNL     1      53.639   5.628  20.091  0.00  0.00    +0.000 HD
BRANCH   9  11
ATOM     11  C   UNL     1      53.231   6.304  18.215  0.00  0.00    +0.000 C 
BRANCH  11  12
ATOM     12  C   UNL     1      52.059   6.970  17.538  0.00  0.00    +0.000 A 
ATOM     13  C   UNL     1      51.681   6.569  16.245  0.00  0.00    +0.000 A 
ATOM     14  C   UNL     1      50.530   7.084  15.649  0.00  0.00    +0.000 A 
ATOM     15  C   UNL     1      49.747   8.008  16.335  0.00  0.00    +0.000 A 
ATOM     16  C   UNL     1      50.125   8.432  17.610  0.00  0.00    +0.000 A 
ATOM     17  C   UNL     1      51.279   7.919  18.208  0.00  0.00    +0.000 A 
ENDBRANCH  11  12
ENDBRANCH   9  11
ENDBRANCH   8   9
ENDBRANCH   1   8
BRANCH   4  18
ATOM     18  C   UNL     1      47.191   3.321  17.013  0.00  0.00    +0.000 C 
BRANCH  18  19
ATOM     19  N   UNL     1      46.843   4.334  16.054  0.00  0.00    +0.000 N 
ATOM     20  C   UNL     1      46.995   4.120  14.710  0.00  0.00    +0.000 C 
ATOM     21  O   UNL     1      47.384   3.047  14.258  0.00  0.00    +0.000 OA
ATOM     22  H   UNL     1      46.763   5.283  16.401  0.00  0.00    +0.000 HD
BRANCH  20  23
ATOM     23  C   UNL     1      46.593   5.226  13.834  0.00  0.00    +0.000 A 
ATOM     24  C   UNL     1      47.425   6.327  13.690  0.00  0.00    +0.000 A 
ATOM     25  S   UNL     1      46.847   7.477  12.573  0.00  0.00    +0.000 S 
ATOM     26  C   UNL     1      45.435   6.572  12.289  0.00  0.00    +0.000 A 
ATOM     27  N   UNL     1      44.485   7.010  11.419  0.00  0.00    +0.000 NA
ATOM     28  C   UNL     1      43.453   6.240  11.322  0.00  0.00    +0.000 A 
ATOM     29  N   UNL     1      43.282   5.072  12.017  0.00  0.00    +0.000 N 
ATOM     30  C   UNL     1      44.223   4.586  12.893  0.00  0.00    +0.000 A 
ATOM     31  O   UNL     1      44.045   3.521  13.479  0.00  0.00    +0.000 OA
ATOM     32  C   UNL     1      45.409   5.406  13.033  0.00  0.00    +0.000 A 
ATOM     33  H   UNL     1      42.447   4.515  11.902  0.00  0.00    +0.000 HD
ENDBRANCH  20  23
ENDBRANCH  18  19
ENDBRANCH   4  18
TORSDOF 7
ENDMDL
