MODEL 1
REMARK VINA RESULT:    -8.638      0.000      0.000
REMARK INTER + INTRA:         -12.319
REMARK INTER:                 -11.668
REMARK INTRA:                  -0.651
REMARK UNBOUND:                -0.651
REMARK  Name = 
REMARK  7 active torsions:
REMARK  status: ('A' for Active; 'I' for Inactive)
REMARK    1  A    between atoms: C_1  and  C_2
REMARK    2  A    between atoms: C_6  and  C_7
REMARK    3  A    between atoms: N_9  and  C_10
REMARK    4  A    between atoms: C_10  and  C_11
REMARK    5  A    between atoms: C_14  and  C_15
REMARK    6  A    between atoms: C_15  and  N_16
REMARK    7  A    between atoms: C_17  and  C_19
REMARK                            x       y       z     vdW  Elec       q    Type
REMARK                         _______ _______ _______ _____ _____    ______ ____
ROOT
ATOM      1  C   UNL     1      44.550   5.506  11.322  0.00  0.00    +0.000 A 
ATOM      2  C   UNL     1      45.634   4.937  12.004  0.00  0.00    +0.000 A 
ATOM      3  C   UNL     1      46.540   5.741  12.706  0.00  0.00    +0.000 A 
ATOM      4  C   UNL     1      46.370   7.130  12.757  0.00  0.00    +0.000 A 
ATOM      5  C   UNL     1      45.295   7.701  12.062  0.00  0.00    +0.000 A 
ATOM      6  C   UNL     1      44.388   6.898  11.362  0.00  0.00    +0.000 A 
ENDROOT
BRANCH   1   7
ATOM      7  C   UNL     1      43.577   4.636  10.570  0.00  0.00    +0.000 C 
BRANCH   7  10
ATOM      8  C   UNL     1      45.103   4.004   8.761  0.00  0.00    +0.000 C 
ATOM      9  O   UNL     1      45.325   5.175   8.469  0.00  0.00    +0.000 OA
ATOM     10  N   UNL     1      44.251   3.629   9.779  0.00  0.00    +0.000 N 
ATOM     11  H   UNL     1      44.242   2.675  10.115  0.00  0.00    +0.000 HD
BRANCH   8  17
ATOM     12  C   UNL     1      47.764   2.211   4.857  0.00  0.00    +0.000 C 
ATOM     13  C   UNL     1      47.069   2.033   6.170  0.00  0.00    +0.000 A 
ATOM     14  C   UNL     1      47.060   0.804   6.824  0.00  0.00    +0.000 A 
ATOM     15  N   UNL     1      46.471   0.591   8.022  0.00  0.00    +0.000 NA
ATOM     16  C   UNL     1      45.860   1.656   8.600  0.00  0.00    +0.000 A 
ATOM     17  C   UNL     1      45.791   2.920   8.023  0.00  0.00    +0.000 A 
ATOM     18  C   UNL     1      46.418   3.108   6.790  0.00  0.00    +0.000 A 
ENDBRANCH   8  17
ENDBRANCH   7  10
ENDBRANCH   1   7
BRANCH   4  19
ATOM     19  C   UNL     1      47.335   8.003  13.520  0.00  0.00    +0.000 C 
BRANCH  19  20
ATOM     20  N   UNL     1      47.713   7.406  14.776  0.00  0.00    +0.000 N 
ATOM     21  C   UNL     1      48.988   6.941  14.983  0.00  0.00    +0.000 C 
ATOM     22  O   UNL     1      49.866   7.051  14.130  0.00  0.00    +0.000 OA
ATOM     23  H   UNL     1      46.964   7.105  15.392  0.00  0.00    +0.000 HD
BRANCH  21  24
ATOM     24  C   UNL     1      49.271   6.355  16.300  0.00  0.00    +0.000 A 
ATOM     25  C   UNL     1      50.199   6.960  17.137  0.00  0.00    +0.000 A 
ATOM     26  S   UNL     1      50.371   6.185  18.647  0.00  0.00    +0.000 S 
ATOM     27  C   UNL     1      49.251   4.980  18.214  0.00  0.00    +0.000 A 
ATOM     28  N   UNL     1      48.949   3.966  19.071  0.00  0.00    +0.000 NA
ATOM     29  C   UNL     1      48.110   3.103  18.602  0.00  0.00    +0.000 A 
ATOM     30  N   UNL     1      47.540   3.166  17.358  0.00  0.00    +0.000 N 
ATOM     31  C   UNL     1      47.790   4.187  16.471  0.00  0.00    +0.000 A 
ATOM     32  O   UNL     1      47.232   4.236  15.380  0.00  0.00    +0.000 OA
ATOM     33  C   UNL     1      48.739   5.177  16.944  0.00  0.00    +0.000 A 
ATOM     34  H   UNL     1      46.884   2.463  17.054  0.00  0.00    +0.000 HD
ENDBRANCH  21  24
ENDBRANCH  19  20
ENDBRANCH   4  19
TORSDOF 6
ENDMDL
MODEL 2
REMARK VINA RESULT:    -8.293      2.052      2.487
REMARK INTER + INTRA:         -11.853
REMARK INTER:                 -10.818
REMARK INTRA:                  -1.035
REMARK UNBOUND:                -0.651
REMARK  Name = 
REMARK  7 active torsions:
REMARK  status: ('A' for Active; 'I' for Inactive)
REMARK    1  A    between atoms: C_1  and  C_2
REMARK    2  A    between atoms: C_6  and  C_7
REMARK    3  A    between atoms: N_9  and  C_10
REMARK    4  A    between atoms: C_10  and  C_11
REMARK    5  A    between atoms: C_14  and  C_15
REMARK    6  A    between atoms: C_15  and  N_16
REMARK    7  A    between atoms: C_17  and  C_19
REMARK                            x       y       z     vdW  Elec       q    Type
REMARK                         _______ _______ _______ _____ _____    ______ ____
ROOT
ATOM      1  C   UNL     1      45.305   5.010  11.849  0.00  0.00    +0.000 A 
ATOM      2  C   UNL     1      45.983   4.294  12.845  0.00  0.00    +0.000 A 
ATOM      3  C   UNL     1      46.954   4.916  13.639  0.00  0.00    +0.000 A 
ATOM      4  C   UNL     1      47.253   6.273  13.467  0.00  0.00    +0.000 A 
ATOM      5  C   UNL     1      46.586   6.986  12.461  0.00  0.00    +0.000 A 
ATOM      6  C   UNL     1      45.614   6.365  11.668  0.00  0.00    +0.000 A 
ENDROOT
BRANCH   1   7
ATOM      7  C   UNL     1      44.260   4.337  10.999  0.00  0.00    +0.000 C 
BRANCH   7  10
ATOM      8  C   UNL     1      45.342   3.772   8.875  0.00  0.00    +0.000 C 
ATOM      9  O   UNL     1      45.316   4.937   8.492  0.00  0.00    +0.000 OA
ATOM     10  N   UNL     1      44.840   3.367  10.095  0.00  0.00    +0.000 N 
ATOM     11  H   UNL     1      45.050   2.446  10.455  0.00  0.00    +0.000 HD
BRANCH   8  17
ATOM     12  C   UNL     1      47.685   2.210   4.679  0.00  0.00    +0.000 C 
ATOM     13  C   UNL     1      47.087   1.953   6.026  0.00  0.00    +0.000 A 
ATOM     14  C   UNL     1      47.111   0.686   6.601  0.00  0.00    +0.000 A 
ATOM     15  N   UNL     1      46.609   0.402   7.824  0.00  0.00    +0.000 NA
ATOM     16  C   UNL     1      46.055   1.433   8.511  0.00  0.00    +0.000 A 
ATOM     17  C   UNL     1      45.960   2.731   8.021  0.00  0.00    +0.000 A 
ATOM     18  C   UNL     1      46.496   2.992   6.759  0.00  0.00    +0.000 A 
ENDBRANCH   8  17
ENDBRANCH   7  10
ENDBRANCH   1   7
BRANCH   4  19
ATOM     19  C   UNL     1      48.289   6.954  14.325  0.00  0.00    +0.000 C 
BRANCH  19  20
ATOM     20  N   UNL     1      48.096   6.664  15.724  0.00  0.00    +0.000 N 
ATOM     21  C   UNL     1      49.146   6.272  16.517  0.00  0.00    +0.000 C 
ATOM     22  O   UNL     1      50.293   6.193  16.083  0.00  0.00    +0.000 OA
ATOM     23  H   UNL     1      47.144   6.505  16.038  0.00  0.00    +0.000 HD
BRANCH  21  24
ATOM     24  C   UNL     1      48.843   6.005  17.929  0.00  0.00    +0.000 A 
ATOM     25  C   UNL     1      49.071   4.739  18.454  0.00  0.00    +0.000 A 
ATOM     26  S   UNL     1      48.718   4.612  20.118  0.00  0.00    +0.000 S 
ATOM     27  C   UNL     1      48.196   6.230  20.185  0.00  0.00    +0.000 A 
ATOM     28  N   UNL     1      47.730   6.767  21.345  0.00  0.00    +0.000 NA
ATOM     29  C   UNL     1      47.337   7.993  21.246  0.00  0.00    +0.000 A 
ATOM     30  N   UNL     1      47.374   8.733  20.092  0.00  0.00    +0.000 N 
ATOM     31  C   UNL     1      47.865   8.243  18.905  0.00  0.00    +0.000 A 
ATOM     32  O   UNL     1      47.923   8.945  17.901  0.00  0.00    +0.000 OA
ATOM     33  C   UNL     1      48.308   6.863  18.959  0.00  0.00    +0.000 A 
ATOM     34  H   UNL     1      47.058   9.691  20.083  0.00  0.00    +0.000 HD
ENDBRANCH  21  24
ENDBRANCH  19  20
ENDBRANCH   4  19
TORSDOF 6
ENDMDL
MODEL 3
REMARK VINA RESULT:    -7.559      2.740      4.679
REMARK INTER + INTRA:         -10.861
REMARK INTER:                  -9.989
REMARK INTRA:                  -0.872
REMARK UNBOUND:                -0.651
REMARK  Name = 
REMARK  7 active torsions:
REMARK  status: ('A' for Active; 'I' for Inactive)
REMARK    1  A    between atoms: C_1  and  C_2
REMARK    2  A    between atoms: C_6  and  C_7
REMARK    3  A    between atoms: N_9  and  C_10
REMARK    4  A    between atoms: C_10  and  C_11
REMARK    5  A    between atoms: C_14  and  C_15
REMARK    6  A    between atoms: C_15  and  N_16
REMARK    7  A    between atoms: C_17  and  C_19
REMARK                            x       y       z     vdW  Elec       q    Type
REMARK                         _______ _______ _______ _____ _____    ______ ____
ROOT
ATOM      1  C   UNL     1      44.814   3.851  12.122  0.00  0.00    +0.000 A 
ATOM      2  C   UNL     1      45.860   3.140  12.727  0.00  0.00    +0.000 A 
ATOM      3  C   UNL     1      46.748   3.779  13.600  0.00  0.00    +0.000 A 
ATOM      4  C   UNL     1      46.598   5.139  13.902  0.00  0.00    +0.000 A 
ATOM      5  C   UNL     1      45.562   5.853  13.284  0.00  0.00    +0.000 A 
ATOM      6  C   UNL     1      44.673   5.214  12.412  0.00  0.00    +0.000 A 
ENDROOT
BRANCH   1   7
ATOM      7  C   UNL     1      43.860   3.158  11.185  0.00  0.00    +0.000 C 
BRANCH   7  10
ATOM      8  C   UNL     1      45.102   3.091   9.074  0.00  0.00    +0.000 C 
ATOM      9  O   UNL     1      45.023   4.307   8.929  0.00  0.00    +0.000 OA
ATOM     10  N   UNL     1      44.556   2.422  10.150  0.00  0.00    +0.000 N 
ATOM     11  H   UNL     1      44.804   1.459  10.335  0.00  0.00    +0.000 HD
BRANCH   8  17
ATOM     12  C   UNL     1      47.597   2.497   4.720  0.00  0.00    +0.000 C 
ATOM     13  C   UNL     1      47.040   1.963   6.002  0.00  0.00    +0.000 A 
ATOM     14  C   UNL     1      47.219   0.633   6.372  0.00  0.00    +0.000 A 
ATOM     15  N   UNL     1      46.759   0.104   7.528  0.00  0.00    +0.000 NA
ATOM     16  C   UNL     1      46.089   0.940   8.359  0.00  0.00    +0.000 A 
ATOM     17  C   UNL     1      45.836   2.278   8.077  0.00  0.00    +0.000 A 
ATOM     18  C   UNL     1      46.332   2.796   6.879  0.00  0.00    +0.000 A 
ENDBRANCH   8  17
ENDBRANCH   7  10
ENDBRANCH   1   7
BRANCH   4  19
ATOM     19  C   UNL     1      47.543   5.833  14.850  0.00  0.00    +0.000 C 
BRANCH  19  20
ATOM     20  N   UNL     1      47.830   7.180  14.424  0.00  0.00    +0.000 N 
ATOM     21  C   UNL     1      48.715   7.427  13.405  0.00  0.00    +0.000 C 
ATOM     22  O   UNL     1      49.265   6.517  12.788  0.00  0.00    +0.000 OA
ATOM     23  H   UNL     1      47.570   7.932  15.055  0.00  0.00    +0.000 HD
BRANCH  21  24
ATOM     24  C   UNL     1      48.934   8.834  13.046  0.00  0.00    +0.000 A 
ATOM     25  C   UNL     1      50.217   9.365  13.092  0.00  0.00    +0.000 A 
ATOM     26  S   UNL     1      50.304  10.994  12.594  0.00  0.00    +0.000 S 
ATOM     27  C   UNL     1      48.622  11.065  12.351  0.00  0.00    +0.000 A 
ATOM     28  N   UNL     1      48.023  12.215  11.937  0.00  0.00    +0.000 NA
ATOM     29  C   UNL     1      46.739  12.138  11.826  0.00  0.00    +0.000 A 
ATOM     30  N   UNL     1      45.999  11.013  12.084  0.00  0.00    +0.000 N 
ATOM     31  C   UNL     1      46.563   9.821  12.474  0.00  0.00    +0.000 A 
ATOM     32  O   UNL     1      45.877   8.821  12.657  0.00  0.00    +0.000 OA
ATOM     33  C   UNL     1      48.005   9.857  12.627  0.00  0.00    +0.000 A 
ATOM     34  H   UNL     1      44.997  11.016  11.970  0.00  0.00    +0.000 HD
ENDBRANCH  21  24
ENDBRANCH  19  20
ENDBRANCH   4  19
TORSDOF 6
ENDMDL
MODEL 4
REMARK VINA RESULT:    -7.362      1.882      2.434
REMARK INTER + INTRA:         -10.595
REMARK INTER:                  -9.563
REMARK INTRA:                  -1.032
REMARK UNBOUND:                -0.651
REMARK  Name = 
REMARK  7 active torsions:
REMARK  status: ('A' for Active; 'I' for Inactive)
REMARK    1  A    between atoms: C_1  and  C_2
REMARK    2  A    between atoms: C_6  and  C_7
REMARK    3  A    between atoms: N_9  and  C_10
REMARK    4  A    between atoms: C_10  and  C_11
REMARK    5  A    between atoms: C_14  and  C_15
REMARK    6  A    between atoms: C_15  and  N_16
REMARK    7  A    between atoms: C_17  and  C_19
REMARK                            x       y       z     vdW  Elec       q    Type
REMARK                         _______ _______ _______ _____ _____    ______ ____
ROOT
ATOM      1  C   UNL     1      44.942   5.441  11.548  0.00  0.00    +0.000 A 
ATOM      2  C   UNL     1      44.625   6.795  11.369  0.00  0.00    +0.000 A 
ATOM      3  C   UNL     1      45.480   7.799  11.840  0.00  0.00    +0.000 A 
ATOM      4  C   UNL     1      46.680   7.469  12.483  0.00  0.00    +0.000 A 
ATOM      5  C   UNL     1      46.989   6.116  12.676  0.00  0.00    +0.000 A 
ATOM      6  C   UNL     1      46.136   5.112  12.204  0.00  0.00    +0.000 A 
ENDROOT
BRANCH   1   7
ATOM      7  C   UNL     1      44.019   4.366  11.038  0.00  0.00    +0.000 C 
BRANCH   7  10
ATOM      8  C   UNL     1      44.988   3.717   8.883  0.00  0.00    +0.000 C 
ATOM      9  O   UNL     1      44.662   4.777   8.359  0.00  0.00    +0.000 OA
ATOM     10  N   UNL     1      44.713   3.410  10.200  0.00  0.00    +0.000 N 
ATOM     11  H   UNL     1      45.160   2.621  10.647  0.00  0.00    +0.000 HD
BRANCH   8  17
ATOM     12  C   UNL     1      47.855   2.290   4.975  0.00  0.00    +0.000 C 
ATOM     13  C   UNL     1      47.116   1.997   6.242  0.00  0.00    +0.000 A 
ATOM     14  C   UNL     1      47.122   0.724   6.806  0.00  0.00    +0.000 A 
ATOM     15  N   UNL     1      46.493   0.409   7.961  0.00  0.00    +0.000 NA
ATOM     16  C   UNL     1      45.826   1.410   8.587  0.00  0.00    +0.000 A 
ATOM     17  C   UNL     1      45.738   2.709   8.099  0.00  0.00    +0.000 A 
ATOM     18  C   UNL     1      46.406   3.005   6.909  0.00  0.00    +0.000 A 
ENDBRANCH   8  17
ENDBRANCH   7  10
ENDBRANCH   1   7
BRANCH   4  19
ATOM     19  C   UNL     1      47.613   8.544  12.983  0.00  0.00    +0.000 C 
BRANCH  19  20
ATOM     20  N   UNL     1      48.787   7.983  13.603  0.00  0.00    +0.000 N 
ATOM     21  C   UNL     1      49.744   8.790  14.165  0.00  0.00    +0.000 C 
ATOM     22  O   UNL     1      49.623  10.013  14.202  0.00  0.00    +0.000 OA
ATOM     23  H   UNL     1      49.011   7.017  13.386  0.00  0.00    +0.000 HD
BRANCH  21  24
ATOM     24  C   UNL     1      50.899   8.118  14.776  0.00  0.00    +0.000 A 
ATOM     25  C   UNL     1      52.185   8.486  14.403  0.00  0.00    +0.000 A 
ATOM     26  S   UNL     1      53.410   7.648  15.244  0.00  0.00    +0.000 S 
ATOM     27  C   UNL     1      52.265   6.725  16.098  0.00  0.00    +0.000 A 
ATOM     28  N   UNL     1      52.659   5.775  16.990  0.00  0.00    +0.000 NA
ATOM     29  C   UNL     1      51.687   5.126  17.542  0.00  0.00    +0.000 A 
ATOM     30  N   UNL     1      50.359   5.346  17.287  0.00  0.00    +0.000 N 
ATOM     31  C   UNL     1      49.914   6.314  16.419  0.00  0.00    +0.000 A 
ATOM     32  O   UNL     1      48.716   6.514  16.244  0.00  0.00    +0.000 OA
ATOM     33  C   UNL     1      50.967   7.064  15.761  0.00  0.00    +0.000 A 
ATOM     34  H   UNL     1      49.647   4.809  17.759  0.00  0.00    +0.000 HD
ENDBRANCH  21  24
ENDBRANCH  19  20
ENDBRANCH   4  19
TORSDOF 6
ENDMDL
MODEL 5
REMARK VINA RESULT:    -7.320      3.616      8.713
REMARK INTER + INTRA:         -10.538
REMARK INTER:                  -9.583
REMARK INTRA:                  -0.955
REMARK UNBOUND:                -0.651
REMARK  Name = 
REMARK  7 active torsions:
REMARK  status: ('A' for Active; 'I' for Inactive)
REMARK    1  A    between atoms: C_1  and  C_2
REMARK    2  A    between atoms: C_6  and  C_7
REMARK    3  A    between atoms: N_9  and  C_10
REMARK    4  A    between atoms: C_10  and  C_11
REMARK    5  A    between atoms: C_14  and  C_15
REMARK    6  A    between atoms: C_15  and  N_16
REMARK    7  A    between atoms: C_17  and  C_19
REMARK                            x       y       z     vdW  Elec       q    Type
REMARK                         _______ _______ _______ _____ _____    ______ ____
ROOT
ATOM      1  C   UNL     1      50.134   7.354  15.754  0.00  0.00    +0.000 A 
ATOM      2  C   UNL     1      48.778   7.097  15.510  0.00  0.00    +0.000 A 
ATOM      3  C   UNL     1      48.217   7.346  14.252  0.00  0.00    +0.000 A 
ATOM      4  C   UNL     1      49.005   7.840  13.205  0.00  0.00    +0.000 A 
ATOM      5  C   UNL     1      50.357   8.113  13.453  0.00  0.00    +0.000 A 
ATOM      6  C   UNL     1      50.919   7.862  14.710  0.00  0.00    +0.000 A 
ENDROOT
BRANCH   1   7
ATOM      7  C   UNL     1      50.734   7.083  17.109  0.00  0.00    +0.000 C 
BRANCH   7  10
ATOM      8  C   UNL     1      50.665   4.722  17.761  0.00  0.00    +0.000 C 
ATOM      9  O   UNL     1      49.546   4.836  18.251  0.00  0.00    +0.000 OA
ATOM     10  N   UNL     1      51.344   5.771  17.177  0.00  0.00    +0.000 N 
ATOM     11  H   UNL     1      52.170   5.601  16.619  0.00  0.00    +0.000 HD
BRANCH   8  17
ATOM     12  C   UNL     1      54.637   1.694  18.528  0.00  0.00    +0.000 C 
ATOM     13  C   UNL     1      53.216   1.924  18.119  0.00  0.00    +0.000 A 
ATOM     14  C   UNL     1      52.392   0.870  17.735  0.00  0.00    +0.000 A 
ATOM     15  N   UNL     1      51.096   1.016  17.380  0.00  0.00    +0.000 NA
ATOM     16  C   UNL     1      50.593   2.276  17.410  0.00  0.00    +0.000 A 
ATOM     17  C   UNL     1      51.334   3.400  17.756  0.00  0.00    +0.000 A 
ATOM     18  C   UNL     1      52.667   3.214  18.127  0.00  0.00    +0.000 A 
ENDBRANCH   8  17
ENDBRANCH   7  10
ENDBRANCH   1   7
BRANCH   4  19
ATOM     19  C   UNL     1      48.411   8.100  11.843  0.00  0.00    +0.000 C 
BRANCH  19  20
ATOM     20  N   UNL     1      47.696   6.952  11.346  0.00  0.00    +0.000 N 
ATOM     21  C   UNL     1      46.325   6.940  11.295  0.00  0.00    +0.000 C 
ATOM     22  O   UNL     1      45.654   7.915  11.628  0.00  0.00    +0.000 OA
ATOM     23  H   UNL     1      48.207   6.077  11.285  0.00  0.00    +0.000 HD
BRANCH  21  24
ATOM     24  C   UNL     1      45.693   5.723  10.767  0.00  0.00    +0.000 A 
ATOM     25  C   UNL     1      45.845   5.396   9.426  0.00  0.00    +0.000 A 
ATOM     26  S   UNL     1      45.096   3.927   8.989  0.00  0.00    +0.000 S 
ATOM     27  C   UNL     1      44.496   3.703  10.565  0.00  0.00    +0.000 A 
ATOM     28  N   UNL     1      43.730   2.621  10.874  0.00  0.00    +0.000 NA
ATOM     29  C   UNL     1      43.314   2.593  12.096  0.00  0.00    +0.000 A 
ATOM     30  N   UNL     1      43.601   3.546  13.040  0.00  0.00    +0.000 N 
ATOM     31  C   UNL     1      44.395   4.638  12.782  0.00  0.00    +0.000 A 
ATOM     32  O   UNL     1      44.667   5.450  13.660  0.00  0.00    +0.000 OA
ATOM     33  C   UNL     1      44.878   4.724  11.417  0.00  0.00    +0.000 A 
ATOM     34  H   UNL     1      43.251   3.461  13.982  0.00  0.00    +0.000 HD
ENDBRANCH  21  24
ENDBRANCH  19  20
ENDBRANCH   4  19
TORSDOF 6
ENDMDL
MODEL 6
REMARK VINA RESULT:    -7.188      2.977      3.348
REMARK INTER + INTRA:         -10.360
REMARK INTER:                  -9.441
REMARK INTRA:                  -0.919
REMARK UNBOUND:                -0.651
REMARK  Name = 
REMARK  7 active torsions:
REMARK  status: ('A' for Active; 'I' for Inactive)
REMARK    1  A    between atoms: C_1  and  C_2
REMARK    2  A    between atoms: C_6  and  C_7
REMARK    3  A    between atoms: N_9  and  C_10
REMARK    4  A    between atoms: C_10  and  C_11
REMARK    5  A    between atoms: C_14  and  C_15
REMARK    6  A    between atoms: C_15  and  N_16
REMARK    7  A    between atoms: C_17  and  C_19
REMARK                            x       y       z     vdW  Elec       q    Type
REMARK                         _______ _______ _______ _____ _____    ______ ____
ROOT
ATOM      1  C   UNL     1      45.626   6.986  12.158  0.00  0.00    +0.000 A 
ATOM      2  C   UNL     1      46.665   6.183  12.650  0.00  0.00    +0.000 A 
ATOM      3  C   UNL     1      47.633   6.714  13.511  0.00  0.00    +0.000 A 
ATOM      4  C   UNL     1      47.571   8.054  13.914  0.00  0.00    +0.000 A 
ATOM      5  C   UNL     1      46.542   8.860  13.410  0.00  0.00    +0.000 A 
ATOM      6  C   UNL     1      45.573   8.330  12.551  0.00  0.00    +0.000 A 
ENDROOT
BRANCH   1   7
ATOM      7  C   UNL     1      44.586   6.409  11.233  0.00  0.00    +0.000 C 
BRANCH   7  10
ATOM      8  C   UNL     1      44.569   4.238  10.098  0.00  0.00    +0.000 C 
ATOM      9  O   UNL     1      43.563   3.874  10.698  0.00  0.00    +0.000 OA
ATOM     10  N   UNL     1      45.160   5.470  10.293  0.00  0.00    +0.000 N 
ATOM     11  H   UNL     1      45.863   5.808   9.650  0.00  0.00    +0.000 HD
BRANCH   8  17
ATOM     12  C   UNL     1      47.030   3.377   5.769  0.00  0.00    +0.000 C 
ATOM     13  C   UNL     1      46.368   2.903   7.024  0.00  0.00    +0.000 A 
ATOM     14  C   UNL     1      46.325   1.552   7.355  0.00  0.00    +0.000 A 
ATOM     15  N   UNL     1      45.762   1.070   8.486  0.00  0.00    +0.000 NA
ATOM     16  C   UNL     1      45.216   1.978   9.332  0.00  0.00    +0.000 A 
ATOM     17  C   UNL     1      45.186   3.347   9.088  0.00  0.00    +0.000 A 
ATOM     18  C   UNL     1      45.783   3.813   7.915  0.00  0.00    +0.000 A 
ENDBRANCH   8  17
ENDBRANCH   7  10
ENDBRANCH   1   7
BRANCH   4  19
ATOM     19  C   UNL     1      48.603   8.631  14.851  0.00  0.00    +0.000 C 
BRANCH  19  20
ATOM     20  N   UNL     1      48.107   8.717  16.202  0.00  0.00    +0.000 N 
ATOM     21  C   UNL     1      48.361   9.818  16.980  0.00  0.00    +0.000 C 
ATOM     22  O   UNL     1      48.980  10.789  16.549  0.00  0.00    +0.000 OA
ATOM     23  H   UNL     1      47.800   7.854  16.639  0.00  0.00    +0.000 HD
BRANCH  21  24
ATOM     24  C   UNL     1      47.806   9.807  18.340  0.00  0.00    +0.000 A 
ATOM     25  C   UNL     1      47.157  10.935  18.827  0.00  0.00    +0.000 A 
ATOM     26  S   UNL     1      46.527  10.738  20.400  0.00  0.00    +0.000 S 
ATOM     27  C   UNL     1      47.146   9.157  20.508  0.00  0.00    +0.000 A 
ATOM     28  N   UNL     1      46.975   8.415  21.636  0.00  0.00    +0.000 NA
ATOM     29  C   UNL     1      47.525   7.247  21.594  0.00  0.00    +0.000 A 
ATOM     30  N   UNL     1      48.224   6.751  20.524  0.00  0.00    +0.000 N 
ATOM     31  C   UNL     1      48.395   7.452  19.354  0.00  0.00    +0.000 A 
ATOM     32  O   UNL     1      48.990   6.963  18.399  0.00  0.00    +0.000 OA
ATOM     33  C   UNL     1      47.808   8.778  19.353  0.00  0.00    +0.000 A 
ATOM     34  H   UNL     1      48.623   5.825  20.552  0.00  0.00    +0.000 HD
ENDBRANCH  21  24
ENDBRANCH  19  20
ENDBRANCH   4  19
TORSDOF 6
ENDMDL
MODEL 7
REMARK VINA RESULT:    -7.188      2.587      3.981
REMARK INTER + INTRA:         -10.359
REMARK INTER:                  -9.570
REMARK INTRA:                  -0.790
REMARK UNBOUND:                -0.651
REMARK  Name = 
REMARK  7 active torsions:
REMARK  status: ('A' for Active; 'I' for Inactive)
REMARK    1  A    between atoms: C_1  and  C_2
REMARK    2  A    between atoms: C_6  and  C_7
REMARK    3  A    between atoms: N_9  and  C_10
REMARK    4  A    between atoms: C_10  and  C_11
REMARK    5  A    between atoms: C_14  and  C_15
REMARK    6  A    between atoms: C_15  and  N_16
REMARK    7  A    between atoms: C_17  and  C_19
REMARK                            x       y       z     vdW  Elec       q    Type
REMARK                         _______ _______ _______ _____ _____    ______ ____
ROOT
ATOM      1  C   UNL     1      44.723   4.695  11.478  0.00  0.00    +0.000 A 
ATOM      2  C   UNL     1      45.390   3.698  12.204  0.00  0.00    +0.000 A 
ATOM      3  C   UNL     1      46.224   4.031  13.277  0.00  0.00    +0.000 A 
ATOM      4  C   UNL     1      46.395   5.368  13.660  0.00  0.00    +0.000 A 
ATOM      5  C   UNL     1      45.741   6.366  12.925  0.00  0.00    +0.000 A 
ATOM      6  C   UNL     1      44.905   6.033  11.853  0.00  0.00    +0.000 A 
ENDROOT
BRANCH   1   7
ATOM      7  C   UNL     1      43.825   4.331  10.325  0.00  0.00    +0.000 C 
BRANCH   7  10
ATOM      8  C   UNL     1      45.411   3.730   8.558  0.00  0.00    +0.000 C 
ATOM      9  O   UNL     1      45.802   4.887   8.443  0.00  0.00    +0.000 OA
ATOM     10  N   UNL     1      44.433   3.349   9.454  0.00  0.00    +0.000 N 
ATOM     11  H   UNL     1      44.276   2.370   9.656  0.00  0.00    +0.000 HD
BRANCH   8  17
ATOM     12  C   UNL     1      47.536   1.998   4.313  0.00  0.00    +0.000 C 
ATOM     13  C   UNL     1      47.044   1.806   5.712  0.00  0.00    +0.000 A 
ATOM     14  C   UNL     1      47.168   0.581   6.362  0.00  0.00    +0.000 A 
ATOM     15  N   UNL     1      46.764   0.357   7.633  0.00  0.00    +0.000 NA
ATOM     16  C   UNL     1      46.210   1.405   8.291  0.00  0.00    +0.000 A 
ATOM     17  C   UNL     1      46.019   2.663   7.730  0.00  0.00    +0.000 A 
ATOM     18  C   UNL     1      46.455   2.864   6.418  0.00  0.00    +0.000 A 
ENDBRANCH   8  17
ENDBRANCH   7  10
ENDBRANCH   1   7
BRANCH   4  19
ATOM     19  C   UNL     1      47.283   5.735  14.822  0.00  0.00    +0.000 C 
BRANCH  19  20
ATOM     20  N   UNL     1      47.821   7.065  14.682  0.00  0.00    +0.000 N 
ATOM     21  C   UNL     1      48.834   7.328  13.795  0.00  0.00    +0.000 C 
ATOM     22  O   UNL     1      49.294   6.458  13.057  0.00  0.00    +0.000 OA
ATOM     23  H   UNL     1      47.620   7.728  15.424  0.00  0.00    +0.000 HD
BRANCH  21  24
ATOM     24  C   UNL     1      49.307   8.717  13.726  0.00  0.00    +0.000 A 
ATOM     25  C   UNL     1      49.282   9.393  12.513  0.00  0.00    +0.000 A 
ATOM     26  S   UNL     1      49.814  11.010  12.617  0.00  0.00    +0.000 S 
ATOM     27  C   UNL     1      50.149  10.849  14.277  0.00  0.00    +0.000 A 
ATOM     28  N   UNL     1      50.666  11.887  14.990  0.00  0.00    +0.000 NA
ATOM     29  C   UNL     1      50.903  11.616  16.230  0.00  0.00    +0.000 A 
ATOM     30  N   UNL     1      50.664  10.404  16.824  0.00  0.00    +0.000 N 
ATOM     31  C   UNL     1      50.115   9.338  16.152  0.00  0.00    +0.000 A 
ATOM     32  O   UNL     1      49.875   8.279  16.723  0.00  0.00    +0.000 OA
ATOM     33  C   UNL     1      49.842   9.585  14.749  0.00  0.00    +0.000 A 
ATOM     34  H   UNL     1      50.865  10.259  17.802  0.00  0.00    +0.000 HD
ENDBRANCH  21  24
ENDBRANCH  19  20
ENDBRANCH   4  19
TORSDOF 6
ENDMDL
MODEL 8
REMARK VINA RESULT:    -7.081      3.016      4.603
REMARK INTER + INTRA:         -10.215
REMARK INTER:                  -9.209
REMARK INTRA:                  -1.006
REMARK UNBOUND:                -0.651
REMARK  Name = 
REMARK  7 active torsions:
REMARK  status: ('A' for Active; 'I' for Inactive)
REMARK    1  A    between atoms: C_1  and  C_2
REMARK    2  A    between atoms: C_6  and  C_7
REMARK    3  A    between atoms: N_9  and  C_10
REMARK    4  A    between atoms: C_10  and  C_11
REMARK    5  A    between atoms: C_14  and  C_15
REMARK    6  A    between atoms: C_15  and  N_16
REMARK    7  A    between atoms: C_17  and  C_19
REMARK                            x       y       z     vdW  Elec       q    Type
REMARK                         _______ _______ _______ _____ _____    ______ ____
ROOT
ATOM      1  C   UNL     1      48.174   7.931  13.413  0.00  0.00    +0.000 A 
ATOM      2  C   UNL     1      48.994   6.888  13.863  0.00  0.00    +0.000 A 
ATOM      3  C   UNL     1      49.570   6.930  15.138  0.00  0.00    +0.000 A 
ATOM      4  C   UNL     1      49.322   8.008  15.998  0.00  0.00    +0.000 A 
ATOM      5  C   UNL     1      48.515   9.059  15.541  0.00  0.00    +0.000 A 
ATOM      6  C   UNL     1      47.938   9.016  14.267  0.00  0.00    +0.000 A 
ENDROOT
BRANCH   1   7
ATOM      7  C   UNL     1      47.555   7.880  12.040  0.00  0.00    +0.000 C 
BRANCH   7  10
ATOM      8  C   UNL     1      45.572   6.463  12.290  0.00  0.00    +0.000 C 
ATOM      9  O   UNL     1      44.975   7.322  12.930  0.00  0.00    +0.000 OA
ATOM     10  N   UNL     1      46.854   6.635  11.809  0.00  0.00    +0.000 N 
ATOM     11  H   UNL     1      47.237   5.991  11.129  0.00  0.00    +0.000 HD
BRANCH   8  17
ATOM     12  C   UNL     1      44.467   2.601   9.224  0.00  0.00    +0.000 C 
ATOM     13  C   UNL     1      44.359   3.315  10.534  0.00  0.00    +0.000 A 
ATOM     14  C   UNL     1      43.630   2.780  11.593  0.00  0.00    +0.000 A 
ATOM     15  N   UNL     1      43.518   3.368  12.805  0.00  0.00    +0.000 NA
ATOM     16  C   UNL     1      44.166   4.548  12.973  0.00  0.00    +0.000 A 
ATOM     17  C   UNL     1      44.902   5.180  11.977  0.00  0.00    +0.000 A 
ATOM     18  C   UNL     1      45.004   4.542  10.739  0.00  0.00    +0.000 A 
ENDBRANCH   8  17
ENDBRANCH   7  10
ENDBRANCH   1   7
BRANCH   4  19
ATOM     19  C   UNL     1      49.929   8.056  17.377  0.00  0.00    +0.000 C 
BRANCH  19  20
ATOM     20  N   UNL     1      50.830   6.953  17.602  0.00  0.00    +0.000 N 
ATOM     21  C   UNL     1      50.510   5.945  18.476  0.00  0.00    +0.000 C 
ATOM     22  O   UNL     1      49.433   5.916  19.069  0.00  0.00    +0.000 OA
ATOM     23  H   UNL     1      51.794   7.072  17.307  0.00  0.00    +0.000 HD
BRANCH  21  24
ATOM     24  C   UNL     1      51.494   4.865  18.629  0.00  0.00    +0.000 A 
ATOM     25  C   UNL     1      52.667   5.098  19.336  0.00  0.00    +0.000 A 
ATOM     26  S   UNL     1      53.674   3.728  19.465  0.00  0.00    +0.000 S 
ATOM     27  C   UNL     1      52.605   2.788  18.535  0.00  0.00    +0.000 A 
ATOM     28  N   UNL     1      52.890   1.490  18.242  0.00  0.00    +0.000 NA
ATOM     29  C   UNL     1      52.008   0.905  17.501  0.00  0.00    +0.000 A 
ATOM     30  N   UNL     1      50.865   1.498  17.032  0.00  0.00    +0.000 N 
ATOM     31  C   UNL     1      50.521   2.796  17.327  0.00  0.00    +0.000 A 
ATOM     32  O   UNL     1      49.470   3.284  16.926  0.00  0.00    +0.000 OA
ATOM     33  C   UNL     1      51.486   3.504  18.147  0.00  0.00    +0.000 A 
ATOM     34  H   UNL     1      50.212   0.983  16.462  0.00  0.00    +0.000 HD
ENDBRANCH  21  24
ENDBRANCH  19  20
ENDBRANCH   4  19
TORSDOF 6
ENDMDL
MODEL 9
REMARK VINA RESULT:    -6.949      2.444      3.499
REMARK INTER + INTRA:         -10.037
REMARK INTER:                  -9.042
REMARK INTRA:                  -0.995
REMARK UNBOUND:                -0.651
REMARK  Name = 
REMARK  7 active torsions:
REMARK  status: ('A' for Active; 'I' for Inactive)
REMARK    1  A    between atoms: C_1  and  C_2
REMARK    2  A    between atoms: C_6  and  C_7
REMARK    3  A    between atoms: N_9  and  C_10
REMARK    4  A    between atoms: C_10  and  C_11
REMARK    5  A    between atoms: C_14  and  C_15
REMARK    6  A    between atoms: C_15  and  N_16
REMARK    7  A    between atoms: C_17  and  C_19
REMARK                            x       y       z     vdW  Elec       q    Type
REMARK                         _______ _______ _______ _____ _____    ______ ____
ROOT
ATOM      1  C   UNL     1      46.324   7.922  12.369  0.00  0.00    +0.000 A 
ATOM      2  C   UNL     1      47.428   7.086  12.150  0.00  0.00    +0.000 A 
ATOM      3  C   UNL     1      48.568   7.178  12.957  0.00  0.00    +0.000 A 
ATOM      4  C   UNL     1      48.621   8.097  14.013  0.00  0.00    +0.000 A 
ATOM      5  C   UNL     1      47.524   8.944  14.222  0.00  0.00    +0.000 A 
ATOM      6  C   UNL     1      46.383   8.850  13.417  0.00  0.00    +0.000 A 
ENDROOT
BRANCH   1   7
ATOM      7  C   UNL     1      45.099   7.816  11.499  0.00  0.00    +0.000 C 
BRANCH   7  10
ATOM      8  C   UNL     1      44.727   5.440  11.031  0.00  0.00    +0.000 C 
ATOM      9  O   UNL     1      44.281   5.235  12.155  0.00  0.00    +0.000 OA
ATOM     10  N   UNL     1      45.166   6.678  10.607  0.00  0.00    +0.000 N 
ATOM     11  H   UNL     1      45.343   6.851   9.626  0.00  0.00    +0.000 HD
BRANCH   8  17
ATOM     12  C   UNL     1      46.287   3.349   6.703  0.00  0.00    +0.000 C 
ATOM     13  C   UNL     1      45.520   3.302   7.987  0.00  0.00    +0.000 A 
ATOM     14  C   UNL     1      44.822   2.161   8.373  0.00  0.00    +0.000 A 
ATOM     15  N   UNL     1      44.133   2.054   9.531  0.00  0.00    +0.000 NA
ATOM     16  C   UNL     1      44.140   3.137  10.348  0.00  0.00    +0.000 A 
ATOM     17  C   UNL     1      44.785   4.332  10.049  0.00  0.00    +0.000 A 
ATOM     18  C   UNL     1      45.495   4.407   8.849  0.00  0.00    +0.000 A 
ENDBRANCH   8  17
ENDBRANCH   7  10
ENDBRANCH   1   7
BRANCH   4  19
ATOM     19  C   UNL     1      49.840   8.196  14.895  0.00  0.00    +0.000 C 
BRANCH  19  20
ATOM     20  N   UNL     1      50.210   6.913  15.439  0.00  0.00    +0.000 N 
ATOM     21  C   UNL     1      49.671   6.463  16.618  0.00  0.00    +0.000 C 
ATOM     22  O   UNL     1      48.825   7.109  17.234  0.00  0.00    +0.000 OA
ATOM     23  H   UNL     1      51.053   6.481  15.076  0.00  0.00    +0.000 HD
BRANCH  21  24
ATOM     24  C   UNL     1      50.110   5.141  17.083  0.00  0.00    +0.000 A 
ATOM     25  C   UNL     1      49.171   4.139  17.295  0.00  0.00    +0.000 A 
ATOM     26  S   UNL     1      49.853   2.652  17.781  0.00  0.00    +0.000 S 
ATOM     27  C   UNL     1      51.421   3.309  17.777  0.00  0.00    +0.000 A 
ATOM     28  N   UNL     1      52.496   2.553  18.130  0.00  0.00    +0.000 NA
ATOM     29  C   UNL     1      53.622   3.186  18.116  0.00  0.00    +0.000 A 
ATOM     30  N   UNL     1      53.771   4.505  17.773  0.00  0.00    +0.000 N 
ATOM     31  C   UNL     1      52.720   5.298  17.380  0.00  0.00    +0.000 A 
ATOM     32  O   UNL     1      52.892   6.464  17.039  0.00  0.00    +0.000 OA
ATOM     33  C   UNL     1      51.428   4.638  17.392  0.00  0.00    +0.000 A 
ATOM     34  H   UNL     1      54.681   4.939  17.774  0.00  0.00    +0.000 HD
ENDBRANCH  21  24
ENDBRANCH  19  20
ENDBRANCH   4  19
TORSDOF 6
ENDMDL
