MODEL 1
REMARK VINA RESULT:    -7.921      0.000      0.000
REMARK INTER + INTRA:         -13.453
REMARK INTER:                 -11.856
REMARK INTRA:                  -1.597
REMARK UNBOUND:                -1.597
REMARK  Name = 
REMARK  11 active torsions:
REMARK  status: ('A' for Active; 'I' for Inactive)
REMARK    1  A    between atoms: C_1  and  C_2
REMARK    2  A    between atoms: C_2  and  C_3
REMARK    3  A    between atoms: C_2  and  N_10
REMARK    4  A    between atoms: C_3  and  C_4
REMARK    5  A    between atoms: N_10  and  C_11
REMARK    6  A    between atoms: N_10  and  C_12
REMARK    7  A    between atoms: C_12  and  C_13
REMARK    8  A    between atoms: C_16  and  C_17
REMARK    9  A    between atoms: C_17  and  N_18
REMARK   10  A    between atoms: C_19  and  C_21
REMARK   11  A    between atoms: C_28  and  O_29
REMARK                            x       y       z     vdW  Elec       q    Type
REMARK                         _______ _______ _______ _____ _____    ______ ____
ROOT
ATOM      1  C   UNL     1      45.087   6.993  11.588  0.00  0.00    +0.000 A 
ATOM      2  C   UNL     1      45.118   8.106  12.433  0.00  0.00    +0.000 A 
ATOM      3  C   UNL     1      46.295   8.631  12.947  0.00  0.00    +0.000 A 
ATOM      4  C   UNL     1      47.507   8.019  12.651  0.00  0.00    +0.000 A 
ATOM      5  C   UNL     1      47.510   6.885  11.827  0.00  0.00    +0.000 A 
ATOM      6  C   UNL     1      46.311   6.381  11.294  0.00  0.00    +0.000 A 
ENDROOT
BRANCH   1   7
ATOM      7  C   UNL     1      43.775   6.414  11.084  0.00  0.00    +0.000 C 
BRANCH   7   8
ATOM      8  N   UNL     1      43.408   5.042  11.506  0.00  0.00    +0.000 NA
ATOM      9  C   UNL     1      42.875   5.079  12.872  0.00  0.00    +0.000 C 
BRANCH   8  11
ATOM     10  C   UNL     1      44.618   3.113  12.545  0.00  0.00    +0.000 C 
ATOM     11  C   UNL     1      44.425   3.971  11.278  0.00  0.00    +0.000 C 
BRANCH  11  12
ATOM     12  C   UNL     1      44.068   3.034  10.071  0.00  0.00    +0.000 C 
BRANCH  12  13
ATOM     13  C   UNL     1      45.127   2.895   8.986  0.00  0.00    +0.000 A 
ATOM     14  C   UNL     1      45.585   4.030   8.306  0.00  0.00    +0.000 A 
ATOM     15  C   UNL     1      46.573   3.920   7.324  0.00  0.00    +0.000 A 
ATOM     16  C   UNL     1      47.118   2.678   7.009  0.00  0.00    +0.000 A 
ATOM     17  C   UNL     1      46.681   1.541   7.678  0.00  0.00    +0.000 A 
ATOM     18  C   UNL     1      45.698   1.652   8.665  0.00  0.00    +0.000 A 
ENDBRANCH  12  13
ENDBRANCH  11  12
ENDBRANCH   8  11
ENDBRANCH   7   8
ENDBRANCH   1   7
BRANCH   4  19
ATOM     19  C   UNL     1      48.757   8.519  13.310  0.00  0.00    +0.000 C 
BRANCH  19  20
ATOM     20  N   UNL     1      49.133   7.630  14.376  0.00  0.00    +0.000 N 
ATOM     21  C   UNL     1      48.844   7.906  15.681  0.00  0.00    +0.000 C 
ATOM     22  O   UNL     1      48.227   8.916  16.008  0.00  0.00    +0.000 OA
ATOM     23  H   UNL     1      49.768   6.866  14.167  0.00  0.00    +0.000 HD
BRANCH  21  24
ATOM     24  C   UNL     1      49.245   6.892  16.660  0.00  0.00    +0.000 A 
ATOM     25  C   UNL     1      50.260   7.195  17.557  0.00  0.00    +0.000 A 
ATOM     26  S   UNL     1      50.563   5.957  18.684  0.00  0.00    +0.000 S 
ATOM     27  C   UNL     1      49.387   4.957  17.974  0.00  0.00    +0.000 A 
ATOM     28  N   UNL     1      49.167   3.727  18.486  0.00  0.00    +0.000 NA
ATOM     29  C   UNL     1      48.233   3.010  17.840  0.00  0.00    +0.000 A 
ATOM     30  C   UNL     1      47.526   3.437  16.735  0.00  0.00    +0.000 A 
ATOM     31  C   UNL     1      47.781   4.716  16.251  0.00  0.00    +0.000 A 
ATOM     32  C   UNL     1      48.743   5.544  16.885  0.00  0.00    +0.000 A 
BRANCH  31  33
ATOM     33  O   UNL     1      47.088   5.163  15.151  0.00  0.00    +0.000 OA
ATOM     34  H   UNL     1      47.009   6.132  15.191  0.00  0.00    +0.000 HD
ENDBRANCH  31  33
ENDBRANCH  21  24
ENDBRANCH  19  20
ENDBRANCH   4  19
TORSDOF 9
ENDMDL
MODEL 2
REMARK VINA RESULT:    -7.663      3.253      9.784
REMARK INTER + INTRA:         -13.067
REMARK INTER:                  -9.932
REMARK INTRA:                  -3.135
REMARK UNBOUND:                -1.597
REMARK  Name = 
REMARK  11 active torsions:
REMARK  status: ('A' for Active; 'I' for Inactive)
REMARK    1  A    between atoms: C_1  and  C_2
REMARK    2  A    between atoms: C_2  and  C_3
REMARK    3  A    between atoms: C_2  and  N_10
REMARK    4  A    between atoms: C_3  and  C_4
REMARK    5  A    between atoms: N_10  and  C_11
REMARK    6  A    between atoms: N_10  and  C_12
REMARK    7  A    between atoms: C_12  and  C_13
REMARK    8  A    between atoms: C_16  and  C_17
REMARK    9  A    between atoms: C_17  and  N_18
REMARK   10  A    between atoms: C_19  and  C_21
REMARK   11  A    between atoms: C_28  and  O_29
REMARK                            x       y       z     vdW  Elec       q    Type
REMARK                         _______ _______ _______ _____ _____    ______ ____
ROOT
ATOM      1  C   UNL     1      51.556   4.082  17.714  0.00  0.00    +0.000 A 
ATOM      2  C   UNL     1      50.734   2.954  17.789  0.00  0.00    +0.000 A 
ATOM      3  C   UNL     1      49.374   2.992  17.520  0.00  0.00    +0.000 A 
ATOM      4  C   UNL     1      48.772   4.201  17.191  0.00  0.00    +0.000 A 
ATOM      5  C   UNL     1      49.563   5.357  17.132  0.00  0.00    +0.000 A 
ATOM      6  C   UNL     1      50.944   5.297  17.384  0.00  0.00    +0.000 A 
ENDROOT
BRANCH   1   7
ATOM      7  C   UNL     1      53.034   4.014  18.067  0.00  0.00    +0.000 C 
BRANCH   7   8
ATOM      8  N   UNL     1      53.494   4.711  19.290  0.00  0.00    +0.000 NA
ATOM      9  C   UNL     1      54.954   4.604  19.391  0.00  0.00    +0.000 C 
BRANCH   8  11
ATOM     10  C   UNL     1      53.725   3.773  21.599  0.00  0.00    +0.000 C 
ATOM     11  C   UNL     1      52.771   4.396  20.559  0.00  0.00    +0.000 C 
BRANCH  11  12
ATOM     12  C   UNL     1      52.068   5.648  21.191  0.00  0.00    +0.000 C 
BRANCH  12  13
ATOM     13  C   UNL     1      50.582   5.810  20.897  0.00  0.00    +0.000 A 
ATOM     14  C   UNL     1      49.720   4.714  21.025  0.00  0.00    +0.000 A 
ATOM     15  C   UNL     1      48.352   4.853  20.780  0.00  0.00    +0.000 A 
ATOM     16  C   UNL     1      47.825   6.087  20.408  0.00  0.00    +0.000 A 
ATOM     17  C   UNL     1      48.663   7.188  20.284  0.00  0.00    +0.000 A 
ATOM     18  C   UNL     1      50.031   7.050  20.534  0.00  0.00    +0.000 A 
ENDBRANCH  12  13
ENDBRANCH  11  12
ENDBRANCH   8  11
ENDBRANCH   7   8
ENDBRANCH   1   7
BRANCH   4  19
ATOM     19  C   UNL     1      47.283   4.253  17.023  0.00  0.00    +0.000 C 
BRANCH  19  20
ATOM     20  N   UNL     1      46.958   4.905  15.783  0.00  0.00    +0.000 N 
ATOM     21  C   UNL     1      47.021   4.252  14.587  0.00  0.00    +0.000 C 
ATOM     22  O   UNL     1      47.334   3.067  14.511  0.00  0.00    +0.000 OA
ATOM     23  H   UNL     1      46.840   5.914  15.784  0.00  0.00    +0.000 HD
BRANCH  21  24
ATOM     24  C   UNL     1      46.619   5.024  13.407  0.00  0.00    +0.000 A 
ATOM     25  C   UNL     1      47.064   6.332  13.282  0.00  0.00    +0.000 A 
ATOM     26  S   UNL     1      46.588   7.077  11.829  0.00  0.00    +0.000 S 
ATOM     27  C   UNL     1      45.726   5.694  11.347  0.00  0.00    +0.000 A 
ATOM     28  N   UNL     1      45.071   5.701  10.167  0.00  0.00    +0.000 NA
ATOM     29  C   UNL     1      44.404   4.568   9.890  0.00  0.00    +0.000 A 
ATOM     30  C   UNL     1      44.350   3.456  10.705  0.00  0.00    +0.000 A 
ATOM     31  C   UNL     1      45.051   3.495  11.907  0.00  0.00    +0.000 A 
ATOM     32  C   UNL     1      45.793   4.649  12.269  0.00  0.00    +0.000 A 
BRANCH  31  33
ATOM     33  O   UNL     1      45.012   2.399  12.736  0.00  0.00    +0.000 OA
ATOM     34  H   UNL     1      45.919   2.090  12.905  0.00  0.00    +0.000 HD
ENDBRANCH  31  33
ENDBRANCH  21  24
ENDBRANCH  19  20
ENDBRANCH   4  19
TORSDOF 9
ENDMDL
MODEL 3
REMARK VINA RESULT:    -7.293      1.401      1.819
REMARK INTER + INTRA:         -12.514
REMARK INTER:                 -11.431
REMARK INTRA:                  -1.083
REMARK UNBOUND:                -1.597
REMARK  Name = 
REMARK  11 active torsions:
REMARK  status: ('A' for Active; 'I' for Inactive)
REMARK    1  A    between atoms: C_1  and  C_2
REMARK    2  A    between atoms: C_2  and  C_3
REMARK    3  A    between atoms: C_2  and  N_10
REMARK    4  A    between atoms: C_3  and  C_4
REMARK    5  A    between atoms: N_10  and  C_11
REMARK    6  A    between atoms: N_10  and  C_12
REMARK    7  A    between atoms: C_12  and  C_13
REMARK    8  A    between atoms: C_16  and  C_17
REMARK    9  A    between atoms: C_17  and  N_18
REMARK   10  A    between atoms: C_19  and  C_21
REMARK   11  A    between atoms: C_28  and  O_29
REMARK                            x       y       z     vdW  Elec       q    Type
REMARK                         _______ _______ _______ _____ _____    ______ ____
ROOT
ATOM      1  C   UNL     1      45.315   7.139  11.784  0.00  0.00    +0.000 A 
ATOM      2  C   UNL     1      45.351   8.154  12.744  0.00  0.00    +0.000 A 
ATOM      3  C   UNL     1      46.532   8.643  13.281  0.00  0.00    +0.000 A 
ATOM      4  C   UNL     1      47.746   8.093  12.888  0.00  0.00    +0.000 A 
ATOM      5  C   UNL     1      47.745   7.056  11.944  0.00  0.00    +0.000 A 
ATOM      6  C   UNL     1      46.541   6.588  11.391  0.00  0.00    +0.000 A 
ENDROOT
BRANCH   1   7
ATOM      7  C   UNL     1      43.999   6.591  11.254  0.00  0.00    +0.000 C 
BRANCH   7   8
ATOM      8  N   UNL     1      43.658   5.181  11.552  0.00  0.00    +0.000 NA
ATOM      9  C   UNL     1      43.201   5.074  12.942  0.00  0.00    +0.000 C 
BRANCH   8  11
ATOM     10  C   UNL     1      45.029   3.249  12.361  0.00  0.00    +0.000 C 
ATOM     11  C   UNL     1      44.663   4.146  11.161  0.00  0.00    +0.000 C 
BRANCH  11  12
ATOM     12  C   UNL     1      44.181   3.244   9.971  0.00  0.00    +0.000 C 
BRANCH  12  13
ATOM     13  C   UNL     1      45.209   2.948   8.887  0.00  0.00    +0.000 A 
ATOM     14  C   UNL     1      45.654   1.637   8.684  0.00  0.00    +0.000 A 
ATOM     15  C   UNL     1      46.580   1.347   7.678  0.00  0.00    +0.000 A 
ATOM     16  C   UNL     1      47.070   2.361   6.860  0.00  0.00    +0.000 A 
ATOM     17  C   UNL     1      46.634   3.668   7.040  0.00  0.00    +0.000 A 
ATOM     18  C   UNL     1      45.704   3.956   8.042  0.00  0.00    +0.000 A 
ENDBRANCH  12  13
ENDBRANCH  11  12
ENDBRANCH   8  11
ENDBRANCH   7   8
ENDBRANCH   1   7
BRANCH   4  19
ATOM     19  C   UNL     1      49.006   8.543  13.564  0.00  0.00    +0.000 C 
BRANCH  19  20
ATOM     20  N   UNL     1      48.847   8.460  14.991  0.00  0.00    +0.000 N 
ATOM     21  C   UNL     1      48.948   7.275  15.660  0.00  0.00    +0.000 C 
ATOM     22  O   UNL     1      49.205   6.223  15.080  0.00  0.00    +0.000 OA
ATOM     23  H   UNL     1      48.489   9.272  15.485  0.00  0.00    +0.000 HD
BRANCH  21  24
ATOM     24  C   UNL     1      48.809   7.342  17.117  0.00  0.00    +0.000 A 
ATOM     25  C   UNL     1      48.574   8.575  17.709  0.00  0.00    +0.000 A 
ATOM     26  S   UNL     1      48.354   8.490  19.394  0.00  0.00    +0.000 S 
ATOM     27  C   UNL     1      48.622   6.812  19.392  0.00  0.00    +0.000 A 
ATOM     28  N   UNL     1      48.577   6.133  20.558  0.00  0.00    +0.000 NA
ATOM     29  C   UNL     1      48.823   4.817  20.451  0.00  0.00    +0.000 A 
ATOM     30  C   UNL     1      49.109   4.155  19.274  0.00  0.00    +0.000 A 
ATOM     31  C   UNL     1      49.133   4.897  18.098  0.00  0.00    +0.000 A 
ATOM     32  C   UNL     1      48.871   6.291  18.122  0.00  0.00    +0.000 A 
BRANCH  31  33
ATOM     33  O   UNL     1      49.416   4.258  16.914  0.00  0.00    +0.000 OA
ATOM     34  H   UNL     1      49.713   3.350  17.100  0.00  0.00    +0.000 HD
ENDBRANCH  31  33
ENDBRANCH  21  24
ENDBRANCH  19  20
ENDBRANCH   4  19
TORSDOF 9
ENDMDL
MODEL 4
REMARK VINA RESULT:    -7.247      2.958      4.028
REMARK INTER + INTRA:         -12.445
REMARK INTER:                 -11.442
REMARK INTRA:                  -1.003
REMARK UNBOUND:                -1.597
REMARK  Name = 
REMARK  11 active torsions:
REMARK  status: ('A' for Active; 'I' for Inactive)
REMARK    1  A    between atoms: C_1  and  C_2
REMARK    2  A    between atoms: C_2  and  C_3
REMARK    3  A    between atoms: C_2  and  N_10
REMARK    4  A    between atoms: C_3  and  C_4
REMARK    5  A    between atoms: N_10  and  C_11
REMARK    6  A    between atoms: N_10  and  C_12
REMARK    7  A    between atoms: C_12  and  C_13
REMARK    8  A    between atoms: C_16  and  C_17
REMARK    9  A    between atoms: C_17  and  N_18
REMARK   10  A    between atoms: C_19  and  C_21
REMARK   11  A    between atoms: C_28  and  O_29
REMARK                            x       y       z     vdW  Elec       q    Type
REMARK                         _______ _______ _______ _____ _____    ______ ____
ROOT
ATOM      1  C   UNL     1      46.899   5.441  12.895  0.00  0.00    +0.000 A 
ATOM      2  C   UNL     1      47.431   6.247  13.904  0.00  0.00    +0.000 A 
ATOM      3  C   UNL     1      47.684   5.783  15.187  0.00  0.00    +0.000 A 
ATOM      4  C   UNL     1      47.370   4.470  15.517  0.00  0.00    +0.000 A 
ATOM      5  C   UNL     1      46.812   3.640  14.535  0.00  0.00    +0.000 A 
ATOM      6  C   UNL     1      46.584   4.119  13.233  0.00  0.00    +0.000 A 
ENDROOT
BRANCH   1   7
ATOM      7  C   UNL     1      46.587   5.997  11.514  0.00  0.00    +0.000 C 
BRANCH   7   8
ATOM      8  N   UNL     1      45.207   5.846  10.995  0.00  0.00    +0.000 NA
ATOM      9  C   UNL     1      44.271   6.522  11.899  0.00  0.00    +0.000 C 
BRANCH   8  11
ATOM     10  C   UNL     1      43.471   4.070  11.301  0.00  0.00    +0.000 C 
ATOM     11  C   UNL     1      44.783   4.470  10.596  0.00  0.00    +0.000 C 
BRANCH  11  12
ATOM     12  C   UNL     1      44.605   4.309   9.045  0.00  0.00    +0.000 C 
BRANCH  12  13
ATOM     13  C   UNL     1      45.541   3.326   8.355  0.00  0.00    +0.000 A 
ATOM     14  C   UNL     1      46.460   3.785   7.404  0.00  0.00    +0.000 A 
ATOM     15  C   UNL     1      47.340   2.897   6.779  0.00  0.00    +0.000 A 
ATOM     16  C   UNL     1      47.317   1.542   7.097  0.00  0.00    +0.000 A 
ATOM     17  C   UNL     1      46.417   1.069   8.044  0.00  0.00    +0.000 A 
ATOM     18  C   UNL     1      45.541   1.957   8.673  0.00  0.00    +0.000 A 
ENDBRANCH  12  13
ENDBRANCH  11  12
ENDBRANCH   8  11
ENDBRANCH   7   8
ENDBRANCH   1   7
BRANCH   4  19
ATOM     19  C   UNL     1      47.532   4.015  16.936  0.00  0.00    +0.000 C 
BRANCH  19  20
ATOM     20  N   UNL     1      48.894   4.211  17.356  0.00  0.00    +0.000 N 
ATOM     21  C   UNL     1      49.855   3.263  17.152  0.00  0.00    +0.000 C 
ATOM     22  O   UNL     1      49.611   2.206  16.576  0.00  0.00    +0.000 OA
ATOM     23  H   UNL     1      49.104   4.998  17.962  0.00  0.00    +0.000 HD
BRANCH  21  24
ATOM     24  C   UNL     1      51.210   3.612  17.589  0.00  0.00    +0.000 A 
ATOM     25  C   UNL     1      51.529   4.950  17.769  0.00  0.00    +0.000 A 
ATOM     26  S   UNL     1      53.106   5.201  18.354  0.00  0.00    +0.000 S 
ATOM     27  C   UNL     1      53.430   3.534  18.332  0.00  0.00    +0.000 A 
ATOM     28  N   UNL     1      54.645   3.090  18.722  0.00  0.00    +0.000 NA
ATOM     29  C   UNL     1      54.805   1.759  18.648  0.00  0.00    +0.000 A 
ATOM     30  C   UNL     1      53.848   0.865  18.213  0.00  0.00    +0.000 A 
ATOM     31  C   UNL     1      52.609   1.370  17.832  0.00  0.00    +0.000 A 
ATOM     32  C   UNL     1      52.352   2.764  17.894  0.00  0.00    +0.000 A 
BRANCH  31  33
ATOM     33  O   UNL     1      51.640   0.498  17.395  0.00  0.00    +0.000 OA
ATOM     34  H   UNL     1      51.386  -0.094  18.125  0.00  0.00    +0.000 HD
ENDBRANCH  31  33
ENDBRANCH  21  24
ENDBRANCH  19  20
ENDBRANCH   4  19
TORSDOF 9
ENDMDL
MODEL 5
REMARK VINA RESULT:    -7.191      2.823      7.921
REMARK INTER + INTRA:         -12.361
REMARK INTER:                 -10.452
REMARK INTRA:                  -1.909
REMARK UNBOUND:                -1.597
REMARK  Name = 
REMARK  11 active torsions:
REMARK  status: ('A' for Active; 'I' for Inactive)
REMARK    1  A    between atoms: C_1  and  C_2
REMARK    2  A    between atoms: C_2  and  C_3
REMARK    3  A    between atoms: C_2  and  N_10
REMARK    4  A    between atoms: C_3  and  C_4
REMARK    5  A    between atoms: N_10  and  C_11
REMARK    6  A    between atoms: N_10  and  C_12
REMARK    7  A    between atoms: C_12  and  C_13
REMARK    8  A    between atoms: C_16  and  C_17
REMARK    9  A    between atoms: C_17  and  N_18
REMARK   10  A    between atoms: C_19  and  C_21
REMARK   11  A    between atoms: C_28  and  O_29
REMARK                            x       y       z     vdW  Elec       q    Type
REMARK                         _______ _______ _______ _____ _____    ______ ____
ROOT
ATOM      1  C   UNL     1      49.307   8.134  15.968  0.00  0.00    +0.000 A 
ATOM      2  C   UNL     1      49.772   7.222  15.017  0.00  0.00    +0.000 A 
ATOM      3  C   UNL     1      49.315   7.198  13.708  0.00  0.00    +0.000 A 
ATOM      4  C   UNL     1      48.326   8.089  13.308  0.00  0.00    +0.000 A 
ATOM      5  C   UNL     1      47.819   9.002  14.244  0.00  0.00    +0.000 A 
ATOM      6  C   UNL     1      48.310   9.030  15.561  0.00  0.00    +0.000 A 
ENDROOT
BRANCH   1   7
ATOM      7  C   UNL     1      49.793   8.099  17.409  0.00  0.00    +0.000 C 
BRANCH   7   8
ATOM      8  N   UNL     1      48.789   7.904  18.481  0.00  0.00    +0.000 NA
ATOM      9  C   UNL     1      49.008   8.897  19.539  0.00  0.00    +0.000 C 
BRANCH   8  11
ATOM     10  C   UNL     1      47.678   6.487  20.220  0.00  0.00    +0.000 C 
ATOM     11  C   UNL     1      48.600   6.510  18.984  0.00  0.00    +0.000 C 
BRANCH  11  12
ATOM     12  C   UNL     1      48.025   5.539  17.894  0.00  0.00    +0.000 C 
BRANCH  12  13
ATOM     13  C   UNL     1      48.873   4.319  17.559  0.00  0.00    +0.000 A 
ATOM     14  C   UNL     1      50.231   4.297  17.896  0.00  0.00    +0.000 A 
ATOM     15  C   UNL     1      51.016   3.175  17.615  0.00  0.00    +0.000 A 
ATOM     16  C   UNL     1      50.456   2.061  16.997  0.00  0.00    +0.000 A 
ATOM     17  C   UNL     1      49.107   2.061  16.662  0.00  0.00    +0.000 A 
ATOM     18  C   UNL     1      48.321   3.180  16.948  0.00  0.00    +0.000 A 
ENDBRANCH  12  13
ENDBRANCH  11  12
ENDBRANCH   8  11
ENDBRANCH   7   8
ENDBRANCH   1   7
BRANCH   4  19
ATOM     19  C   UNL     1      47.753   7.973  11.928  0.00  0.00    +0.000 C 
BRANCH  19  20
ATOM     20  N   UNL     1      47.032   6.735  11.804  0.00  0.00    +0.000 N 
ATOM     21  C   UNL     1      45.674   6.676  11.931  0.00  0.00    +0.000 C 
ATOM     22  O   UNL     1      44.997   7.681  12.131  0.00  0.00    +0.000 OA
ATOM     23  H   UNL     1      47.560   5.868  11.788  0.00  0.00    +0.000 HD
BRANCH  21  24
ATOM     24  C   UNL     1      45.064   5.357  11.737  0.00  0.00    +0.000 A 
ATOM     25  C   UNL     1      44.440   4.745  12.815  0.00  0.00    +0.000 A 
ATOM     26  S   UNL     1      43.709   3.260  12.425  0.00  0.00    +0.000 S 
ATOM     27  C   UNL     1      44.251   3.361  10.818  0.00  0.00    +0.000 A 
ATOM     28  N   UNL     1      43.953   2.366   9.955  0.00  0.00    +0.000 NA
ATOM     29  C   UNL     1      44.445   2.533   8.716  0.00  0.00    +0.000 A 
ATOM     30  C   UNL     1      45.205   3.606   8.299  0.00  0.00    +0.000 A 
ATOM     31  C   UNL     1      45.477   4.610   9.223  0.00  0.00    +0.000 A 
ATOM     32  C   UNL     1      44.982   4.519  10.550  0.00  0.00    +0.000 A 
BRANCH  31  33
ATOM     33  O   UNL     1      46.232   5.690   8.831  0.00  0.00    +0.000 OA
ATOM     34  H   UNL     1      46.264   6.341   9.554  0.00  0.00    +0.000 HD
ENDBRANCH  31  33
ENDBRANCH  21  24
ENDBRANCH  19  20
ENDBRANCH   4  19
TORSDOF 9
ENDMDL
MODEL 6
REMARK VINA RESULT:    -7.182      2.533      3.300
REMARK INTER + INTRA:         -12.348
REMARK INTER:                 -11.487
REMARK INTRA:                  -0.862
REMARK UNBOUND:                -1.597
REMARK  Name = 
REMARK  11 active torsions:
REMARK  status: ('A' for Active; 'I' for Inactive)
REMARK    1  A    between atoms: C_1  and  C_2
REMARK    2  A    between atoms: C_2  and  C_3
REMARK    3  A    between atoms: C_2  and  N_10
REMARK    4  A    between atoms: C_3  and  C_4
REMARK    5  A    between atoms: N_10  and  C_11
REMARK    6  A    between atoms: N_10  and  C_12
REMARK    7  A    between atoms: C_12  and  C_13
REMARK    8  A    between atoms: C_16  and  C_17
REMARK    9  A    between atoms: C_17  and  N_18
REMARK   10  A    between atoms: C_19  and  C_21
REMARK   11  A    between atoms: C_28  and  O_29
REMARK                            x       y       z     vdW  Elec       q    Type
REMARK                         _______ _______ _______ _____ _____    ______ ____
ROOT
ATOM      1  C   UNL     1      46.476   5.026  13.666  0.00  0.00    +0.000 A 
ATOM      2  C   UNL     1      47.151   6.176  13.248  0.00  0.00    +0.000 A 
ATOM      3  C   UNL     1      48.147   6.782  13.999  0.00  0.00    +0.000 A 
ATOM      4  C   UNL     1      48.483   6.260  15.243  0.00  0.00    +0.000 A 
ATOM      5  C   UNL     1      47.808   5.121  15.704  0.00  0.00    +0.000 A 
ATOM      6  C   UNL     1      46.818   4.505  14.920  0.00  0.00    +0.000 A 
ENDROOT
BRANCH   1   7
ATOM      7  C   UNL     1      45.353   4.418  12.840  0.00  0.00    +0.000 C 
BRANCH   7   8
ATOM      8  N   UNL     1      45.404   4.575  11.367  0.00  0.00    +0.000 NA
ATOM      9  C   UNL     1      44.746   5.830  10.989  0.00  0.00    +0.000 C 
BRANCH   8  11
ATOM     10  C   UNL     1      43.656   2.810  11.063  0.00  0.00    +0.000 C 
ATOM     11  C   UNL     1      44.985   3.397  10.548  0.00  0.00    +0.000 C 
BRANCH  11  12
ATOM     12  C   UNL     1      44.844   3.733   9.022  0.00  0.00    +0.000 C 
BRANCH  12  13
ATOM     13  C   UNL     1      45.752   2.962   8.073  0.00  0.00    +0.000 A 
ATOM     14  C   UNL     1      46.081   1.629   8.346  0.00  0.00    +0.000 A 
ATOM     15  C   UNL     1      46.895   0.903   7.472  0.00  0.00    +0.000 A 
ATOM     16  C   UNL     1      47.388   1.496   6.314  0.00  0.00    +0.000 A 
ATOM     17  C   UNL     1      47.066   2.816   6.021  0.00  0.00    +0.000 A 
ATOM     18  C   UNL     1      46.248   3.540   6.892  0.00  0.00    +0.000 A 
ENDBRANCH  12  13
ENDBRANCH  11  12
ENDBRANCH   8  11
ENDBRANCH   7   8
ENDBRANCH   1   7
BRANCH   4  19
ATOM     19  C   UNL     1      49.472   6.992  16.099  0.00  0.00    +0.000 C 
BRANCH  19  20
ATOM     20  N   UNL     1      50.493   6.083  16.546  0.00  0.00    +0.000 N 
ATOM     21  C   UNL     1      50.804   5.942  17.868  0.00  0.00    +0.000 C 
ATOM     22  O   UNL     1      50.209   6.565  18.743  0.00  0.00    +0.000 OA
ATOM     23  H   UNL     1      51.105   5.664  15.853  0.00  0.00    +0.000 HD
BRANCH  21  24
ATOM     24  C   UNL     1      51.833   4.948  18.187  0.00  0.00    +0.000 A 
ATOM     25  C   UNL     1      53.006   5.373  18.794  0.00  0.00    +0.000 A 
ATOM     26  S   UNL     1      54.072   4.105  19.178  0.00  0.00    +0.000 S 
ATOM     27  C   UNL     1      53.024   2.954  18.496  0.00  0.00    +0.000 A 
ATOM     28  N   UNL     1      53.377   1.651  18.503  0.00  0.00    +0.000 NA
ATOM     29  C   UNL     1      52.490   0.827  17.921  0.00  0.00    +0.000 A 
ATOM     30  C   UNL     1      51.300   1.219  17.343  0.00  0.00    +0.000 A 
ATOM     31  C   UNL     1      50.976   2.572  17.371  0.00  0.00    +0.000 A 
ATOM     32  C   UNL     1      51.852   3.508  17.978  0.00  0.00    +0.000 A 
BRANCH  31  33
ATOM     33  O   UNL     1      49.796   2.986  16.800  0.00  0.00    +0.000 OA
ATOM     34  H   UNL     1      49.541   3.848  17.175  0.00  0.00    +0.000 HD
ENDBRANCH  31  33
ENDBRANCH  21  24
ENDBRANCH  19  20
ENDBRANCH   4  19
TORSDOF 9
ENDMDL
MODEL 7
REMARK VINA RESULT:    -7.170      3.433      8.339
REMARK INTER + INTRA:         -12.330
REMARK INTER:                  -9.015
REMARK INTRA:                  -3.314
REMARK UNBOUND:                -1.597
REMARK  Name = 
REMARK  11 active torsions:
REMARK  status: ('A' for Active; 'I' for Inactive)
REMARK    1  A    between atoms: C_1  and  C_2
REMARK    2  A    between atoms: C_2  and  C_3
REMARK    3  A    between atoms: C_2  and  N_10
REMARK    4  A    between atoms: C_3  and  C_4
REMARK    5  A    between atoms: N_10  and  C_11
REMARK    6  A    between atoms: N_10  and  C_12
REMARK    7  A    between atoms: C_12  and  C_13
REMARK    8  A    between atoms: C_16  and  C_17
REMARK    9  A    between atoms: C_17  and  N_18
REMARK   10  A    between atoms: C_19  and  C_21
REMARK   11  A    between atoms: C_28  and  O_29
REMARK                            x       y       z     vdW  Elec       q    Type
REMARK                         _______ _______ _______ _____ _____    ______ ____
ROOT
ATOM      1  C   UNL     1      50.249   8.882  11.386  0.00  0.00    +0.000 A 
ATOM      2  C   UNL     1      49.650   7.631  11.558  0.00  0.00    +0.000 A 
ATOM      3  C   UNL     1      48.364   7.472  12.053  0.00  0.00    +0.000 A 
ATOM      4  C   UNL     1      47.632   8.590  12.435  0.00  0.00    +0.000 A 
ATOM      5  C   UNL     1      48.213   9.859  12.300  0.00  0.00    +0.000 A 
ATOM      6  C   UNL     1      49.508  10.004  11.773  0.00  0.00    +0.000 A 
ENDROOT
BRANCH   1   7
ATOM      7  C   UNL     1      51.680   9.016  10.888  0.00  0.00    +0.000 C 
BRANCH   7   8
ATOM      8  N   UNL     1      52.705   9.523  11.831  0.00  0.00    +0.000 NA
ATOM      9  C   UNL     1      53.922   9.867  11.089  0.00  0.00    +0.000 C 
BRANCH   8  11
ATOM     10  C   UNL     1      54.447   8.368  13.208  0.00  0.00    +0.000 C 
ATOM     11  C   UNL     1      52.950   8.711  13.061  0.00  0.00    +0.000 C 
BRANCH  11  12
ATOM     12  C   UNL     1      52.453   9.417  14.371  0.00  0.00    +0.000 C 
BRANCH  12  13
ATOM     13  C   UNL     1      51.141   8.911  14.956  0.00  0.00    +0.000 A 
ATOM     14  C   UNL     1      50.187   9.822  15.426  0.00  0.00    +0.000 A 
ATOM     15  C   UNL     1      48.969   9.374  15.944  0.00  0.00    +0.000 A 
ATOM     16  C   UNL     1      48.686   8.011  15.998  0.00  0.00    +0.000 A 
ATOM     17  C   UNL     1      49.617   7.092  15.529  0.00  0.00    +0.000 A 
ATOM     18  C   UNL     1      50.832   7.542  15.005  0.00  0.00    +0.000 A 
ENDBRANCH  12  13
ENDBRANCH  11  12
ENDBRANCH   8  11
ENDBRANCH   7   8
ENDBRANCH   1   7
BRANCH   4  19
ATOM     19  C   UNL     1      46.294   8.400  13.083  0.00  0.00    +0.000 C 
BRANCH  19  20
ATOM     20  N   UNL     1      45.816   7.068  12.828  0.00  0.00    +0.000 N 
ATOM     21  C   UNL     1      44.959   6.794  11.801  0.00  0.00    +0.000 C 
ATOM     22  O   UNL     1      44.573   7.667  11.028  0.00  0.00    +0.000 OA
ATOM     23  H   UNL     1      45.989   6.350  13.525  0.00  0.00    +0.000 HD
BRANCH  21  24
ATOM     24  C   UNL     1      44.588   5.386  11.628  0.00  0.00    +0.000 A 
ATOM     25  C   UNL     1      43.989   4.719  12.686  0.00  0.00    +0.000 A 
ATOM     26  S   UNL     1      43.541   3.120  12.317  0.00  0.00    +0.000 S 
ATOM     27  C   UNL     1      44.183   3.252  10.750  0.00  0.00    +0.000 A 
ATOM     28  N   UNL     1      44.119   2.192   9.916  0.00  0.00    +0.000 NA
ATOM     29  C   UNL     1      44.673   2.393   8.709  0.00  0.00    +0.000 A 
ATOM     30  C   UNL     1      45.279   3.562   8.297  0.00  0.00    +0.000 A 
ATOM     31  C   UNL     1      45.312   4.629   9.189  0.00  0.00    +0.000 A 
ATOM     32  C   UNL     1      44.736   4.505  10.479  0.00  0.00    +0.000 A 
BRANCH  31  33
ATOM     33  O   UNL     1      45.911   5.804   8.800  0.00  0.00    +0.000 OA
ATOM     34  H   UNL     1      45.973   5.829   7.829  0.00  0.00    +0.000 HD
ENDBRANCH  31  33
ENDBRANCH  21  24
ENDBRANCH  19  20
ENDBRANCH   4  19
TORSDOF 9
ENDMDL
MODEL 8
REMARK VINA RESULT:    -7.128      2.862      8.087
REMARK INTER + INTRA:         -12.267
REMARK INTER:                 -10.063
REMARK INTRA:                  -2.205
REMARK UNBOUND:                -1.597
REMARK  Name = 
REMARK  11 active torsions:
REMARK  status: ('A' for Active; 'I' for Inactive)
REMARK    1  A    between atoms: C_1  and  C_2
REMARK    2  A    between atoms: C_2  and  C_3
REMARK    3  A    between atoms: C_2  and  N_10
REMARK    4  A    between atoms: C_3  and  C_4
REMARK    5  A    between atoms: N_10  and  C_11
REMARK    6  A    between atoms: N_10  and  C_12
REMARK    7  A    between atoms: C_12  and  C_13
REMARK    8  A    between atoms: C_16  and  C_17
REMARK    9  A    between atoms: C_17  and  N_18
REMARK   10  A    between atoms: C_19  and  C_21
REMARK   11  A    between atoms: C_28  and  O_29
REMARK                            x       y       z     vdW  Elec       q    Type
REMARK                         _______ _______ _______ _____ _____    ______ ____
ROOT
ATOM      1  C   UNL     1      50.357   8.140  14.345  0.00  0.00    +0.000 A 
ATOM      2  C   UNL     1      49.836   7.627  13.154  0.00  0.00    +0.000 A 
ATOM      3  C   UNL     1      48.503   7.763  12.793  0.00  0.00    +0.000 A 
ATOM      4  C   UNL     1      47.620   8.404  13.653  0.00  0.00    +0.000 A 
ATOM      5  C   UNL     1      48.105   8.909  14.868  0.00  0.00    +0.000 A 
ATOM      6  C   UNL     1      49.463   8.784  15.208  0.00  0.00    +0.000 A 
ENDROOT
BRANCH   1   7
ATOM      7  C   UNL     1      51.812   7.928  14.733  0.00  0.00    +0.000 C 
BRANCH   7   8
ATOM      8  N   UNL     1      52.127   7.678  16.159  0.00  0.00    +0.000 NA
ATOM      9  C   UNL     1      53.439   8.251  16.475  0.00  0.00    +0.000 C 
BRANCH   8  11
ATOM     10  C   UNL     1      53.187   5.787  17.410  0.00  0.00    +0.000 C 
ATOM     11  C   UNL     1      51.935   6.283  16.658  0.00  0.00    +0.000 C 
BRANCH  11  12
ATOM     12  C   UNL     1      50.680   6.132  17.588  0.00  0.00    +0.000 C 
BRANCH  12  13
ATOM     13  C   UNL     1      49.657   5.081  17.180  0.00  0.00    +0.000 A 
ATOM     14  C   UNL     1      49.866   3.736  17.509  0.00  0.00    +0.000 A 
ATOM     15  C   UNL     1      48.924   2.764  17.161  0.00  0.00    +0.000 A 
ATOM     16  C   UNL     1      47.762   3.121  16.482  0.00  0.00    +0.000 A 
ATOM     17  C   UNL     1      47.533   4.452  16.154  0.00  0.00    +0.000 A 
ATOM     18  C   UNL     1      48.472   5.424  16.508  0.00  0.00    +0.000 A 
ENDBRANCH  12  13
ENDBRANCH  11  12
ENDBRANCH   8  11
ENDBRANCH   7   8
ENDBRANCH   1   7
BRANCH   4  19
ATOM     19  C   UNL     1      46.161   8.437  13.311  0.00  0.00    +0.000 C 
BRANCH  19  20
ATOM     20  N   UNL     1      45.697   7.104  13.035  0.00  0.00    +0.000 N 
ATOM     21  C   UNL     1      44.980   6.807  11.913  0.00  0.00    +0.000 C 
ATOM     22  O   UNL     1      44.716   7.659  11.069  0.00  0.00    +0.000 OA
ATOM     23  H   UNL     1      45.763   6.408  13.772  0.00  0.00    +0.000 HD
BRANCH  21  24
ATOM     24  C   UNL     1      44.609   5.400  11.736  0.00  0.00    +0.000 A 
ATOM     25  C   UNL     1      44.025   4.725  12.798  0.00  0.00    +0.000 A 
ATOM     26  S   UNL     1      43.576   3.128  12.424  0.00  0.00    +0.000 S 
ATOM     27  C   UNL     1      44.198   3.270  10.850  0.00  0.00    +0.000 A 
ATOM     28  N   UNL     1      44.125   2.215  10.011  0.00  0.00    +0.000 NA
ATOM     29  C   UNL     1      44.664   2.424   8.799  0.00  0.00    +0.000 A 
ATOM     30  C   UNL     1      45.262   3.597   8.386  0.00  0.00    +0.000 A 
ATOM     31  C   UNL     1      45.304   4.659   9.284  0.00  0.00    +0.000 A 
ATOM     32  C   UNL     1      44.744   4.525  10.580  0.00  0.00    +0.000 A 
BRANCH  31  33
ATOM     33  O   UNL     1      45.895   5.837   8.894  0.00  0.00    +0.000 OA
ATOM     34  H   UNL     1      45.207   6.506   8.732  0.00  0.00    +0.000 HD
ENDBRANCH  31  33
ENDBRANCH  21  24
ENDBRANCH  19  20
ENDBRANCH   4  19
TORSDOF 9
ENDMDL
MODEL 9
REMARK VINA RESULT:    -7.029      4.696      6.305
REMARK INTER + INTRA:         -12.119
REMARK INTER:                 -10.802
REMARK INTRA:                  -1.317
REMARK UNBOUND:                -1.597
REMARK  Name = 
REMARK  11 active torsions:
REMARK  status: ('A' for Active; 'I' for Inactive)
REMARK    1  A    between atoms: C_1  and  C_2
REMARK    2  A    between atoms: C_2  and  C_3
REMARK    3  A    between atoms: C_2  and  N_10
REMARK    4  A    between atoms: C_3  and  C_4
REMARK    5  A    between atoms: N_10  and  C_11
REMARK    6  A    between atoms: N_10  and  C_12
REMARK    7  A    between atoms: C_12  and  C_13
REMARK    8  A    between atoms: C_16  and  C_17
REMARK    9  A    between atoms: C_17  and  N_18
REMARK   10  A    between atoms: C_19  and  C_21
REMARK   11  A    between atoms: C_28  and  O_29
REMARK                            x       y       z     vdW  Elec       q    Type
REMARK                         _______ _______ _______ _____ _____    ______ ____
ROOT
ATOM      1  C   UNL     1      47.016   5.914  12.949  0.00  0.00    +0.000 A 
ATOM      2  C   UNL     1      47.288   6.649  11.793  0.00  0.00    +0.000 A 
ATOM      3  C   UNL     1      48.368   7.514  11.686  0.00  0.00    +0.000 A 
ATOM      4  C   UNL     1      49.211   7.699  12.776  0.00  0.00    +0.000 A 
ATOM      5  C   UNL     1      48.951   6.995  13.960  0.00  0.00    +0.000 A 
ATOM      6  C   UNL     1      47.867   6.105  14.044  0.00  0.00    +0.000 A 
ENDROOT
BRANCH   1   7
ATOM      7  C   UNL     1      45.793   5.014  13.049  0.00  0.00    +0.000 C 
BRANCH   7   8
ATOM      8  N   UNL     1      44.778   5.091  11.973  0.00  0.00    +0.000 NA
ATOM      9  C   UNL     1      43.533   5.644  12.517  0.00  0.00    +0.000 C 
BRANCH   8  11
ATOM     10  C   UNL     1      43.330   3.087  11.577  0.00  0.00    +0.000 C 
ATOM     11  C   UNL     1      44.587   3.866  11.138  0.00  0.00    +0.000 C 
BRANCH  11  12
ATOM     12  C   UNL     1      44.487   4.181   9.604  0.00  0.00    +0.000 C 
BRANCH  12  13
ATOM     13  C   UNL     1      45.420   3.398   8.690  0.00  0.00    +0.000 A 
ATOM     14  C   UNL     1      45.538   2.011   8.833  0.00  0.00    +0.000 A 
ATOM     15  C   UNL     1      46.372   1.276   7.987  0.00  0.00    +0.000 A 
ATOM     16  C   UNL     1      47.098   1.915   6.985  0.00  0.00    +0.000 A 
ATOM     17  C   UNL     1      46.988   3.291   6.822  0.00  0.00    +0.000 A 
ATOM     18  C   UNL     1      46.149   4.024   7.665  0.00  0.00    +0.000 A 
ENDBRANCH  12  13
ENDBRANCH  11  12
ENDBRANCH   8  11
ENDBRANCH   7   8
ENDBRANCH   1   7
BRANCH   4  19
ATOM     19  C   UNL     1      50.299   8.726  12.691  0.00  0.00    +0.000 C 
BRANCH  19  20
ATOM     20  N   UNL     1      50.882   8.708  11.376  0.00  0.00    +0.000 N 
ATOM     21  C   UNL     1      52.197   8.408  11.174  0.00  0.00    +0.000 C 
ATOM     22  O   UNL     1      52.945   8.113  12.103  0.00  0.00    +0.000 OA
ATOM     23  H   UNL     1      50.342   9.087  10.603  0.00  0.00    +0.000 HD
BRANCH  21  24
ATOM     24  C   UNL     1      52.648   8.382   9.779  0.00  0.00    +0.000 A 
ATOM     25  C   UNL     1      52.530   9.537   9.018  0.00  0.00    +0.000 A 
ATOM     26  S   UNL     1      53.164   9.385   7.448  0.00  0.00    +0.000 S 
ATOM     27  C   UNL     1      53.566   7.756   7.716  0.00  0.00    +0.000 A 
ATOM     28  N   UNL     1      54.146   7.045   6.726  0.00  0.00    +0.000 NA
ATOM     29  C   UNL     1      54.403   5.763   7.033  0.00  0.00    +0.000 A 
ATOM     30  C   UNL     1      54.117   5.161   8.241  0.00  0.00    +0.000 A 
ATOM     31  C   UNL     1      53.528   5.939   9.233  0.00  0.00    +0.000 A 
ATOM     32  C   UNL     1      53.236   7.306   8.995  0.00  0.00    +0.000 A 
BRANCH  31  33
ATOM     33  O   UNL     1      53.234   5.361  10.445  0.00  0.00    +0.000 OA
ATOM     34  H   UNL     1      52.360   5.668  10.745  0.00  0.00    +0.000 HD
ENDBRANCH  31  33
ENDBRANCH  21  24
ENDBRANCH  19  20
ENDBRANCH   4  19
TORSDOF 9
ENDMDL
