MODEL 1
REMARK VINA RESULT:    -7.844      0.000      0.000
REMARK INTER + INTRA:         -11.646
REMARK INTER:                 -10.595
REMARK INTRA:                  -1.050
REMARK UNBOUND:                -1.050
REMARK  Name = 
REMARK  7 active torsions:
REMARK  status: ('A' for Active; 'I' for Inactive)
REMARK    1  A    between atoms: C_1  and  N_2
REMARK    2  A    between atoms: N_2  and  C_3
REMARK    3  A    between atoms: C_3  and  C_4
REMARK    4  A    between atoms: C_7  and  C_8
REMARK    5  A    between atoms: C_8  and  N_9
REMARK    6  A    between atoms: C_10  and  C_12
REMARK    7  A    between atoms: C_24  and  C_26
REMARK                            x       y       z     vdW  Elec       q    Type
REMARK                         _______ _______ _______ _____ _____    ______ ____
ROOT
ATOM      1  C   UNL     1      46.408   4.593  13.410  0.00  0.00    +0.000 A 
ATOM      2  C   UNL     1      46.709   4.188  14.718  0.00  0.00    +0.000 A 
ATOM      3  C   UNL     1      47.587   4.932  15.510  0.00  0.00    +0.000 A 
ATOM      4  C   UNL     1      48.172   6.103  15.013  0.00  0.00    +0.000 A 
ATOM      5  C   UNL     1      47.879   6.502  13.701  0.00  0.00    +0.000 A 
ATOM      6  C   UNL     1      46.997   5.760  12.910  0.00  0.00    +0.000 A 
ENDROOT
BRANCH   1   7
ATOM      7  C   UNL     1      45.493   3.761  12.546  0.00  0.00    +0.000 C 
BRANCH   7   9
ATOM      8  C   UNL     1      43.285   4.843  13.188  0.00  0.00    +0.000 C 
ATOM      9  N   UNL     1      44.193   4.331  12.173  0.00  0.00    +0.000 N 
ATOM     10  C   UNL     1      43.863   4.622  10.836  0.00  0.00    +0.000 C 
ATOM     11  O   UNL     1      42.896   5.327  10.541  0.00  0.00    +0.000 OA
BRANCH  10  12
ATOM     12  C   UNL     1      44.700   4.100   9.714  0.00  0.00    +0.000 A 
ATOM     13  C   UNL     1      45.526   4.978   9.024  0.00  0.00    +0.000 A 
ATOM     14  N   UNL     1      46.316   4.581   7.992  0.00  0.00    +0.000 NA
ATOM     15  C   UNL     1      46.223   3.272   7.664  0.00  0.00    +0.000 A 
ATOM     16  C   UNL     1      45.388   2.397   8.337  0.00  0.00    +0.000 A 
ATOM     17  N   UNL     1      44.612   2.785   9.375  0.00  0.00    +0.000 NA
ENDBRANCH  10  12
ENDBRANCH   7   9
ENDBRANCH   1   7
BRANCH   4  18
ATOM     18  C   UNL     1      49.158   6.885  15.842  0.00  0.00    +0.000 C 
BRANCH  18  19
ATOM     19  N   UNL     1      50.184   6.010  16.355  0.00  0.00    +0.000 N 
ATOM     20  C   UNL     1      50.299   5.731  17.691  0.00  0.00    +0.000 C 
ATOM     21  O   UNL     1      49.507   6.165  18.521  0.00  0.00    +0.000 OA
ATOM     22  H   UNL     1      50.969   5.828  15.739  0.00  0.00    +0.000 HD
BRANCH  20  23
ATOM     23  C   UNL     1      51.392   4.825  18.068  0.00  0.00    +0.000 A 
ATOM     24  C   UNL     1      52.511   5.328  18.722  0.00  0.00    +0.000 A 
ATOM     25  S   UNL     1      53.647   4.127  19.148  0.00  0.00    +0.000 S 
ATOM     26  C   UNL     1      52.715   2.904  18.420  0.00  0.00    +0.000 A 
ATOM     27  N   UNL     1      53.138   1.612  18.411  0.00  0.00    +0.000 NA
ATOM     28  C   UNL     1      52.345   0.795  17.804  0.00  0.00    +0.000 A 
ATOM     29  N   UNL     1      51.165   1.152  17.205  0.00  0.00    +0.000 N 
ATOM     30  C   UNL     1      50.688   2.440  17.206  0.00  0.00    +0.000 A 
ATOM     31  O   UNL     1      49.607   2.715  16.689  0.00  0.00    +0.000 OA
ATOM     32  C   UNL     1      51.543   3.401  17.875  0.00  0.00    +0.000 A 
ATOM     33  H   UNL     1      50.585   0.463  16.747  0.00  0.00    +0.000 HD
ENDBRANCH  20  23
ENDBRANCH  18  19
ENDBRANCH   4  18
TORSDOF 6
ENDMDL
MODEL 2
REMARK VINA RESULT:    -7.202      3.567      8.320
REMARK INTER + INTRA:         -10.778
REMARK INTER:                  -9.546
REMARK INTRA:                  -1.232
REMARK UNBOUND:                -1.050
REMARK  Name = 
REMARK  7 active torsions:
REMARK  status: ('A' for Active; 'I' for Inactive)
REMARK    1  A    between atoms: C_1  and  N_2
REMARK    2  A    between atoms: N_2  and  C_3
REMARK    3  A    between atoms: C_3  and  C_4
REMARK    4  A    between atoms: C_7  and  C_8
REMARK    5  A    between atoms: C_8  and  N_9
REMARK    6  A    between atoms: C_10  and  C_12
REMARK    7  A    between atoms: C_24  and  C_26
REMARK                            x       y       z     vdW  Elec       q    Type
REMARK                         _______ _______ _______ _____ _____    ______ ____
ROOT
ATOM      1  C   UNL     1      49.007   7.525  16.206  0.00  0.00    +0.000 A 
ATOM      2  C   UNL     1      49.354   6.608  15.203  0.00  0.00    +0.000 A 
ATOM      3  C   UNL     1      49.081   6.882  13.861  0.00  0.00    +0.000 A 
ATOM      4  C   UNL     1      48.464   8.084  13.494  0.00  0.00    +0.000 A 
ATOM      5  C   UNL     1      48.107   8.996  14.498  0.00  0.00    +0.000 A 
ATOM      6  C   UNL     1      48.384   8.725  15.840  0.00  0.00    +0.000 A 
ENDROOT
BRANCH   1   7
ATOM      7  C   UNL     1      49.266   7.203  17.657  0.00  0.00    +0.000 C 
BRANCH   7   9
ATOM      8  C   UNL     1      47.534   8.080  19.297  0.00  0.00    +0.000 C 
ATOM      9  N   UNL     1      48.107   6.984  18.530  0.00  0.00    +0.000 N 
ATOM     10  C   UNL     1      47.362   5.791  18.494  0.00  0.00    +0.000 C 
ATOM     11  O   UNL     1      46.254   5.697  19.026  0.00  0.00    +0.000 OA
BRANCH  10  12
ATOM     12  C   UNL     1      47.883   4.587  17.778  0.00  0.00    +0.000 A 
ATOM     13  C   UNL     1      47.297   4.211  16.577  0.00  0.00    +0.000 A 
ATOM     14  N   UNL     1      47.714   3.130  15.866  0.00  0.00    +0.000 NA
ATOM     15  C   UNL     1      48.726   2.427  16.424  0.00  0.00    +0.000 A 
ATOM     16  C   UNL     1      49.302   2.789  17.630  0.00  0.00    +0.000 A 
ATOM     17  N   UNL     1      48.901   3.873  18.332  0.00  0.00    +0.000 NA
ENDBRANCH  10  12
ENDBRANCH   7   9
ENDBRANCH   1   7
BRANCH   4  18
ATOM     18  C   UNL     1      48.120   8.367  12.054  0.00  0.00    +0.000 C 
BRANCH  18  19
ATOM     19  N   UNL     1      47.462   7.226  11.465  0.00  0.00    +0.000 N 
ATOM     20  C   UNL     1      46.100   7.084  11.482  0.00  0.00    +0.000 C 
ATOM     21  O   UNL     1      45.359   7.942  11.951  0.00  0.00    +0.000 OA
ATOM     22  H   UNL     1      48.045   6.417  11.282  0.00  0.00    +0.000 HD
BRANCH  20  23
ATOM     23  C   UNL     1      45.571   5.871  10.844  0.00  0.00    +0.000 A 
ATOM     24  C   UNL     1      45.809   5.643   9.493  0.00  0.00    +0.000 A 
ATOM     25  S   UNL     1      45.186   4.155   8.935  0.00  0.00    +0.000 S 
ATOM     26  C   UNL     1      44.525   3.793  10.460  0.00  0.00    +0.000 A 
ATOM     27  N   UNL     1      43.825   2.645  10.666  0.00  0.00    +0.000 NA
ATOM     28  C   UNL     1      43.359   2.512  11.862  0.00  0.00    +0.000 A 
ATOM     29  N   UNL     1      43.530   3.421  12.873  0.00  0.00    +0.000 N 
ATOM     30  C   UNL     1      44.245   4.584  12.717  0.00  0.00    +0.000 A 
ATOM     31  O   UNL     1      44.407   5.359  13.658  0.00  0.00    +0.000 OA
ATOM     32  C   UNL     1      44.790   4.785  11.388  0.00  0.00    +0.000 A 
ATOM     33  H   UNL     1      43.142   3.257  13.791  0.00  0.00    +0.000 HD
ENDBRANCH  20  23
ENDBRANCH  18  19
ENDBRANCH   4  18
TORSDOF 6
ENDMDL
MODEL 3
REMARK VINA RESULT:    -7.193      2.523      2.931
REMARK INTER + INTRA:         -10.767
REMARK INTER:                 -10.355
REMARK INTRA:                  -0.412
REMARK UNBOUND:                -1.050
REMARK  Name = 
REMARK  7 active torsions:
REMARK  status: ('A' for Active; 'I' for Inactive)
REMARK    1  A    between atoms: C_1  and  N_2
REMARK    2  A    between atoms: N_2  and  C_3
REMARK    3  A    between atoms: C_3  and  C_4
REMARK    4  A    between atoms: C_7  and  C_8
REMARK    5  A    between atoms: C_8  and  N_9
REMARK    6  A    between atoms: C_10  and  C_12
REMARK    7  A    between atoms: C_24  and  C_26
REMARK                            x       y       z     vdW  Elec       q    Type
REMARK                         _______ _______ _______ _____ _____    ______ ____
ROOT
ATOM      1  C   UNL     1      45.357   6.682  11.755  0.00  0.00    +0.000 A 
ATOM      2  C   UNL     1      45.103   7.925  12.354  0.00  0.00    +0.000 A 
ATOM      3  C   UNL     1      46.102   8.586  13.073  0.00  0.00    +0.000 A 
ATOM      4  C   UNL     1      47.378   8.023  13.198  0.00  0.00    +0.000 A 
ATOM      5  C   UNL     1      47.628   6.775  12.608  0.00  0.00    +0.000 A 
ATOM      6  C   UNL     1      46.631   6.116  11.885  0.00  0.00    +0.000 A 
ENDROOT
BRANCH   1   7
ATOM      7  C   UNL     1      44.261   5.954  11.016  0.00  0.00    +0.000 C 
BRANCH   7   9
ATOM      8  C   UNL     1      42.884   4.829  12.833  0.00  0.00    +0.000 C 
ATOM      9  N   UNL     1      43.703   4.745  11.633  0.00  0.00    +0.000 N 
ATOM     10  C   UNL     1      43.731   3.497  10.982  0.00  0.00    +0.000 C 
ATOM     11  O   UNL     1      43.049   2.545  11.368  0.00  0.00    +0.000 OA
BRANCH  10  12
ATOM     12  C   UNL     1      44.580   3.287   9.771  0.00  0.00    +0.000 A 
ATOM     13  C   UNL     1      44.782   4.347   8.898  0.00  0.00    +0.000 A 
ATOM     14  N   UNL     1      45.541   4.236   7.775  0.00  0.00    +0.000 NA
ATOM     15  C   UNL     1      46.067   3.009   7.552  0.00  0.00    +0.000 A 
ATOM     16  C   UNL     1      45.853   1.945   8.411  0.00  0.00    +0.000 A 
ATOM     17  N   UNL     1      45.112   2.056   9.537  0.00  0.00    +0.000 NA
ENDBRANCH  10  12
ENDBRANCH   7   9
ENDBRANCH   1   7
BRANCH   4  18
ATOM     18  C   UNL     1      48.446   8.705  14.013  0.00  0.00    +0.000 C 
BRANCH  18  19
ATOM     19  N   UNL     1      48.667   7.988  15.245  0.00  0.00    +0.000 N 
ATOM     20  C   UNL     1      49.882   7.439  15.559  0.00  0.00    +0.000 C 
ATOM     21  O   UNL     1      50.865   7.570  14.836  0.00  0.00    +0.000 OA
ATOM     22  H   UNL     1      47.838   7.676  15.738  0.00  0.00    +0.000 HD
BRANCH  20  23
ATOM     23  C   UNL     1      49.959   6.738  16.847  0.00  0.00    +0.000 A 
ATOM     24  C   UNL     1      50.840   7.186  17.824  0.00  0.00    +0.000 A 
ATOM     25  S   UNL     1      50.746   6.302  19.281  0.00  0.00    +0.000 S 
ATOM     26  C   UNL     1      49.572   5.252  18.637  0.00  0.00    +0.000 A 
ATOM     27  N   UNL     1      49.067   4.228  19.376  0.00  0.00    +0.000 NA
ATOM     28  C   UNL     1      48.203   3.497  18.754  0.00  0.00    +0.000 A 
ATOM     29  N   UNL     1      47.797   3.698  17.461  0.00  0.00    +0.000 N 
ATOM     30  C   UNL     1      48.266   4.730  16.684  0.00  0.00    +0.000 A 
ATOM     31  O   UNL     1      47.851   4.898  15.539  0.00  0.00    +0.000 OA
ATOM     32  C   UNL     1      49.242   5.582  17.334  0.00  0.00    +0.000 A 
ATOM     33  H   UNL     1      47.114   3.091  17.031  0.00  0.00    +0.000 HD
ENDBRANCH  20  23
ENDBRANCH  18  19
ENDBRANCH   4  18
TORSDOF 6
ENDMDL
MODEL 4
REMARK VINA RESULT:    -7.124      3.131      3.749
REMARK INTER + INTRA:         -10.674
REMARK INTER:                  -9.706
REMARK INTRA:                  -0.968
REMARK UNBOUND:                -1.050
REMARK  Name = 
REMARK  7 active torsions:
REMARK  status: ('A' for Active; 'I' for Inactive)
REMARK    1  A    between atoms: C_1  and  N_2
REMARK    2  A    between atoms: N_2  and  C_3
REMARK    3  A    between atoms: C_3  and  C_4
REMARK    4  A    between atoms: C_7  and  C_8
REMARK    5  A    between atoms: C_8  and  N_9
REMARK    6  A    between atoms: C_10  and  C_12
REMARK    7  A    between atoms: C_24  and  C_26
REMARK                            x       y       z     vdW  Elec       q    Type
REMARK                         _______ _______ _______ _____ _____    ______ ____
ROOT
ATOM      1  C   UNL     1      46.424   4.612  13.196  0.00  0.00    +0.000 A 
ATOM      2  C   UNL     1      46.801   5.792  12.538  0.00  0.00    +0.000 A 
ATOM      3  C   UNL     1      47.629   6.725  13.167  0.00  0.00    +0.000 A 
ATOM      4  C   UNL     1      48.105   6.491  14.463  0.00  0.00    +0.000 A 
ATOM      5  C   UNL     1      47.719   5.317  15.125  0.00  0.00    +0.000 A 
ATOM      6  C   UNL     1      46.895   4.381  14.495  0.00  0.00    +0.000 A 
ENDROOT
BRANCH   1   7
ATOM      7  C   UNL     1      45.495   3.630  12.527  0.00  0.00    +0.000 C 
BRANCH   7   9
ATOM      8  C   UNL     1      43.222   4.634  13.064  0.00  0.00    +0.000 C 
ATOM      9  N   UNL     1      44.177   4.113  12.098  0.00  0.00    +0.000 N 
ATOM     10  C   UNL     1      43.865   4.315  10.740  0.00  0.00    +0.000 C 
ATOM     11  O   UNL     1      42.871   4.954  10.387  0.00  0.00    +0.000 OA
BRANCH  10  12
ATOM     12  C   UNL     1      44.751   3.776   9.665  0.00  0.00    +0.000 A 
ATOM     13  C   UNL     1      45.440   4.665   8.851  0.00  0.00    +0.000 A 
ATOM     14  N   UNL     1      46.265   4.254   7.852  0.00  0.00    +0.000 NA
ATOM     15  C   UNL     1      46.349   2.914   7.687  0.00  0.00    +0.000 A 
ATOM     16  C   UNL     1      45.650   2.024   8.485  0.00  0.00    +0.000 A 
ATOM     17  N   UNL     1      44.841   2.429   9.490  0.00  0.00    +0.000 NA
ENDBRANCH  10  12
ENDBRANCH   7   9
ENDBRANCH   1   7
BRANCH   4  18
ATOM     18  C   UNL     1      48.958   7.514  15.168  0.00  0.00    +0.000 C 
BRANCH  18  19
ATOM     19  N   UNL     1      48.506   7.691  16.526  0.00  0.00    +0.000 N 
ATOM     20  C   UNL     1      49.338   7.510  17.599  0.00  0.00    +0.000 C 
ATOM     21  O   UNL     1      50.527   7.241  17.465  0.00  0.00    +0.000 OA
ATOM     22  H   UNL     1      47.501   7.687  16.669  0.00  0.00    +0.000 HD
BRANCH  20  23
ATOM     23  C   UNL     1      48.738   7.724  18.922  0.00  0.00    +0.000 A 
ATOM     24  C   UNL     1      48.445   9.015  19.346  0.00  0.00    +0.000 A 
ATOM     25  S   UNL     1      47.688   9.074  20.874  0.00  0.00    +0.000 S 
ATOM     26  C   UNL     1      47.781   7.384  21.051  0.00  0.00    +0.000 A 
ATOM     27  N   UNL     1      47.317   6.770  22.172  0.00  0.00    +0.000 NA
ATOM     28  C   UNL     1      47.475   5.489  22.182  0.00  0.00    +0.000 A 
ATOM     29  N   UNL     1      48.053   4.765  21.172  0.00  0.00    +0.000 N 
ATOM     30  C   UNL     1      48.517   5.340  20.014  0.00  0.00    +0.000 A 
ATOM     31  O   UNL     1      48.996   4.653  19.114  0.00  0.00    +0.000 OA
ATOM     32  C   UNL     1      48.366   6.781  19.951  0.00  0.00    +0.000 A 
ATOM     33  H   UNL     1      48.144   3.761  21.239  0.00  0.00    +0.000 HD
ENDBRANCH  20  23
ENDBRANCH  18  19
ENDBRANCH   4  18
TORSDOF 6
ENDMDL
MODEL 5
REMARK VINA RESULT:    -7.082      3.348     10.219
REMARK INTER + INTRA:         -10.616
REMARK INTER:                  -9.603
REMARK INTRA:                  -1.014
REMARK UNBOUND:                -1.050
REMARK  Name = 
REMARK  7 active torsions:
REMARK  status: ('A' for Active; 'I' for Inactive)
REMARK    1  A    between atoms: C_1  and  N_2
REMARK    2  A    between atoms: N_2  and  C_3
REMARK    3  A    between atoms: C_3  and  C_4
REMARK    4  A    between atoms: C_7  and  C_8
REMARK    5  A    between atoms: C_8  and  N_9
REMARK    6  A    between atoms: C_10  and  C_12
REMARK    7  A    between atoms: C_24  and  C_26
REMARK                            x       y       z     vdW  Elec       q    Type
REMARK                         _______ _______ _______ _____ _____    ______ ____
ROOT
ATOM      1  C   UNL     1      51.499   3.728  17.657  0.00  0.00    +0.000 A 
ATOM      2  C   UNL     1      50.905   2.486  17.385  0.00  0.00    +0.000 A 
ATOM      3  C   UNL     1      49.537   2.394  17.122  0.00  0.00    +0.000 A 
ATOM      4  C   UNL     1      48.737   3.543  17.113  0.00  0.00    +0.000 A 
ATOM      5  C   UNL     1      49.329   4.783  17.395  0.00  0.00    +0.000 A 
ATOM      6  C   UNL     1      50.698   4.876  17.655  0.00  0.00    +0.000 A 
ENDROOT
BRANCH   1   7
ATOM      7  C   UNL     1      52.969   3.814  17.983  0.00  0.00    +0.000 C 
BRANCH   7   9
ATOM      8  C   UNL     1      54.166   1.730  18.811  0.00  0.00    +0.000 C 
ATOM      9  N   UNL     1      53.480   2.985  19.081  0.00  0.00    +0.000 N 
ATOM     10  C   UNL     1      53.542   3.458  20.405  0.00  0.00    +0.000 C 
ATOM     11  O   UNL     1      54.196   2.878  21.275  0.00  0.00    +0.000 OA
BRANCH  10  12
ATOM     12  C   UNL     1      52.829   4.709  20.802  0.00  0.00    +0.000 A 
ATOM     13  C   UNL     1      53.524   5.912  20.794  0.00  0.00    +0.000 A 
ATOM     14  N   UNL     1      52.946   7.092  21.142  0.00  0.00    +0.000 NA
ATOM     15  C   UNL     1      51.651   7.012  21.523  0.00  0.00    +0.000 A 
ATOM     16  C   UNL     1      50.960   5.812  21.549  0.00  0.00    +0.000 A 
ATOM     17  N   UNL     1      51.526   4.638  21.189  0.00  0.00    +0.000 NA
ENDBRANCH  10  12
ENDBRANCH   7   9
ENDBRANCH   1   7
BRANCH   4  18
ATOM     18  C   UNL     1      47.251   3.447  16.879  0.00  0.00    +0.000 C 
BRANCH  18  19
ATOM     19  N   UNL     1      46.835   4.424  15.903  0.00  0.00    +0.000 N 
ATOM     20  C   UNL     1      46.880   4.173  14.557  0.00  0.00    +0.000 C 
ATOM     21  O   UNL     1      47.225   3.086  14.107  0.00  0.00    +0.000 OA
ATOM     22  H   UNL     1      46.767   5.383  16.229  0.00  0.00    +0.000 HD
BRANCH  20  23
ATOM     23  C   UNL     1      46.426   5.263  13.683  0.00  0.00    +0.000 A 
ATOM     24  C   UNL     1      47.244   6.367  13.477  0.00  0.00    +0.000 A 
ATOM     25  S   UNL     1      46.592   7.500  12.379  0.00  0.00    +0.000 S 
ATOM     26  C   UNL     1      45.170   6.587  12.189  0.00  0.00    +0.000 A 
ATOM     27  N   UNL     1      44.164   7.016  11.380  0.00  0.00    +0.000 NA
ATOM     28  C   UNL     1      43.135   6.237  11.351  0.00  0.00    +0.000 A 
ATOM     29  N   UNL     1      43.020   5.066  12.054  0.00  0.00    +0.000 N 
ATOM     30  C   UNL     1      44.018   4.584  12.867  0.00  0.00    +0.000 A 
ATOM     31  O   UNL     1      43.892   3.512  13.455  0.00  0.00    +0.000 OA
ATOM     32  C   UNL     1      45.198   5.424  12.939  0.00  0.00    +0.000 A 
ATOM     33  H   UNL     1      42.188   4.498  11.985  0.00  0.00    +0.000 HD
ENDBRANCH  20  23
ENDBRANCH  18  19
ENDBRANCH   4  18
TORSDOF 6
ENDMDL
MODEL 6
REMARK VINA RESULT:    -6.999      3.278      9.763
REMARK INTER + INTRA:         -10.504
REMARK INTER:                  -9.829
REMARK INTRA:                  -0.675
REMARK UNBOUND:                -1.050
REMARK  Name = 
REMARK  7 active torsions:
REMARK  status: ('A' for Active; 'I' for Inactive)
REMARK    1  A    between atoms: C_1  and  N_2
REMARK    2  A    between atoms: N_2  and  C_3
REMARK    3  A    between atoms: C_3  and  C_4
REMARK    4  A    between atoms: C_7  and  C_8
REMARK    5  A    between atoms: C_8  and  N_9
REMARK    6  A    between atoms: C_10  and  C_12
REMARK    7  A    between atoms: C_24  and  C_26
REMARK                            x       y       z     vdW  Elec       q    Type
REMARK                         _______ _______ _______ _____ _____    ______ ____
ROOT
ATOM      1  C   UNL     1      51.561   4.206  17.685  0.00  0.00    +0.000 A 
ATOM      2  C   UNL     1      50.674   5.292  17.719  0.00  0.00    +0.000 A 
ATOM      3  C   UNL     1      49.309   5.105  17.485  0.00  0.00    +0.000 A 
ATOM      4  C   UNL     1      48.803   3.826  17.224  0.00  0.00    +0.000 A 
ATOM      5  C   UNL     1      49.692   2.742  17.180  0.00  0.00    +0.000 A 
ATOM      6  C   UNL     1      51.056   2.928  17.418  0.00  0.00    +0.000 A 
ENDROOT
BRANCH   1   7
ATOM      7  C   UNL     1      53.039   4.423  17.895  0.00  0.00    +0.000 C 
BRANCH   7   9
ATOM      8  C   UNL     1      53.530   5.054  20.308  0.00  0.00    +0.000 C 
ATOM      9  N   UNL     1      53.600   4.099  19.212  0.00  0.00    +0.000 N 
ATOM     10  C   UNL     1      54.015   2.796  19.545  0.00  0.00    +0.000 C 
ATOM     11  O   UNL     1      54.242   2.461  20.710  0.00  0.00    +0.000 OA
BRANCH  10  12
ATOM     12  C   UNL     1      54.170   1.751  18.488  0.00  0.00    +0.000 A 
ATOM     13  C   UNL     1      55.027   1.993  17.423  0.00  0.00    +0.000 A 
ATOM     14  N   UNL     1      55.223   1.094  16.422  0.00  0.00    +0.000 NA
ATOM     15  C   UNL     1      54.503  -0.048  16.522  0.00  0.00    +0.000 A 
ATOM     16  C   UNL     1      53.635  -0.286  17.574  0.00  0.00    +0.000 A 
ATOM     17  N   UNL     1      53.450   0.600  18.579  0.00  0.00    +0.000 NA
ENDBRANCH  10  12
ENDBRANCH   7   9
ENDBRANCH   1   7
BRANCH   4  18
ATOM     18  C   UNL     1      47.341   3.621  16.922  0.00  0.00    +0.000 C 
BRANCH  18  19
ATOM     19  N   UNL     1      46.909   4.540  15.898  0.00  0.00    +0.000 N 
ATOM     20  C   UNL     1      46.971   4.226  14.566  0.00  0.00    +0.000 C 
ATOM     21  O   UNL     1      47.346   3.126  14.171  0.00  0.00    +0.000 OA
ATOM     22  H   UNL     1      46.815   5.511  16.176  0.00  0.00    +0.000 HD
BRANCH  20  23
ATOM     23  C   UNL     1      46.497   5.260  13.637  0.00  0.00    +0.000 A 
ATOM     24  C   UNL     1      47.313   6.346  13.341  0.00  0.00    +0.000 A 
ATOM     25  S   UNL     1      46.636   7.411  12.191  0.00  0.00    +0.000 S 
ATOM     26  C   UNL     1      45.207   6.493  12.095  0.00  0.00    +0.000 A 
ATOM     27  N   UNL     1      44.181   6.875  11.287  0.00  0.00    +0.000 NA
ATOM     28  C   UNL     1      43.150   6.100  11.332  0.00  0.00    +0.000 A 
ATOM     29  N   UNL     1      43.051   4.976  12.111  0.00  0.00    +0.000 N 
ATOM     30  C   UNL     1      44.067   4.542  12.927  0.00  0.00    +0.000 A 
ATOM     31  O   UNL     1      43.954   3.509  13.583  0.00  0.00    +0.000 OA
ATOM     32  C   UNL     1      45.251   5.379  12.916  0.00  0.00    +0.000 A 
ATOM     33  H   UNL     1      42.215   4.408  12.099  0.00  0.00    +0.000 HD
ENDBRANCH  20  23
ENDBRANCH  18  19
ENDBRANCH   4  18
TORSDOF 6
ENDMDL
MODEL 7
REMARK VINA RESULT:    -6.802      3.129      9.296
REMARK INTER + INTRA:         -10.238
REMARK INTER:                  -9.257
REMARK INTRA:                  -0.980
REMARK UNBOUND:                -1.050
REMARK  Name = 
REMARK  7 active torsions:
REMARK  status: ('A' for Active; 'I' for Inactive)
REMARK    1  A    between atoms: C_1  and  N_2
REMARK    2  A    between atoms: N_2  and  C_3
REMARK    3  A    between atoms: C_3  and  C_4
REMARK    4  A    between atoms: C_7  and  C_8
REMARK    5  A    between atoms: C_8  and  N_9
REMARK    6  A    between atoms: C_10  and  C_12
REMARK    7  A    between atoms: C_24  and  C_26
REMARK                            x       y       z     vdW  Elec       q    Type
REMARK                         _______ _______ _______ _____ _____    ______ ____
ROOT
ATOM      1  C   UNL     1      50.271   7.420  15.579  0.00  0.00    +0.000 A 
ATOM      2  C   UNL     1      50.712   8.170  14.478  0.00  0.00    +0.000 A 
ATOM      3  C   UNL     1      49.923   8.285  13.332  0.00  0.00    +0.000 A 
ATOM      4  C   UNL     1      48.671   7.663  13.267  0.00  0.00    +0.000 A 
ATOM      5  C   UNL     1      48.234   6.904  14.363  0.00  0.00    +0.000 A 
ATOM      6  C   UNL     1      49.022   6.792  15.512  0.00  0.00    +0.000 A 
ENDROOT
BRANCH   1   7
ATOM      7  C   UNL     1      51.148   7.265  16.796  0.00  0.00    +0.000 C 
BRANCH   7   9
ATOM      8  C   UNL     1      53.559   6.653  16.273  0.00  0.00    +0.000 C 
ATOM      9  N   UNL     1      52.233   6.278  16.740  0.00  0.00    +0.000 N 
ATOM     10  C   UNL     1      52.117   5.010  17.340  0.00  0.00    +0.000 C 
ATOM     11  O   UNL     1      53.097   4.282  17.522  0.00  0.00    +0.000 OA
BRANCH  10  12
ATOM     12  C   UNL     1      50.792   4.505  17.808  0.00  0.00    +0.000 A 
ATOM     13  C   UNL     1      50.347   4.852  19.077  0.00  0.00    +0.000 A 
ATOM     14  N   UNL     1      49.154   4.433  19.574  0.00  0.00    +0.000 NA
ATOM     15  C   UNL     1      48.436   3.629  18.755  0.00  0.00    +0.000 A 
ATOM     16  C   UNL     1      48.884   3.266  17.496  0.00  0.00    +0.000 A 
ATOM     17  N   UNL     1      50.063   3.695  16.992  0.00  0.00    +0.000 NA
ENDBRANCH  10  12
ENDBRANCH   7   9
ENDBRANCH   1   7
BRANCH   4  18
ATOM     18  C   UNL     1      47.834   7.740  12.017  0.00  0.00    +0.000 C 
BRANCH  18  19
ATOM     19  N   UNL     1      47.073   6.526  11.848  0.00  0.00    +0.000 N 
ATOM     20  C   UNL     1      45.727   6.540  11.595  0.00  0.00    +0.000 C 
ATOM     21  O   UNL     1      45.102   7.585  11.445  0.00  0.00    +0.000 OA
ATOM     22  H   UNL     1      47.507   5.674  12.187  0.00  0.00    +0.000 HD
BRANCH  20  23
ATOM     23  C   UNL     1      45.086   5.227  11.448  0.00  0.00    +0.000 A 
ATOM     24  C   UNL     1      44.425   4.657  12.531  0.00  0.00    +0.000 A 
ATOM     25  S   UNL     1      43.678   3.168  12.164  0.00  0.00    +0.000 S 
ATOM     26  C   UNL     1      44.260   3.202  10.566  0.00  0.00    +0.000 A 
ATOM     27  N   UNL     1      43.992   2.187   9.700  0.00  0.00    +0.000 NA
ATOM     28  C   UNL     1      44.517   2.333   8.530  0.00  0.00    +0.000 A 
ATOM     29  N   UNL     1      45.286   3.401   8.145  0.00  0.00    +0.000 N 
ATOM     30  C   UNL     1      45.566   4.456   8.979  0.00  0.00    +0.000 A 
ATOM     31  O   UNL     1      46.230   5.413   8.586  0.00  0.00    +0.000 OA
ATOM     32  C   UNL     1      45.001   4.343  10.309  0.00  0.00    +0.000 A 
ATOM     33  H   UNL     1      45.666   3.457   7.211  0.00  0.00    +0.000 HD
ENDBRANCH  20  23
ENDBRANCH  18  19
ENDBRANCH   4  18
TORSDOF 6
ENDMDL
MODEL 8
REMARK VINA RESULT:    -6.731      1.791      2.735
REMARK INTER + INTRA:         -10.143
REMARK INTER:                  -9.312
REMARK INTRA:                  -0.831
REMARK UNBOUND:                -1.050
REMARK  Name = 
REMARK  7 active torsions:
REMARK  status: ('A' for Active; 'I' for Inactive)
REMARK    1  A    between atoms: C_1  and  N_2
REMARK    2  A    between atoms: N_2  and  C_3
REMARK    3  A    between atoms: C_3  and  C_4
REMARK    4  A    between atoms: C_7  and  C_8
REMARK    5  A    between atoms: C_8  and  N_9
REMARK    6  A    between atoms: C_10  and  C_12
REMARK    7  A    between atoms: C_24  and  C_26
REMARK                            x       y       z     vdW  Elec       q    Type
REMARK                         _______ _______ _______ _____ _____    ______ ____
ROOT
ATOM      1  C   UNL     1      47.604   5.495  14.433  0.00  0.00    +0.000 A 
ATOM      2  C   UNL     1      47.063   4.362  15.059  0.00  0.00    +0.000 A 
ATOM      3  C   UNL     1      47.311   4.108  16.410  0.00  0.00    +0.000 A 
ATOM      4  C   UNL     1      48.095   4.988  17.165  0.00  0.00    +0.000 A 
ATOM      5  C   UNL     1      48.643   6.116  16.537  0.00  0.00    +0.000 A 
ATOM      6  C   UNL     1      48.392   6.373  15.187  0.00  0.00    +0.000 A 
ENDROOT
BRANCH   1   7
ATOM      7  C   UNL     1      47.367   5.740  12.964  0.00  0.00    +0.000 C 
BRANCH   7   9
ATOM      8  C   UNL     1      46.979   8.231  12.637  0.00  0.00    +0.000 C 
ATOM      9  N   UNL     1      46.496   6.859  12.585  0.00  0.00    +0.000 N 
ATOM     10  C   UNL     1      45.260   6.656  11.943  0.00  0.00    +0.000 C 
ATOM     11  O   UNL     1      44.650   7.578  11.396  0.00  0.00    +0.000 OA
BRANCH  10  12
ATOM     12  C   UNL     1      44.649   5.295  11.878  0.00  0.00    +0.000 A 
ATOM     13  C   UNL     1      44.047   4.771  13.014  0.00  0.00    +0.000 A 
ATOM     14  N   UNL     1      43.469   3.541  13.035  0.00  0.00    +0.000 NA
ATOM     15  C   UNL     1      43.543   2.847  11.876  0.00  0.00    +0.000 A 
ATOM     16  C   UNL     1      44.157   3.359  10.745  0.00  0.00    +0.000 A 
ATOM     17  N   UNL     1      44.719   4.589  10.716  0.00  0.00    +0.000 NA
ENDBRANCH  10  12
ENDBRANCH   7   9
ENDBRANCH   1   7
BRANCH   4  18
ATOM     18  C   UNL     1      48.408   4.696  18.610  0.00  0.00    +0.000 C 
BRANCH  18  19
ATOM     19  N   UNL     1      49.666   3.998  18.717  0.00  0.00    +0.000 N 
ATOM     20  C   UNL     1      50.855   4.661  18.867  0.00  0.00    +0.000 C 
ATOM     21  O   UNL     1      50.914   5.882  18.972  0.00  0.00    +0.000 OA
ATOM     22  H   UNL     1      49.670   3.031  18.410  0.00  0.00    +0.000 HD
BRANCH  20  23
ATOM     23  C   UNL     1      52.055   3.819  18.962  0.00  0.00    +0.000 A 
ATOM     24  C   UNL     1      53.095   4.193  19.803  0.00  0.00    +0.000 A 
ATOM     25  S   UNL     1      54.375   3.065  19.845  0.00  0.00    +0.000 S 
ATOM     26  C   UNL     1      53.613   2.069  18.696  0.00  0.00    +0.000 A 
ATOM     27  N   UNL     1      54.201   0.921  18.264  0.00  0.00    +0.000 NA
ATOM     28  C   UNL     1      53.523   0.277  17.374  0.00  0.00    +0.000 A 
ATOM     29  N   UNL     1      52.309   0.676  16.877  0.00  0.00    +0.000 N 
ATOM     30  C   UNL     1      51.670   1.816  17.298  0.00  0.00    +0.000 A 
ATOM     31  O   UNL     1      50.565   2.122  16.855  0.00  0.00    +0.000 OA
ATOM     32  C   UNL     1      52.390   2.580  18.298  0.00  0.00    +0.000 A 
ATOM     33  H   UNL     1      51.826   0.125  16.182  0.00  0.00    +0.000 HD
ENDBRANCH  20  23
ENDBRANCH  18  19
ENDBRANCH   4  18
TORSDOF 6
ENDMDL
MODEL 9
REMARK VINA RESULT:    -6.627      3.049      3.857
REMARK INTER + INTRA:         -10.001
REMARK INTER:                  -9.773
REMARK INTRA:                  -0.228
REMARK UNBOUND:                -1.050
REMARK  Name = 
REMARK  7 active torsions:
REMARK  status: ('A' for Active; 'I' for Inactive)
REMARK    1  A    between atoms: C_1  and  N_2
REMARK    2  A    between atoms: N_2  and  C_3
REMARK    3  A    between atoms: C_3  and  C_4
REMARK    4  A    between atoms: C_7  and  C_8
REMARK    5  A    between atoms: C_8  and  N_9
REMARK    6  A    between atoms: C_10  and  C_12
REMARK    7  A    between atoms: C_24  and  C_26
REMARK                            x       y       z     vdW  Elec       q    Type
REMARK                         _______ _______ _______ _____ _____    ______ ____
ROOT
ATOM      1  C   UNL     1      45.710   6.376  12.018  0.00  0.00    +0.000 A 
ATOM      2  C   UNL     1      46.753   5.646  12.607  0.00  0.00    +0.000 A 
ATOM      3  C   UNL     1      47.661   6.268  13.467  0.00  0.00    +0.000 A 
ATOM      4  C   UNL     1      47.538   7.630  13.764  0.00  0.00    +0.000 A 
ATOM      5  C   UNL     1      46.501   8.363  13.167  0.00  0.00    +0.000 A 
ATOM      6  C   UNL     1      45.590   7.740  12.310  0.00  0.00    +0.000 A 
ENDROOT
BRANCH   1   7
ATOM      7  C   UNL     1      44.760   5.707  11.057  0.00  0.00    +0.000 C 
BRANCH   7   9
ATOM      8  C   UNL     1      43.184   4.577  12.700  0.00  0.00    +0.000 C 
ATOM      9  N   UNL     1      44.036   4.518  11.522  0.00  0.00    +0.000 N 
ATOM     10  C   UNL     1      43.941   3.351  10.740  0.00  0.00    +0.000 C 
ATOM     11  O   UNL     1      43.135   2.455  11.000  0.00  0.00    +0.000 OA
BRANCH  10  12
ATOM     12  C   UNL     1      44.809   3.165   9.538  0.00  0.00    +0.000 A 
ATOM     13  C   UNL     1      45.031   4.245   8.694  0.00  0.00    +0.000 A 
ATOM     14  N   UNL     1      45.807   4.157   7.582  0.00  0.00    +0.000 NA
ATOM     15  C   UNL     1      46.329   2.933   7.338  0.00  0.00    +0.000 A 
ATOM     16  C   UNL     1      46.096   1.849   8.167  0.00  0.00    +0.000 A 
ATOM     17  N   UNL     1      45.338   1.937   9.283  0.00  0.00    +0.000 NA
ENDBRANCH  10  12
ENDBRANCH   7   9
ENDBRANCH   1   7
BRANCH   4  18
ATOM     18  C   UNL     1      48.541   8.321  14.651  0.00  0.00    +0.000 C 
BRANCH  18  19
ATOM     19  N   UNL     1      48.483   7.780  15.987  0.00  0.00    +0.000 N 
ATOM     20  C   UNL     1      49.382   6.848  16.434  0.00  0.00    +0.000 C 
ATOM     21  O   UNL     1      50.319   6.461  15.744  0.00  0.00    +0.000 OA
ATOM     22  H   UNL     1      47.608   7.906  16.485  0.00  0.00    +0.000 HD
BRANCH  20  23
ATOM     23  C   UNL     1      49.198   6.388  17.817  0.00  0.00    +0.000 A 
ATOM     24  C   UNL     1      48.874   5.059  18.063  0.00  0.00    +0.000 A 
ATOM     25  S   UNL     1      48.770   4.681  19.725  0.00  0.00    +0.000 S 
ATOM     26  C   UNL     1      49.093   6.290  20.171  0.00  0.00    +0.000 A 
ATOM     27  N   UNL     1      49.128   6.661  21.479  0.00  0.00    +0.000 NA
ATOM     28  C   UNL     1      49.359   7.917  21.671  0.00  0.00    +0.000 A 
ATOM     29  N   UNL     1      49.560   8.836  20.674  0.00  0.00    +0.000 N 
ATOM     30  C   UNL     1      49.553   8.503  19.341  0.00  0.00    +0.000 A 
ATOM     31  O   UNL     1      49.773   9.349  18.477  0.00  0.00    +0.000 OA
ATOM     32  C   UNL     1      49.295   7.102  19.069  0.00  0.00    +0.000 A 
ATOM     33  H   UNL     1      49.739   9.806  20.891  0.00  0.00    +0.000 HD
ENDBRANCH  20  23
ENDBRANCH  18  19
ENDBRANCH   4  18
TORSDOF 6
ENDMDL
