MODEL 1
REMARK VINA RESULT:    -8.183      0.000      0.000
REMARK INTER + INTRA:         -11.068
REMARK INTER:                 -10.575
REMARK INTRA:                  -0.493
REMARK UNBOUND:                -0.493
REMARK  Name = 
REMARK  6 active torsions:
REMARK  status: ('A' for Active; 'I' for Inactive)
REMARK    1  A    between atoms: C_1  and  C_2
REMARK    2  A    between atoms: C_4  and  C_5
REMARK    3  A    between atoms: C_10  and  N_11
REMARK    4  A    between atoms: N_11  and  C_12
REMARK    5  A    between atoms: C_12  and  C_13
REMARK    6  A    between atoms: C_17  and  C_18
REMARK                            x       y       z     vdW  Elec       q    Type
REMARK                         _______ _______ _______ _____ _____    ______ ____
ROOT
ATOM      1  N   UNL     1      43.946   4.964   9.665  0.00  0.00    +0.000 N 
ATOM      2  H   UNL     1      43.122   5.220   9.142  0.00  0.00    +0.000 HD
ENDROOT
BRANCH   1   9
ATOM      3  C   UNL     1      43.979   2.039  10.098  0.00  0.00    +0.000 C 
ATOM      4  C   UNL     1      44.900   2.784   9.174  0.00  0.00    +0.000 A 
ATOM      5  C   UNL     1      45.810   2.031   8.411  0.00  0.00    +0.000 A 
ATOM      6  C   UNL     1      46.682   2.651   7.524  0.00  0.00    +0.000 A 
ATOM      7  C   UNL     1      46.606   4.024   7.437  0.00  0.00    +0.000 A 
ATOM      8  N   UNL     1      45.737   4.787   8.162  0.00  0.00    +0.000 NA
ATOM      9  C   UNL     1      44.897   4.179   9.035  0.00  0.00    +0.000 A 
BRANCH   6  10
ATOM     10  C   UNL     1      47.629   1.818   6.740  0.00  0.00    +0.000 C 
ATOM     11  N   UNL     1      48.787   2.377   6.282  0.00  0.00    +0.000 N 
ATOM     12  O   UNL     1      47.394   0.646   6.512  0.00  0.00    +0.000 OA
ATOM     13  H   UNL     1      49.087   3.332   6.417  0.00  0.00    +0.000 HD
ATOM     14  H   UNL     1      49.404   1.766   5.760  0.00  0.00    +0.000 HD
ENDBRANCH   6  10
ENDBRANCH   1   9
BRANCH   1  15
ATOM     15  C   UNL     1      43.755   4.869  11.112  0.00  0.00    +0.000 C 
BRANCH  15  16
ATOM     16  C   UNL     1      44.986   5.138  11.975  0.00  0.00    +0.000 A 
ATOM     17  C   UNL     1      45.483   4.145  12.809  0.00  0.00    +0.000 A 
ATOM     18  C   UNL     1      46.664   4.367  13.511  0.00  0.00    +0.000 A 
ATOM     19  C   UNL     1      47.337   5.573  13.348  0.00  0.00    +0.000 A 
ATOM     20  C   UNL     1      46.816   6.528  12.471  0.00  0.00    +0.000 A 
ATOM     21  N   UNL     1      45.642   6.322  11.806  0.00  0.00    +0.000 NA
BRANCH  20  22
ATOM     22  C   UNL     1      47.523   7.792  12.173  0.00  0.00    +0.000 A 
ATOM     23  C   UNL     1      48.871   7.812  11.755  0.00  0.00    +0.000 A 
ATOM     24  C   UNL     1      49.521   9.011  11.446  0.00  0.00    +0.000 A 
ATOM     25  C   UNL     1      48.837  10.217  11.542  0.00  0.00    +0.000 A 
ATOM     26  C   UNL     1      47.506  10.226  11.948  0.00  0.00    +0.000 A 
ATOM     27  C   UNL     1      46.859   9.025  12.259  0.00  0.00    +0.000 A 
ENDBRANCH  20  22
ENDBRANCH  15  16
ENDBRANCH   1  15
TORSDOF 5
ENDMDL
MODEL 2
REMARK VINA RESULT:    -8.061      2.532      6.478
REMARK INTER + INTRA:         -10.910
REMARK INTER:                  -9.932
REMARK INTRA:                  -0.979
REMARK UNBOUND:                -0.493
REMARK  Name = 
REMARK  6 active torsions:
REMARK  status: ('A' for Active; 'I' for Inactive)
REMARK    1  A    between atoms: C_1  and  C_2
REMARK    2  A    between atoms: C_4  and  C_5
REMARK    3  A    between atoms: C_10  and  N_11
REMARK    4  A    between atoms: N_11  and  C_12
REMARK    5  A    between atoms: C_12  and  C_13
REMARK    6  A    between atoms: C_17  and  C_18
REMARK                            x       y       z     vdW  Elec       q    Type
REMARK                         _______ _______ _______ _____ _____    ______ ____
ROOT
ATOM      1  N   UNL     1      44.730   6.999  12.719  0.00  0.00    +0.000 N 
ATOM      2  H   UNL     1      44.175   7.557  13.351  0.00  0.00    +0.000 HD
ENDROOT
BRANCH   1   9
ATOM      3  C   UNL     1      46.589   4.917  13.699  0.00  0.00    +0.000 C 
ATOM      4  C   UNL     1      47.003   6.228  13.092  0.00  0.00    +0.000 A 
ATOM      5  C   UNL     1      48.380   6.463  12.922  0.00  0.00    +0.000 A 
ATOM      6  C   UNL     1      48.837   7.646  12.353  0.00  0.00    +0.000 A 
ATOM      7  C   UNL     1      47.881   8.561  11.973  0.00  0.00    +0.000 A 
ATOM      8  N   UNL     1      46.538   8.368  12.124  0.00  0.00    +0.000 NA
ATOM      9  C   UNL     1      46.097   7.219  12.690  0.00  0.00    +0.000 A 
BRANCH   6  10
ATOM     10  C   UNL     1      50.299   7.853  12.194  0.00  0.00    +0.000 C 
ATOM     11  N   UNL     1      51.100   7.821  13.299  0.00  0.00    +0.000 N 
ATOM     12  O   UNL     1      50.792   8.039  11.097  0.00  0.00    +0.000 OA
ATOM     13  H   UNL     1      50.803   7.669  14.252  0.00  0.00    +0.000 HD
ATOM     14  H   UNL     1      52.091   7.959  13.139  0.00  0.00    +0.000 HD
ENDBRANCH   6  10
ENDBRANCH   1   9
BRANCH   1  15
ATOM     15  C   UNL     1      44.032   6.548  11.516  0.00  0.00    +0.000 C 
BRANCH  15  16
ATOM     16  C   UNL     1      44.086   5.049  11.225  0.00  0.00    +0.000 A 
ATOM     17  C   UNL     1      43.273   4.173  11.933  0.00  0.00    +0.000 A 
ATOM     18  C   UNL     1      43.256   2.825  11.588  0.00  0.00    +0.000 A 
ATOM     19  C   UNL     1      44.039   2.382  10.526  0.00  0.00    +0.000 A 
ATOM     20  C   UNL     1      44.814   3.308   9.823  0.00  0.00    +0.000 A 
ATOM     21  N   UNL     1      44.853   4.625  10.181  0.00  0.00    +0.000 NA
BRANCH  20  22
ATOM     22  C   UNL     1      45.597   2.933   8.626  0.00  0.00    +0.000 A 
ATOM     23  C   UNL     1      45.965   3.882   7.649  0.00  0.00    +0.000 A 
ATOM     24  C   UNL     1      46.732   3.523   6.536  0.00  0.00    +0.000 A 
ATOM     25  C   UNL     1      47.153   2.207   6.378  0.00  0.00    +0.000 A 
ATOM     26  C   UNL     1      46.806   1.252   7.328  0.00  0.00    +0.000 A 
ATOM     27  C   UNL     1      46.037   1.614   8.439  0.00  0.00    +0.000 A 
ENDBRANCH  20  22
ENDBRANCH  15  16
ENDBRANCH   1  15
TORSDOF 5
ENDMDL
MODEL 3
REMARK VINA RESULT:    -7.469      4.930      6.996
REMARK INTER + INTRA:         -10.145
REMARK INTER:                  -9.598
REMARK INTRA:                  -0.547
REMARK UNBOUND:                -0.493
REMARK  Name = 
REMARK  6 active torsions:
REMARK  status: ('A' for Active; 'I' for Inactive)
REMARK    1  A    between atoms: C_1  and  C_2
REMARK    2  A    between atoms: C_4  and  C_5
REMARK    3  A    between atoms: C_10  and  N_11
REMARK    4  A    between atoms: N_11  and  C_12
REMARK    5  A    between atoms: C_12  and  C_13
REMARK    6  A    between atoms: C_17  and  C_18
REMARK                            x       y       z     vdW  Elec       q    Type
REMARK                         _______ _______ _______ _____ _____    ______ ____
ROOT
ATOM      1  N   UNL     1      46.928   5.184  14.656  0.00  0.00    +0.000 N 
ATOM      2  H   UNL     1      46.941   6.156  14.924  0.00  0.00    +0.000 HD
ENDROOT
BRANCH   1   9
ATOM      3  C   UNL     1      46.336   7.207  12.581  0.00  0.00    +0.000 C 
ATOM      4  C   UNL     1      45.960   5.754  12.502  0.00  0.00    +0.000 A 
ATOM      5  C   UNL     1      45.329   5.306  11.327  0.00  0.00    +0.000 A 
ATOM      6  C   UNL     1      44.968   3.972  11.175  0.00  0.00    +0.000 A 
ATOM      7  C   UNL     1      45.256   3.129  12.226  0.00  0.00    +0.000 A 
ATOM      8  N   UNL     1      45.864   3.528  13.380  0.00  0.00    +0.000 NA
ATOM      9  C   UNL     1      46.205   4.832  13.528  0.00  0.00    +0.000 A 
BRANCH   6  10
ATOM     10  C   UNL     1      44.301   3.542   9.920  0.00  0.00    +0.000 C 
ATOM     11  N   UNL     1      44.033   4.471   8.956  0.00  0.00    +0.000 N 
ATOM     12  O   UNL     1      44.004   2.377   9.734  0.00  0.00    +0.000 OA
ATOM     13  H   UNL     1      44.240   5.458   9.000  0.00  0.00    +0.000 HD
ATOM     14  H   UNL     1      43.585   4.128   8.115  0.00  0.00    +0.000 HD
ENDBRANCH   6  10
ENDBRANCH   1   9
BRANCH   1  15
ATOM     15  C   UNL     1      47.080   4.235  15.759  0.00  0.00    +0.000 C 
BRANCH  15  16
ATOM     16  C   UNL     1      48.173   4.552  16.777  0.00  0.00    +0.000 A 
ATOM     17  C   UNL     1      47.946   5.496  17.771  0.00  0.00    +0.000 A 
ATOM     18  C   UNL     1      48.909   5.701  18.754  0.00  0.00    +0.000 A 
ATOM     19  C   UNL     1      50.075   4.940  18.736  0.00  0.00    +0.000 A 
ATOM     20  C   UNL     1      50.242   3.979  17.736  0.00  0.00    +0.000 A 
ATOM     21  N   UNL     1      49.310   3.799  16.754  0.00  0.00    +0.000 NA
BRANCH  20  22
ATOM     22  C   UNL     1      51.406   3.069  17.705  0.00  0.00    +0.000 A 
ATOM     23  C   UNL     1      52.708   3.513  18.023  0.00  0.00    +0.000 A 
ATOM     24  C   UNL     1      53.799   2.638  18.020  0.00  0.00    +0.000 A 
ATOM     25  C   UNL     1      53.612   1.296  17.706  0.00  0.00    +0.000 A 
ATOM     26  C   UNL     1      52.339   0.831  17.392  0.00  0.00    +0.000 A 
ATOM     27  C   UNL     1      51.251   1.711  17.393  0.00  0.00    +0.000 A 
ENDBRANCH  20  22
ENDBRANCH  15  16
ENDBRANCH   1  15
TORSDOF 5
ENDMDL
MODEL 4
REMARK VINA RESULT:    -7.447      1.286      2.060
REMARK INTER + INTRA:         -10.117
REMARK INTER:                  -9.103
REMARK INTRA:                  -1.014
REMARK UNBOUND:                -0.493
REMARK  Name = 
REMARK  6 active torsions:
REMARK  status: ('A' for Active; 'I' for Inactive)
REMARK    1  A    between atoms: C_1  and  C_2
REMARK    2  A    between atoms: C_4  and  C_5
REMARK    3  A    between atoms: C_10  and  N_11
REMARK    4  A    between atoms: N_11  and  C_12
REMARK    5  A    between atoms: C_12  and  C_13
REMARK    6  A    between atoms: C_17  and  C_18
REMARK                            x       y       z     vdW  Elec       q    Type
REMARK                         _______ _______ _______ _____ _____    ______ ____
ROOT
ATOM      1  N   UNL     1      43.710   3.815  10.433  0.00  0.00    +0.000 N 
ATOM      2  H   UNL     1      42.739   3.919  10.183  0.00  0.00    +0.000 HD
ENDROOT
BRANCH   1   9
ATOM      3  C   UNL     1      45.630   5.606   9.072  0.00  0.00    +0.000 C 
ATOM      4  C   UNL     1      45.536   4.122   8.860  0.00  0.00    +0.000 A 
ATOM      5  C   UNL     1      46.468   3.525   7.992  0.00  0.00    +0.000 A 
ATOM      6  C   UNL     1      46.453   2.154   7.761  0.00  0.00    +0.000 A 
ATOM      7  C   UNL     1      45.486   1.426   8.418  0.00  0.00    +0.000 A 
ATOM      8  N   UNL     1      44.565   1.970   9.264  0.00  0.00    +0.000 NA
ATOM      9  C   UNL     1      44.576   3.308   9.478  0.00  0.00    +0.000 A 
BRANCH   6  10
ATOM     10  C   UNL     1      47.455   1.567   6.835  0.00  0.00    +0.000 C 
ATOM     11  N   UNL     1      48.519   2.323   6.438  0.00  0.00    +0.000 N 
ATOM     12  O   UNL     1      47.346   0.421   6.437  0.00  0.00    +0.000 OA
ATOM     13  H   UNL     1      48.712   3.277   6.708  0.00  0.00    +0.000 HD
ATOM     14  H   UNL     1      49.178   1.875   5.813  0.00  0.00    +0.000 HD
ENDBRANCH   6  10
ENDBRANCH   1   9
BRANCH   1  15
ATOM     15  C   UNL     1      43.960   3.574  11.854  0.00  0.00    +0.000 C 
BRANCH  15  16
ATOM     16  C   UNL     1      45.046   4.430  12.504  0.00  0.00    +0.000 A 
ATOM     17  C   UNL     1      46.089   3.825  13.194  0.00  0.00    +0.000 A 
ATOM     18  C   UNL     1      47.126   4.609  13.691  0.00  0.00    +0.000 A 
ATOM     19  C   UNL     1      47.110   5.982  13.470  0.00  0.00    +0.000 A 
ATOM     20  C   UNL     1      46.057   6.539  12.740  0.00  0.00    +0.000 A 
ATOM     21  N   UNL     1      45.024   5.774  12.278  0.00  0.00    +0.000 NA
BRANCH  20  22
ATOM     22  C   UNL     1      46.018   7.973  12.382  0.00  0.00    +0.000 A 
ATOM     23  C   UNL     1      44.854   8.581  11.865  0.00  0.00    +0.000 A 
ATOM     24  C   UNL     1      44.818   9.945  11.558  0.00  0.00    +0.000 A 
ATOM     25  C   UNL     1      45.943  10.734  11.768  0.00  0.00    +0.000 A 
ATOM     26  C   UNL     1      47.103  10.161  12.280  0.00  0.00    +0.000 A 
ATOM     27  C   UNL     1      47.136   8.795  12.583  0.00  0.00    +0.000 A 
ENDBRANCH  20  22
ENDBRANCH  15  16
ENDBRANCH   1  15
TORSDOF 5
ENDMDL
MODEL 5
REMARK VINA RESULT:    -7.430      3.024      7.055
REMARK INTER + INTRA:         -10.095
REMARK INTER:                  -9.435
REMARK INTRA:                  -0.659
REMARK UNBOUND:                -0.493
REMARK  Name = 
REMARK  6 active torsions:
REMARK  status: ('A' for Active; 'I' for Inactive)
REMARK    1  A    between atoms: C_1  and  C_2
REMARK    2  A    between atoms: C_4  and  C_5
REMARK    3  A    between atoms: C_10  and  N_11
REMARK    4  A    between atoms: N_11  and  C_12
REMARK    5  A    between atoms: C_12  and  C_13
REMARK    6  A    between atoms: C_17  and  C_18
REMARK                            x       y       z     vdW  Elec       q    Type
REMARK                         _______ _______ _______ _____ _____    ______ ____
ROOT
ATOM      1  N   UNL     1      45.049   7.122  10.879  0.00  0.00    +0.000 N 
ATOM      2  H   UNL     1      45.315   7.173   9.908  0.00  0.00    +0.000 HD
ENDROOT
BRANCH   1   9
ATOM      3  C   UNL     1      45.277   9.589  12.494  0.00  0.00    +0.000 C 
ATOM      4  C   UNL     1      46.143   8.371  12.653  0.00  0.00    +0.000 A 
ATOM      5  C   UNL     1      47.098   8.378  13.685  0.00  0.00    +0.000 A 
ATOM      6  C   UNL     1      47.923   7.281  13.902  0.00  0.00    +0.000 A 
ATOM      7  C   UNL     1      47.755   6.204  13.060  0.00  0.00    +0.000 A 
ATOM      8  N   UNL     1      46.841   6.162  12.048  0.00  0.00    +0.000 NA
ATOM      9  C   UNL     1      46.047   7.239  11.832  0.00  0.00    +0.000 A 
BRANCH   6  10
ATOM     10  C   UNL     1      48.919   7.332  15.002  0.00  0.00    +0.000 C 
ATOM     11  N   UNL     1      48.493   7.219  16.294  0.00  0.00    +0.000 N 
ATOM     12  O   UNL     1      50.107   7.461  14.768  0.00  0.00    +0.000 OA
ATOM     13  H   UNL     1      47.538   7.103  16.602  0.00  0.00    +0.000 HD
ATOM     14  H   UNL     1      49.211   7.252  17.007  0.00  0.00    +0.000 HD
ENDBRANCH   6  10
ENDBRANCH   1   9
BRANCH   1  15
ATOM     15  C   UNL     1      43.861   6.314  11.154  0.00  0.00    +0.000 C 
BRANCH  15  16
ATOM     16  C   UNL     1      44.000   4.810  10.929  0.00  0.00    +0.000 A 
ATOM     17  C   UNL     1      43.229   3.921  11.668  0.00  0.00    +0.000 A 
ATOM     18  C   UNL     1      43.289   2.560  11.381  0.00  0.00    +0.000 A 
ATOM     19  C   UNL     1      44.104   2.117  10.344  0.00  0.00    +0.000 A 
ATOM     20  C   UNL     1      44.833   3.053   9.607  0.00  0.00    +0.000 A 
ATOM     21  N   UNL     1      44.797   4.384   9.908  0.00  0.00    +0.000 NA
BRANCH  20  22
ATOM     22  C   UNL     1      45.645   2.671   8.432  0.00  0.00    +0.000 A 
ATOM     23  C   UNL     1      46.222   1.388   8.311  0.00  0.00    +0.000 A 
ATOM     24  C   UNL     1      46.964   1.025   7.182  0.00  0.00    +0.000 A 
ATOM     25  C   UNL     1      47.141   1.935   6.146  0.00  0.00    +0.000 A 
ATOM     26  C   UNL     1      46.581   3.205   6.239  0.00  0.00    +0.000 A 
ATOM     27  C   UNL     1      45.842   3.565   7.371  0.00  0.00    +0.000 A 
ENDBRANCH  20  22
ENDBRANCH  15  16
ENDBRANCH   1  15
TORSDOF 5
ENDMDL
MODEL 6
REMARK VINA RESULT:    -7.241      2.054      2.829
REMARK INTER + INTRA:          -9.850
REMARK INTER:                  -9.461
REMARK INTRA:                  -0.389
REMARK UNBOUND:                -0.493
REMARK  Name = 
REMARK  6 active torsions:
REMARK  status: ('A' for Active; 'I' for Inactive)
REMARK    1  A    between atoms: C_1  and  C_2
REMARK    2  A    between atoms: C_4  and  C_5
REMARK    3  A    between atoms: C_10  and  N_11
REMARK    4  A    between atoms: N_11  and  C_12
REMARK    5  A    between atoms: C_12  and  C_13
REMARK    6  A    between atoms: C_17  and  C_18
REMARK                            x       y       z     vdW  Elec       q    Type
REMARK                         _______ _______ _______ _____ _____    ______ ____
ROOT
ATOM      1  N   UNL     1      44.195   5.133   9.732  0.00  0.00    +0.000 N 
ATOM      2  H   UNL     1      43.289   5.301   9.322  0.00  0.00    +0.000 HD
ENDROOT
BRANCH   1   9
ATOM      3  C   UNL     1      43.961   2.285  10.495  0.00  0.00    +0.000 C 
ATOM      4  C   UNL     1      44.882   2.821   9.435  0.00  0.00    +0.000 A 
ATOM      5  C   UNL     1      45.651   1.896   8.708  0.00  0.00    +0.000 A 
ATOM      6  C   UNL     1      46.513   2.317   7.702  0.00  0.00    +0.000 A 
ATOM      7  C   UNL     1      46.571   3.673   7.464  0.00  0.00    +0.000 A 
ATOM      8  N   UNL     1      45.841   4.600   8.150  0.00  0.00    +0.000 NA
ATOM      9  C   UNL     1      45.011   4.185   9.137  0.00  0.00    +0.000 A 
BRANCH   6  10
ATOM     10  C   UNL     1      47.309   1.306   6.961  0.00  0.00    +0.000 C 
ATOM     11  N   UNL     1      46.987  -0.015   7.083  0.00  0.00    +0.000 N 
ATOM     12  O   UNL     1      48.232   1.638   6.240  0.00  0.00    +0.000 OA
ATOM     13  H   UNL     1      46.242  -0.402   7.644  0.00  0.00    +0.000 HD
ATOM     14  H   UNL     1      47.554  -0.665   6.552  0.00  0.00    +0.000 HD
ENDBRANCH   6  10
ENDBRANCH   1   9
BRANCH   1  15
ATOM     15  C   UNL     1      44.275   5.373  11.173  0.00  0.00    +0.000 C 
BRANCH  15  16
ATOM     16  C   UNL     1      45.166   6.531  11.616  0.00  0.00    +0.000 A 
ATOM     17  C   UNL     1      46.491   6.298  11.963  0.00  0.00    +0.000 A 
ATOM     18  C   UNL     1      47.320   7.374  12.265  0.00  0.00    +0.000 A 
ATOM     19  C   UNL     1      46.812   8.668  12.192  0.00  0.00    +0.000 A 
ATOM     20  C   UNL     1      45.482   8.854  11.804  0.00  0.00    +0.000 A 
ATOM     21  N   UNL     1      44.661   7.796  11.538  0.00  0.00    +0.000 NA
BRANCH  20  22
ATOM     22  C   UNL     1      44.899  10.198  11.612  0.00  0.00    +0.000 A 
ATOM     23  C   UNL     1      45.681  11.370  11.703  0.00  0.00    +0.000 A 
ATOM     24  C   UNL     1      45.125  12.636  11.490  0.00  0.00    +0.000 A 
ATOM     25  C   UNL     1      43.776  12.759  11.175  0.00  0.00    +0.000 A 
ATOM     26  C   UNL     1      42.984  11.619  11.076  0.00  0.00    +0.000 A 
ATOM     27  C   UNL     1      43.542  10.355  11.293  0.00  0.00    +0.000 A 
ENDBRANCH  20  22
ENDBRANCH  15  16
ENDBRANCH   1  15
TORSDOF 5
ENDMDL
MODEL 7
REMARK VINA RESULT:    -7.116      4.944      7.404
REMARK INTER + INTRA:          -9.689
REMARK INTER:                  -8.782
REMARK INTRA:                  -0.907
REMARK UNBOUND:                -0.493
REMARK  Name = 
REMARK  6 active torsions:
REMARK  status: ('A' for Active; 'I' for Inactive)
REMARK    1  A    between atoms: C_1  and  C_2
REMARK    2  A    between atoms: C_4  and  C_5
REMARK    3  A    between atoms: C_10  and  N_11
REMARK    4  A    between atoms: N_11  and  C_12
REMARK    5  A    between atoms: C_12  and  C_13
REMARK    6  A    between atoms: C_17  and  C_18
REMARK                            x       y       z     vdW  Elec       q    Type
REMARK                         _______ _______ _______ _____ _____    ______ ____
ROOT
ATOM      1  N   UNL     1      48.350   6.109  14.097  0.00  0.00    +0.000 N 
ATOM      2  H   UNL     1      49.159   6.381  13.560  0.00  0.00    +0.000 HD
ENDROOT
BRANCH   1   9
ATOM      3  C   UNL     1      47.002   3.516  13.638  0.00  0.00    +0.000 C 
ATOM      4  C   UNL     1      46.437   4.859  13.272  0.00  0.00    +0.000 A 
ATOM      5  C   UNL     1      45.143   4.895  12.720  0.00  0.00    +0.000 A 
ATOM      6  C   UNL     1      44.549   6.103  12.372  0.00  0.00    +0.000 A 
ATOM      7  C   UNL     1      45.289   7.243  12.592  0.00  0.00    +0.000 A 
ATOM      8  N   UNL     1      46.546   7.247  13.122  0.00  0.00    +0.000 NA
ATOM      9  C   UNL     1      47.126   6.067  13.449  0.00  0.00    +0.000 A 
BRANCH   6  10
ATOM     10  C   UNL     1      43.182   6.095  11.790  0.00  0.00    +0.000 C 
ATOM     11  N   UNL     1      42.736   7.198  11.121  0.00  0.00    +0.000 N 
ATOM     12  O   UNL     1      42.463   5.118  11.891  0.00  0.00    +0.000 OA
ATOM     13  H   UNL     1      43.246   8.056  10.972  0.00  0.00    +0.000 HD
ATOM     14  H   UNL     1      41.801   7.140  10.736  0.00  0.00    +0.000 HD
ENDBRANCH   6  10
ENDBRANCH   1   9
BRANCH   1  15
ATOM     15  C   UNL     1      48.417   6.428  15.523  0.00  0.00    +0.000 C 
BRANCH  15  16
ATOM     16  C   UNL     1      48.480   5.239  16.479  0.00  0.00    +0.000 A 
ATOM     17  C   UNL     1      47.309   4.695  16.993  0.00  0.00    +0.000 A 
ATOM     18  C   UNL     1      47.374   3.549  17.779  0.00  0.00    +0.000 A 
ATOM     19  C   UNL     1      48.608   2.955  18.019  0.00  0.00    +0.000 A 
ATOM     20  C   UNL     1      49.754   3.518  17.451  0.00  0.00    +0.000 A 
ATOM     21  N   UNL     1      49.694   4.660  16.705  0.00  0.00    +0.000 NA
BRANCH  20  22
ATOM     22  C   UNL     1      51.087   2.892  17.581  0.00  0.00    +0.000 A 
ATOM     23  C   UNL     1      52.224   3.634  17.966  0.00  0.00    +0.000 A 
ATOM     24  C   UNL     1      53.476   3.027  18.116  0.00  0.00    +0.000 A 
ATOM     25  C   UNL     1      53.616   1.662  17.890  0.00  0.00    +0.000 A 
ATOM     26  C   UNL     1      52.511   0.907  17.513  0.00  0.00    +0.000 A 
ATOM     27  C   UNL     1      51.262   1.518  17.362  0.00  0.00    +0.000 A 
ENDBRANCH  20  22
ENDBRANCH  15  16
ENDBRANCH   1  15
TORSDOF 5
ENDMDL
MODEL 8
REMARK VINA RESULT:    -7.030      5.036      8.099
REMARK INTER + INTRA:          -9.578
REMARK INTER:                  -8.808
REMARK INTRA:                  -0.771
REMARK UNBOUND:                -0.493
REMARK  Name = 
REMARK  6 active torsions:
REMARK  status: ('A' for Active; 'I' for Inactive)
REMARK    1  A    between atoms: C_1  and  C_2
REMARK    2  A    between atoms: C_4  and  C_5
REMARK    3  A    between atoms: C_10  and  N_11
REMARK    4  A    between atoms: N_11  and  C_12
REMARK    5  A    between atoms: C_12  and  C_13
REMARK    6  A    between atoms: C_17  and  C_18
REMARK                            x       y       z     vdW  Elec       q    Type
REMARK                         _______ _______ _______ _____ _____    ______ ____
ROOT
ATOM      1  N   UNL     1      48.594   5.833  16.757  0.00  0.00    +0.000 N 
ATOM      2  H   UNL     1      47.919   6.142  17.440  0.00  0.00    +0.000 HD
ENDROOT
BRANCH   1   9
ATOM      3  C   UNL     1      47.409   3.140  17.064  0.00  0.00    +0.000 C 
ATOM      4  C   UNL     1      48.874   3.456  17.176  0.00  0.00    +0.000 A 
ATOM      5  C   UNL     1      49.759   2.384  17.386  0.00  0.00    +0.000 A 
ATOM      6  C   UNL     1      51.129   2.598  17.484  0.00  0.00    +0.000 A 
ATOM      7  C   UNL     1      51.563   3.900  17.368  0.00  0.00    +0.000 A 
ATOM      8  N   UNL     1      50.734   4.965  17.166  0.00  0.00    +0.000 NA
ATOM      9  C   UNL     1      49.398   4.753  17.083  0.00  0.00    +0.000 A 
BRANCH   6  10
ATOM     10  C   UNL     1      52.028   1.437  17.708  0.00  0.00    +0.000 C 
ATOM     11  N   UNL     1      51.493   0.251  18.121  0.00  0.00    +0.000 N 
ATOM     12  O   UNL     1      53.227   1.525  17.518  0.00  0.00    +0.000 OA
ATOM     13  H   UNL     1      50.518   0.063  18.303  0.00  0.00    +0.000 HD
ATOM     14  H   UNL     1      52.146  -0.513  18.252  0.00  0.00    +0.000 HD
ENDBRANCH   6  10
ENDBRANCH   1   9
BRANCH   1  15
ATOM     15  C   UNL     1      49.092   6.877  15.862  0.00  0.00    +0.000 C 
BRANCH  15  16
ATOM     16  C   UNL     1      48.483   6.912  14.461  0.00  0.00    +0.000 A 
ATOM     17  C   UNL     1      49.174   7.513  13.416  0.00  0.00    +0.000 A 
ATOM     18  C   UNL     1      48.657   7.447  12.126  0.00  0.00    +0.000 A 
ATOM     19  C   UNL     1      47.467   6.762  11.902  0.00  0.00    +0.000 A 
ATOM     20  C   UNL     1      46.827   6.145  12.979  0.00  0.00    +0.000 A 
ATOM     21  N   UNL     1      47.318   6.235  14.250  0.00  0.00    +0.000 NA
BRANCH  20  22
ATOM     22  C   UNL     1      45.612   5.320  12.806  0.00  0.00    +0.000 A 
ATOM     23  C   UNL     1      44.317   5.872  12.905  0.00  0.00    +0.000 A 
ATOM     24  C   UNL     1      43.173   5.090  12.709  0.00  0.00    +0.000 A 
ATOM     25  C   UNL     1      43.300   3.740  12.404  0.00  0.00    +0.000 A 
ATOM     26  C   UNL     1      44.565   3.171  12.298  0.00  0.00    +0.000 A 
ATOM     27  C   UNL     1      45.706   3.956  12.497  0.00  0.00    +0.000 A 
ENDBRANCH  20  22
ENDBRANCH  15  16
ENDBRANCH   1  15
TORSDOF 5
ENDMDL
MODEL 9
REMARK VINA RESULT:    -6.862      4.903      8.179
REMARK INTER + INTRA:          -9.360
REMARK INTER:                  -8.801
REMARK INTRA:                  -0.560
REMARK UNBOUND:                -0.493
REMARK  Name = 
REMARK  6 active torsions:
REMARK  status: ('A' for Active; 'I' for Inactive)
REMARK    1  A    between atoms: C_1  and  C_2
REMARK    2  A    between atoms: C_4  and  C_5
REMARK    3  A    between atoms: C_10  and  N_11
REMARK    4  A    between atoms: N_11  and  C_12
REMARK    5  A    between atoms: C_12  and  C_13
REMARK    6  A    between atoms: C_17  and  C_18
REMARK                            x       y       z     vdW  Elec       q    Type
REMARK                         _______ _______ _______ _____ _____    ______ ____
ROOT
ATOM      1  N   UNL     1      47.688   5.778  15.454  0.00  0.00    +0.000 N 
ATOM      2  H   UNL     1      46.772   5.955  15.837  0.00  0.00    +0.000 HD
ENDROOT
BRANCH   1   9
ATOM      3  C   UNL     1      47.323   3.372  17.135  0.00  0.00    +0.000 C 
ATOM      4  C   UNL     1      48.569   4.211  17.090  0.00  0.00    +0.000 A 
ATOM      5  C   UNL     1      49.668   3.792  17.860  0.00  0.00    +0.000 A 
ATOM      6  C   UNL     1      50.859   4.510  17.855  0.00  0.00    +0.000 A 
ATOM      7  C   UNL     1      50.898   5.638  17.066  0.00  0.00    +0.000 A 
ATOM      8  N   UNL     1      49.852   6.076  16.308  0.00  0.00    +0.000 NA
ATOM      9  C   UNL     1      48.689   5.380  16.325  0.00  0.00    +0.000 A 
BRANCH   6  10
ATOM     10  C   UNL     1      51.994   4.033  18.685  0.00  0.00    +0.000 C 
ATOM     11  N   UNL     1      52.338   2.712  18.647  0.00  0.00    +0.000 N 
ATOM     12  O   UNL     1      52.626   4.801  19.386  0.00  0.00    +0.000 OA
ATOM     13  H   UNL     1      51.890   1.991  18.101  0.00  0.00    +0.000 HD
ATOM     14  H   UNL     1      53.123   2.437  19.225  0.00  0.00    +0.000 HD
ENDBRANCH   6  10
ENDBRANCH   1   9
BRANCH   1  15
ATOM     15  C   UNL     1      48.018   6.551  14.257  0.00  0.00    +0.000 C 
BRANCH  15  16
ATOM     16  C   UNL     1      46.870   6.815  13.286  0.00  0.00    +0.000 A 
ATOM     17  C   UNL     1      46.311   8.084  13.197  0.00  0.00    +0.000 A 
ATOM     18  C   UNL     1      45.337   8.338  12.236  0.00  0.00    +0.000 A 
ATOM     19  C   UNL     1      44.955   7.321  11.367  0.00  0.00    +0.000 A 
ATOM     20  C   UNL     1      45.571   6.072  11.472  0.00  0.00    +0.000 A 
ATOM     21  N   UNL     1      46.505   5.814  12.435  0.00  0.00    +0.000 NA
BRANCH  20  22
ATOM     22  C   UNL     1      45.288   4.971  10.526  0.00  0.00    +0.000 A 
ATOM     23  C   UNL     1      44.625   3.793  10.930  0.00  0.00    +0.000 A 
ATOM     24  C   UNL     1      44.335   2.770  10.021  0.00  0.00    +0.000 A 
ATOM     25  C   UNL     1      44.696   2.906   8.685  0.00  0.00    +0.000 A 
ATOM     26  C   UNL     1      45.349   4.059   8.260  0.00  0.00    +0.000 A 
ATOM     27  C   UNL     1      45.640   5.078   9.173  0.00  0.00    +0.000 A 
ENDBRANCH  20  22
ENDBRANCH  15  16
ENDBRANCH   1  15
TORSDOF 5
ENDMDL
