MODEL 1
REMARK VINA RESULT:    -8.061      0.000      0.000
REMARK INTER + INTRA:         -11.478
REMARK INTER:                 -10.417
REMARK INTRA:                  -1.061
REMARK UNBOUND:                -1.061
REMARK  Name = 
REMARK  7 active torsions:
REMARK  status: ('A' for Active; 'I' for Inactive)
REMARK    1  A    between atoms: C_1  and  C_2
REMARK    2  A    between atoms: N_4  and  C_5
REMARK    3  A    between atoms: C_9  and  C_10
REMARK    4  A    between atoms: C_10  and  C_11
REMARK    5  A    between atoms: C_11  and  N_12
REMARK    6  A    between atoms: C_16  and  C_17
REMARK    7  A    between atoms: C_24  and  C_25
REMARK                            x       y       z     vdW  Elec       q    Type
REMARK                         _______ _______ _______ _____ _____    ______ ____
ROOT
ATOM      1  C   UNL     1      43.305   5.378  12.273  0.00  0.00    +0.000 C 
ENDROOT
BRANCH   1   6
ATOM      2  C   UNL     1      46.782   6.625  13.348  0.00  0.00    +0.000 A 
ATOM      3  C   UNL     1      47.351   5.409  13.750  0.00  0.00    +0.000 A 
ATOM      4  C   UNL     1      46.658   4.202  13.647  0.00  0.00    +0.000 A 
ATOM      5  C   UNL     1      45.356   4.180  13.149  0.00  0.00    +0.000 A 
ATOM      6  C   UNL     1      44.745   5.369  12.745  0.00  0.00    +0.000 A 
ATOM      7  C   UNL     1      45.476   6.568  12.837  0.00  0.00    +0.000 A 
BRANCH   2  11
ATOM      8  C   UNL     1      49.888   7.561  11.420  0.00  0.00    +0.000 C 
ATOM      9  C   UNL     1      49.714   8.503  12.611  0.00  0.00    +0.000 C 
ATOM     10  C   UNL     1      48.917   7.872  13.770  0.00  0.00    +0.000 C 
ATOM     11  N   UNL     1      47.484   7.808  13.455  0.00  0.00    +0.000 N 
ATOM     12  C   UNL     1      46.910   9.085  13.004  0.00  0.00    +0.000 C 
ATOM     13  C   UNL     1      47.758   9.671  11.853  0.00  0.00    +0.000 C 
ATOM     14  C   UNL     1      47.279  11.074  11.497  0.00  0.00    +0.000 C 
ATOM     15  O   UNL     1      49.152   9.767  12.203  0.00  0.00    +0.000 OA
ENDBRANCH   2  11
ENDBRANCH   1   6
BRANCH   1  16
ATOM     16  C   UNL     1      43.081   4.530  11.018  0.00  0.00    +0.000 C 
BRANCH  16  17
ATOM     17  N   UNL     1      43.845   5.051   9.872  0.00  0.00    +0.000 N 
ATOM     18  C   UNL     1      44.642   4.052   9.274  0.00  0.00    +0.000 A 
ATOM     19  C   UNL     1      45.424   4.376   8.167  0.00  0.00    +0.000 A 
ATOM     20  C   UNL     1      46.195   3.377   7.559  0.00  0.00    +0.000 A 
ATOM     21  C   UNL     1      46.173   2.077   8.068  0.00  0.00    +0.000 A 
ATOM     22  C   UNL     1      45.367   1.850   9.166  0.00  0.00    +0.000 A 
ATOM     23  N   UNL     1      44.611   2.800   9.764  0.00  0.00    +0.000 NA
ATOM     24  H   UNL     1      44.445   5.832  10.129  0.00  0.00    +0.000 HD
BRANCH  21  25
ATOM     25  C   UNL     1      46.986   1.016   7.433  0.00  0.00    +0.000 C 
ATOM     26  N   UNL     1      48.004   1.367   6.591  0.00  0.00    +0.000 N 
ATOM     27  O   UNL     1      46.756  -0.170   7.651  0.00  0.00    +0.000 OA
ATOM     28  H   UNL     1      48.287   2.304   6.350  0.00  0.00    +0.000 HD
ATOM     29  H   UNL     1      48.536   0.606   6.184  0.00  0.00    +0.000 HD
ENDBRANCH  21  25
ENDBRANCH  16  17
ENDBRANCH   1  16
TORSDOF 5
ENDMDL
MODEL 2
REMARK VINA RESULT:    -7.852      0.974      1.532
REMARK INTER + INTRA:         -11.208
REMARK INTER:                 -10.319
REMARK INTRA:                  -0.889
REMARK UNBOUND:                -1.061
REMARK  Name = 
REMARK  7 active torsions:
REMARK  status: ('A' for Active; 'I' for Inactive)
REMARK    1  A    between atoms: C_1  and  C_2
REMARK    2  A    between atoms: N_4  and  C_5
REMARK    3  A    between atoms: C_9  and  C_10
REMARK    4  A    between atoms: C_10  and  C_11
REMARK    5  A    between atoms: C_11  and  N_12
REMARK    6  A    between atoms: C_16  and  C_17
REMARK    7  A    between atoms: C_24  and  C_25
REMARK                            x       y       z     vdW  Elec       q    Type
REMARK                         _______ _______ _______ _____ _____    ______ ____
ROOT
ATOM      1  C   UNL     1      43.339   5.278  12.237  0.00  0.00    +0.000 C 
ENDROOT
BRANCH   1   6
ATOM      2  C   UNL     1      46.894   6.532  13.005  0.00  0.00    +0.000 A 
ATOM      3  C   UNL     1      47.428   5.375  13.588  0.00  0.00    +0.000 A 
ATOM      4  C   UNL     1      46.685   4.198  13.702  0.00  0.00    +0.000 A 
ATOM      5  C   UNL     1      45.369   4.151  13.247  0.00  0.00    +0.000 A 
ATOM      6  C   UNL     1      44.791   5.283  12.668  0.00  0.00    +0.000 A 
ATOM      7  C   UNL     1      45.571   6.448  12.543  0.00  0.00    +0.000 A 
BRANCH   2  11
ATOM      8  C   UNL     1      49.615   7.652  15.366  0.00  0.00    +0.000 C 
ATOM      9  C   UNL     1      49.186   8.821  14.479  0.00  0.00    +0.000 C 
ATOM     10  C   UNL     1      47.739   8.690  13.966  0.00  0.00    +0.000 C 
ATOM     11  N   UNL     1      47.644   7.686  12.898  0.00  0.00    +0.000 N 
ATOM     12  C   UNL     1      48.615   7.871  11.810  0.00  0.00    +0.000 C 
ATOM     13  C   UNL     1      50.042   8.008  12.388  0.00  0.00    +0.000 C 
ATOM     14  C   UNL     1      51.032   8.376  11.289  0.00  0.00    +0.000 C 
ATOM     15  O   UNL     1      50.119   9.030  13.400  0.00  0.00    +0.000 OA
ENDBRANCH   2  11
ENDBRANCH   1   6
BRANCH   1  16
ATOM     16  C   UNL     1      43.107   4.520  10.926  0.00  0.00    +0.000 C 
BRANCH  16  17
ATOM     17  N   UNL     1      43.956   5.044   9.844  0.00  0.00    +0.000 N 
ATOM     18  C   UNL     1      44.721   4.026   9.236  0.00  0.00    +0.000 A 
ATOM     19  C   UNL     1      45.575   4.351   8.184  0.00  0.00    +0.000 A 
ATOM     20  C   UNL     1      46.315   3.335   7.566  0.00  0.00    +0.000 A 
ATOM     21  C   UNL     1      46.192   2.017   8.011  0.00  0.00    +0.000 A 
ATOM     22  C   UNL     1      45.321   1.791   9.059  0.00  0.00    +0.000 A 
ATOM     23  N   UNL     1      44.593   2.757   9.665  0.00  0.00    +0.000 NA
ATOM     24  H   UNL     1      44.587   5.774  10.165  0.00  0.00    +0.000 HD
BRANCH  21  25
ATOM     25  C   UNL     1      46.972   0.938   7.365  0.00  0.00    +0.000 C 
ATOM     26  N   UNL     1      47.781   1.239   6.306  0.00  0.00    +0.000 N 
ATOM     27  O   UNL     1      46.898  -0.220   7.768  0.00  0.00    +0.000 OA
ATOM     28  H   UNL     1      47.926   2.151   5.902  0.00  0.00    +0.000 HD
ATOM     29  H   UNL     1      48.299   0.469   5.900  0.00  0.00    +0.000 HD
ENDBRANCH  21  25
ENDBRANCH  16  17
ENDBRANCH   1  16
TORSDOF 5
ENDMDL
MODEL 3
REMARK VINA RESULT:    -7.074      3.403      4.455
REMARK INTER + INTRA:         -10.203
REMARK INTER:                  -9.521
REMARK INTRA:                  -0.681
REMARK UNBOUND:                -1.061
REMARK  Name = 
REMARK  7 active torsions:
REMARK  status: ('A' for Active; 'I' for Inactive)
REMARK    1  A    between atoms: C_1  and  C_2
REMARK    2  A    between atoms: N_4  and  C_5
REMARK    3  A    between atoms: C_9  and  C_10
REMARK    4  A    between atoms: C_10  and  C_11
REMARK    5  A    between atoms: C_11  and  N_12
REMARK    6  A    between atoms: C_16  and  C_17
REMARK    7  A    between atoms: C_24  and  C_25
REMARK                            x       y       z     vdW  Elec       q    Type
REMARK                         _______ _______ _______ _____ _____    ______ ____
ROOT
ATOM      1  C   UNL     1      44.170   5.937  11.774  0.00  0.00    +0.000 C 
ENDROOT
BRANCH   1   6
ATOM      2  C   UNL     1      44.616   9.736  11.365  0.00  0.00    +0.000 A 
ATOM      3  C   UNL     1      45.933   9.867  11.828  0.00  0.00    +0.000 A 
ATOM      4  C   UNL     1      46.685   8.762  12.229  0.00  0.00    +0.000 A 
ATOM      5  C   UNL     1      46.131   7.484  12.194  0.00  0.00    +0.000 A 
ATOM      6  C   UNL     1      44.819   7.306  11.749  0.00  0.00    +0.000 A 
ATOM      7  C   UNL     1      44.092   8.435  11.327  0.00  0.00    +0.000 A 
BRANCH   2  11
ATOM      8  C   UNL     1      43.898  10.782   7.812  0.00  0.00    +0.000 C 
ATOM      9  C   UNL     1      43.600  11.941   8.763  0.00  0.00    +0.000 C 
ATOM     10  C   UNL     1      44.414  11.875  10.070  0.00  0.00    +0.000 C 
ATOM     11  N   UNL     1      43.888  10.841  10.970  0.00  0.00    +0.000 N 
ATOM     12  C   UNL     1      42.440  10.931  11.210  0.00  0.00    +0.000 C 
ATOM     13  C   UNL     1      41.683  11.007   9.866  0.00  0.00    +0.000 C 
ATOM     14  C   UNL     1      40.202  11.279  10.101  0.00  0.00    +0.000 C 
ATOM     15  O   UNL     1      42.186  12.059   9.020  0.00  0.00    +0.000 OA
ENDBRANCH   2  11
ENDBRANCH   1   6
BRANCH   1  16
ATOM     16  C   UNL     1      43.877   5.388  10.376  0.00  0.00    +0.000 C 
BRANCH  16  17
ATOM     17  N   UNL     1      43.930   3.917  10.352  0.00  0.00    +0.000 N 
ATOM     18  C   UNL     1      44.826   3.438   9.373  0.00  0.00    +0.000 A 
ATOM     19  C   UNL     1      45.003   2.065   9.224  0.00  0.00    +0.000 A 
ATOM     20  C   UNL     1      45.911   1.592   8.267  0.00  0.00    +0.000 A 
ATOM     21  C   UNL     1      46.622   2.498   7.477  0.00  0.00    +0.000 A 
ATOM     22  C   UNL     1      46.382   3.840   7.697  0.00  0.00    +0.000 A 
ATOM     23  N   UNL     1      45.513   4.317   8.619  0.00  0.00    +0.000 NA
ATOM     24  H   UNL     1      43.018   3.498  10.187  0.00  0.00    +0.000 HD
BRANCH  21  25
ATOM     25  C   UNL     1      47.582   2.008   6.464  0.00  0.00    +0.000 C 
ATOM     26  N   UNL     1      48.745   2.695   6.256  0.00  0.00    +0.000 N 
ATOM     27  O   UNL     1      47.345   0.997   5.808  0.00  0.00    +0.000 OA
ATOM     28  H   UNL     1      49.045   3.526   6.741  0.00  0.00    +0.000 HD
ATOM     29  H   UNL     1      49.374   2.319   5.556  0.00  0.00    +0.000 HD
ENDBRANCH  21  25
ENDBRANCH  16  17
ENDBRANCH   1  16
TORSDOF 5
ENDMDL
MODEL 4
REMARK VINA RESULT:    -7.053      2.049      3.420
REMARK INTER + INTRA:         -10.175
REMARK INTER:                  -9.425
REMARK INTRA:                  -0.750
REMARK UNBOUND:                -1.061
REMARK  Name = 
REMARK  7 active torsions:
REMARK  status: ('A' for Active; 'I' for Inactive)
REMARK    1  A    between atoms: C_1  and  C_2
REMARK    2  A    between atoms: N_4  and  C_5
REMARK    3  A    between atoms: C_9  and  C_10
REMARK    4  A    between atoms: C_10  and  C_11
REMARK    5  A    between atoms: C_11  and  N_12
REMARK    6  A    between atoms: C_16  and  C_17
REMARK    7  A    between atoms: C_24  and  C_25
REMARK                            x       y       z     vdW  Elec       q    Type
REMARK                         _______ _______ _______ _____ _____    ______ ____
ROOT
ATOM      1  C   UNL     1      43.686   5.525  12.142  0.00  0.00    +0.000 C 
ENDROOT
BRANCH   1   6
ATOM      2  C   UNL     1      47.086   6.824  13.387  0.00  0.00    +0.000 A 
ATOM      3  C   UNL     1      47.100   8.077  12.759  0.00  0.00    +0.000 A 
ATOM      4  C   UNL     1      46.030   8.523  11.981  0.00  0.00    +0.000 A 
ATOM      5  C   UNL     1      44.911   7.713  11.795  0.00  0.00    +0.000 A 
ATOM      6  C   UNL     1      44.857   6.452  12.393  0.00  0.00    +0.000 A 
ATOM      7  C   UNL     1      45.940   6.038  13.192  0.00  0.00    +0.000 A 
BRANCH   2  11
ATOM      8  C   UNL     1      48.649   8.699  16.264  0.00  0.00    +0.000 C 
ATOM      9  C   UNL     1      49.582   7.578  15.809  0.00  0.00    +0.000 C 
ATOM     10  C   UNL     1      49.381   7.186  14.332  0.00  0.00    +0.000 C 
ATOM     11  N   UNL     1      48.153   6.401  14.154  0.00  0.00    +0.000 N 
ATOM     12  C   UNL     1      48.035   5.252  15.064  0.00  0.00    +0.000 C 
ATOM     13  C   UNL     1      48.258   5.707  16.524  0.00  0.00    +0.000 C 
ATOM     14  C   UNL     1      48.315   4.502  17.456  0.00  0.00    +0.000 C 
ATOM     15  O   UNL     1      49.492   6.433  16.682  0.00  0.00    +0.000 OA
ENDBRANCH   2  11
ENDBRANCH   1   6
BRANCH   1  16
ATOM     16  C   UNL     1      43.583   5.073  10.682  0.00  0.00    +0.000 C 
BRANCH  16  17
ATOM     17  N   UNL     1      43.868   3.635  10.542  0.00  0.00    +0.000 N 
ATOM     18  C   UNL     1      44.729   3.373   9.456  0.00  0.00    +0.000 A 
ATOM     19  C   UNL     1      45.108   2.059   9.188  0.00  0.00    +0.000 A 
ATOM     20  C   UNL     1      45.983   1.803   8.124  0.00  0.00    +0.000 A 
ATOM     21  C   UNL     1      46.461   2.861   7.349  0.00  0.00    +0.000 A 
ATOM     22  C   UNL     1      46.032   4.129   7.690  0.00  0.00    +0.000 A 
ATOM     23  N   UNL     1      45.192   4.397   8.716  0.00  0.00    +0.000 NA
ATOM     24  H   UNL     1      43.022   3.082  10.424  0.00  0.00    +0.000 HD
BRANCH  21  25
ATOM     25  C   UNL     1      47.385   2.600   6.222  0.00  0.00    +0.000 C 
ATOM     26  N   UNL     1      48.606   2.041   6.475  0.00  0.00    +0.000 N 
ATOM     27  O   UNL     1      47.068   2.881   5.070  0.00  0.00    +0.000 OA
ATOM     28  H   UNL     1      48.963   1.762   7.375  0.00  0.00    +0.000 HD
ATOM     29  H   UNL     1      49.202   1.876   5.672  0.00  0.00    +0.000 HD
ENDBRANCH  21  25
ENDBRANCH  16  17
ENDBRANCH   1  16
TORSDOF 5
ENDMDL
MODEL 5
REMARK VINA RESULT:    -6.954      3.220      7.619
REMARK INTER + INTRA:         -10.047
REMARK INTER:                  -9.152
REMARK INTRA:                  -0.895
REMARK UNBOUND:                -1.061
REMARK  Name = 
REMARK  7 active torsions:
REMARK  status: ('A' for Active; 'I' for Inactive)
REMARK    1  A    between atoms: C_1  and  C_2
REMARK    2  A    between atoms: N_4  and  C_5
REMARK    3  A    between atoms: C_9  and  C_10
REMARK    4  A    between atoms: C_10  and  C_11
REMARK    5  A    between atoms: C_11  and  N_12
REMARK    6  A    between atoms: C_16  and  C_17
REMARK    7  A    between atoms: C_24  and  C_25
REMARK                            x       y       z     vdW  Elec       q    Type
REMARK                         _______ _______ _______ _____ _____    ______ ____
ROOT
ATOM      1  C   UNL     1      48.694   9.089  12.853  0.00  0.00    +0.000 C 
ENDROOT
BRANCH   1   6
ATOM      2  C   UNL     1      45.717   6.935  11.713  0.00  0.00    +0.000 A 
ATOM      3  C   UNL     1      44.758   7.941  11.529  0.00  0.00    +0.000 A 
ATOM      4  C   UNL     1      45.060   9.290  11.726  0.00  0.00    +0.000 A 
ATOM      5  C   UNL     1      46.337   9.672  12.132  0.00  0.00    +0.000 A 
ATOM      6  C   UNL     1      47.322   8.703  12.337  0.00  0.00    +0.000 A 
ATOM      7  C   UNL     1      46.997   7.353  12.108  0.00  0.00    +0.000 A 
BRANCH   2  11
ATOM      8  C   UNL     1      42.254   5.436  11.732  0.00  0.00    +0.000 C 
ATOM      9  C   UNL     1      43.299   4.326  11.845  0.00  0.00    +0.000 C 
ATOM     10  C   UNL     1      44.625   4.806  12.468  0.00  0.00    +0.000 C 
ATOM     11  N   UNL     1      45.401   5.607  11.511  0.00  0.00    +0.000 N 
ATOM     12  C   UNL     1      45.592   4.963  10.203  0.00  0.00    +0.000 C 
ATOM     13  C   UNL     1      44.231   4.494   9.639  0.00  0.00    +0.000 C 
ATOM     14  C   UNL     1      44.433   3.672   8.372  0.00  0.00    +0.000 C 
ATOM     15  O   UNL     1      43.510   3.673  10.577  0.00  0.00    +0.000 OA
ENDBRANCH   2  11
ENDBRANCH   1   6
BRANCH   1  16
ATOM     16  C   UNL     1      49.481   7.899  13.407  0.00  0.00    +0.000 C 
BRANCH  16  17
ATOM     17  N   UNL     1      49.703   8.027  14.857  0.00  0.00    +0.000 N 
ATOM     18  C   UNL     1      49.130   6.956  15.573  0.00  0.00    +0.000 A 
ATOM     19  C   UNL     1      49.256   6.919  16.960  0.00  0.00    +0.000 A 
ATOM     20  C   UNL     1      48.707   5.841  17.668  0.00  0.00    +0.000 A 
ATOM     21  C   UNL     1      48.042   4.825  16.979  0.00  0.00    +0.000 A 
ATOM     22  C   UNL     1      47.968   4.946  15.605  0.00  0.00    +0.000 A 
ATOM     23  N   UNL     1      48.495   5.976  14.903  0.00  0.00    +0.000 NA
ATOM     24  H   UNL     1      49.334   8.899  15.230  0.00  0.00    +0.000 HD
BRANCH  21  25
ATOM     25  C   UNL     1      47.458   3.684  17.718  0.00  0.00    +0.000 C 
ATOM     26  N   UNL     1      48.049   3.264  18.877  0.00  0.00    +0.000 N 
ATOM     27  O   UNL     1      46.454   3.112  17.303  0.00  0.00    +0.000 OA
ATOM     28  H   UNL     1      48.864   3.665  19.313  0.00  0.00    +0.000 HD
ATOM     29  H   UNL     1      47.611   2.483  19.351  0.00  0.00    +0.000 HD
ENDBRANCH  21  25
ENDBRANCH  16  17
ENDBRANCH   1  16
TORSDOF 5
ENDMDL
MODEL 6
REMARK VINA RESULT:    -6.533      4.096      6.649
REMARK INTER + INTRA:          -9.503
REMARK INTER:                  -8.435
REMARK INTRA:                  -1.068
REMARK UNBOUND:                -1.061
REMARK  Name = 
REMARK  7 active torsions:
REMARK  status: ('A' for Active; 'I' for Inactive)
REMARK    1  A    between atoms: C_1  and  C_2
REMARK    2  A    between atoms: N_4  and  C_5
REMARK    3  A    between atoms: C_9  and  C_10
REMARK    4  A    between atoms: C_10  and  C_11
REMARK    5  A    between atoms: C_11  and  N_12
REMARK    6  A    between atoms: C_16  and  C_17
REMARK    7  A    between atoms: C_24  and  C_25
REMARK                            x       y       z     vdW  Elec       q    Type
REMARK                         _______ _______ _______ _____ _____    ______ ____
ROOT
ATOM      1  C   UNL     1      49.183   8.502  14.158  0.00  0.00    +0.000 C 
ENDROOT
BRANCH   1   6
ATOM      2  C   UNL     1      48.751   6.852  17.606  0.00  0.00    +0.000 A 
ATOM      3  C   UNL     1      48.209   7.932  18.315  0.00  0.00    +0.000 A 
ATOM      4  C   UNL     1      47.946   9.159  17.701  0.00  0.00    +0.000 A 
ATOM      5  C   UNL     1      48.237   9.344  16.350  0.00  0.00    +0.000 A 
ATOM      6  C   UNL     1      48.787   8.298  15.606  0.00  0.00    +0.000 A 
ATOM      7  C   UNL     1      49.019   7.066  16.246  0.00  0.00    +0.000 A 
BRANCH   2  11
ATOM      8  C   UNL     1      47.721   3.440  16.367  0.00  0.00    +0.000 C 
ATOM      9  C   UNL     1      48.125   3.356  17.838  0.00  0.00    +0.000 C 
ATOM     10  C   UNL     1      47.947   4.690  18.591  0.00  0.00    +0.000 C 
ATOM     11  N   UNL     1      49.001   5.646  18.230  0.00  0.00    +0.000 N 
ATOM     12  C   UNL     1      50.366   5.110  18.345  0.00  0.00    +0.000 C 
ATOM     13  C   UNL     1      50.476   3.771  17.582  0.00  0.00    +0.000 C 
ATOM     14  C   UNL     1      51.829   3.119  17.839  0.00  0.00    +0.000 C 
ATOM     15  O   UNL     1      49.460   2.833  17.987  0.00  0.00    +0.000 OA
ENDBRANCH   2  11
ENDBRANCH   1   6
BRANCH   1  16
ATOM     16  C   UNL     1      49.254   7.192  13.367  0.00  0.00    +0.000 C 
BRANCH  16  17
ATOM     17  N   UNL     1      48.394   7.236  12.173  0.00  0.00    +0.000 N 
ATOM     18  C   UNL     1      47.242   6.437  12.324  0.00  0.00    +0.000 A 
ATOM     19  C   UNL     1      46.315   6.374  11.286  0.00  0.00    +0.000 A 
ATOM     20  C   UNL     1      45.158   5.600  11.447  0.00  0.00    +0.000 A 
ATOM     21  C   UNL     1      44.951   4.903  12.639  0.00  0.00    +0.000 A 
ATOM     22  C   UNL     1      45.923   5.026  13.612  0.00  0.00    +0.000 A 
ATOM     23  N   UNL     1      47.044   5.773  13.477  0.00  0.00    +0.000 NA
ATOM     24  H   UNL     1      48.884   6.940  11.331  0.00  0.00    +0.000 HD
BRANCH  21  25
ATOM     25  C   UNL     1      43.733   4.081  12.818  0.00  0.00    +0.000 C 
ATOM     26  N   UNL     1      43.815   2.724  12.677  0.00  0.00    +0.000 N 
ATOM     27  O   UNL     1      42.655   4.603  13.088  0.00  0.00    +0.000 OA
ATOM     28  H   UNL     1      44.645   2.192  12.469  0.00  0.00    +0.000 HD
ATOM     29  H   UNL     1      42.957   2.203  12.814  0.00  0.00    +0.000 HD
ENDBRANCH  21  25
ENDBRANCH  16  17
ENDBRANCH   1  16
TORSDOF 5
ENDMDL
MODEL 7
REMARK VINA RESULT:    -6.446      3.978      6.296
REMARK INTER + INTRA:          -9.391
REMARK INTER:                  -8.455
REMARK INTRA:                  -0.937
REMARK UNBOUND:                -1.061
REMARK  Name = 
REMARK  7 active torsions:
REMARK  status: ('A' for Active; 'I' for Inactive)
REMARK    1  A    between atoms: C_1  and  C_2
REMARK    2  A    between atoms: N_4  and  C_5
REMARK    3  A    between atoms: C_9  and  C_10
REMARK    4  A    between atoms: C_10  and  C_11
REMARK    5  A    between atoms: C_11  and  N_12
REMARK    6  A    between atoms: C_16  and  C_17
REMARK    7  A    between atoms: C_24  and  C_25
REMARK                            x       y       z     vdW  Elec       q    Type
REMARK                         _______ _______ _______ _____ _____    ______ ____
ROOT
ATOM      1  C   UNL     1      49.062   8.410  13.361  0.00  0.00    +0.000 C 
ENDROOT
BRANCH   1   6
ATOM      2  C   UNL     1      49.359   6.179  16.481  0.00  0.00    +0.000 A 
ATOM      3  C   UNL     1      50.738   6.283  16.711  0.00  0.00    +0.000 A 
ATOM      4  C   UNL     1      51.559   7.081  15.912  0.00  0.00    +0.000 A 
ATOM      5  C   UNL     1      51.021   7.790  14.840  0.00  0.00    +0.000 A 
ATOM      6  C   UNL     1      49.654   7.709  14.566  0.00  0.00    +0.000 A 
ATOM      7  C   UNL     1      48.846   6.917  15.403  0.00  0.00    +0.000 A 
BRANCH   2  11
ATOM      8  C   UNL     1      49.933   2.541  17.303  0.00  0.00    +0.000 C 
ATOM      9  C   UNL     1      48.502   2.934  17.666  0.00  0.00    +0.000 C 
ATOM     10  C   UNL     1      47.971   4.120  16.835  0.00  0.00    +0.000 C 
ATOM     11  N   UNL     1      48.562   5.387  17.283  0.00  0.00    +0.000 N 
ATOM     12  C   UNL     1      48.459   5.621  18.731  0.00  0.00    +0.000 C 
ATOM     13  C   UNL     1      48.994   4.396  19.506  0.00  0.00    +0.000 C 
ATOM     14  C   UNL     1      48.730   4.551  21.000  0.00  0.00    +0.000 C 
ATOM     15  O   UNL     1      48.365   3.171  19.082  0.00  0.00    +0.000 OA
ENDBRANCH   2  11
ENDBRANCH   1   6
BRANCH   1  16
ATOM     16  C   UNL     1      47.537   8.291  13.289  0.00  0.00    +0.000 C 
BRANCH  16  17
ATOM     17  N   UNL     1      47.089   7.920  11.936  0.00  0.00    +0.000 N 
ATOM     18  C   UNL     1      46.368   6.708  11.934  0.00  0.00    +0.000 A 
ATOM     19  C   UNL     1      45.863   6.217  10.732  0.00  0.00    +0.000 A 
ATOM     20  C   UNL     1      45.127   5.025  10.735  0.00  0.00    +0.000 A 
ATOM     21  C   UNL     1      44.912   4.346  11.936  0.00  0.00    +0.000 A 
ATOM     22  C   UNL     1      45.449   4.909  13.077  0.00  0.00    +0.000 A 
ATOM     23  N   UNL     1      46.158   6.061  13.095  0.00  0.00    +0.000 NA
ATOM     24  H   UNL     1      47.862   7.838  11.280  0.00  0.00    +0.000 HD
BRANCH  21  25
ATOM     25  C   UNL     1      44.136   3.085  11.949  0.00  0.00    +0.000 C 
ATOM     26  N   UNL     1      44.023   2.358  10.798  0.00  0.00    +0.000 N 
ATOM     27  O   UNL     1      43.595   2.689  12.978  0.00  0.00    +0.000 OA
ATOM     28  H   UNL     1      44.433   2.581   9.904  0.00  0.00    +0.000 HD
ATOM     29  H   UNL     1      43.487   1.499  10.856  0.00  0.00    +0.000 HD
ENDBRANCH  21  25
ENDBRANCH  16  17
ENDBRANCH   1  16
TORSDOF 5
ENDMDL
MODEL 8
REMARK VINA RESULT:    -6.439      3.824      6.378
REMARK INTER + INTRA:          -9.382
REMARK INTER:                  -8.747
REMARK INTRA:                  -0.636
REMARK UNBOUND:                -1.061
REMARK  Name = 
REMARK  7 active torsions:
REMARK  status: ('A' for Active; 'I' for Inactive)
REMARK    1  A    between atoms: C_1  and  C_2
REMARK    2  A    between atoms: N_4  and  C_5
REMARK    3  A    between atoms: C_9  and  C_10
REMARK    4  A    between atoms: C_10  and  C_11
REMARK    5  A    between atoms: C_11  and  N_12
REMARK    6  A    between atoms: C_16  and  C_17
REMARK    7  A    between atoms: C_24  and  C_25
REMARK                            x       y       z     vdW  Elec       q    Type
REMARK                         _______ _______ _______ _____ _____    ______ ____
ROOT
ATOM      1  C   UNL     1      48.344   8.625  14.583  0.00  0.00    +0.000 C 
ENDROOT
BRANCH   1   6
ATOM      2  C   UNL     1      50.420   6.153  16.677  0.00  0.00    +0.000 A 
ATOM      3  C   UNL     1      51.709   6.553  16.298  0.00  0.00    +0.000 A 
ATOM      4  C   UNL     1      51.922   7.617  15.419  0.00  0.00    +0.000 A 
ATOM      5  C   UNL     1      50.839   8.308  14.877  0.00  0.00    +0.000 A 
ATOM      6  C   UNL     1      49.536   7.938  15.219  0.00  0.00    +0.000 A 
ATOM      7  C   UNL     1      49.352   6.878  16.126  0.00  0.00    +0.000 A 
BRANCH   2  11
ATOM      8  C   UNL     1      47.662   3.584  16.507  0.00  0.00    +0.000 C 
ATOM      9  C   UNL     1      48.329   3.537  17.881  0.00  0.00    +0.000 C 
ATOM     10  C   UNL     1      48.978   4.876  18.283  0.00  0.00    +0.000 C 
ATOM     11  N   UNL     1      50.230   5.100  17.549  0.00  0.00    +0.000 N 
ATOM     12  C   UNL     1      51.174   3.974  17.609  0.00  0.00    +0.000 C 
ATOM     13  C   UNL     1      50.462   2.663  17.207  0.00  0.00    +0.000 C 
ATOM     14  C   UNL     1      51.377   1.466  17.436  0.00  0.00    +0.000 C 
ATOM     15  O   UNL     1      49.262   2.442  17.974  0.00  0.00    +0.000 OA
ENDBRANCH   2  11
ENDBRANCH   1   6
BRANCH   1  16
ATOM     16  C   UNL     1      47.695   7.791  13.475  0.00  0.00    +0.000 C 
BRANCH  16  17
ATOM     17  N   UNL     1      47.082   6.565  14.011  0.00  0.00    +0.000 N 
ATOM     18  C   UNL     1      46.360   5.862  13.025  0.00  0.00    +0.000 A 
ATOM     19  C   UNL     1      45.723   4.671  13.365  0.00  0.00    +0.000 A 
ATOM     20  C   UNL     1      45.027   3.961  12.377  0.00  0.00    +0.000 A 
ATOM     21  C   UNL     1      44.977   4.456  11.072  0.00  0.00    +0.000 A 
ATOM     22  C   UNL     1      45.639   5.643  10.829  0.00  0.00    +0.000 A 
ATOM     23  N   UNL     1      46.321   6.340  11.767  0.00  0.00    +0.000 NA
ATOM     24  H   UNL     1      46.460   6.753  14.795  0.00  0.00    +0.000 HD
BRANCH  21  25
ATOM     25  C   UNL     1      44.242   3.714  10.023  0.00  0.00    +0.000 C 
ATOM     26  N   UNL     1      44.005   4.317   8.820  0.00  0.00    +0.000 N 
ATOM     27  O   UNL     1      43.844   2.570  10.223  0.00  0.00    +0.000 OA
ATOM     28  H   UNL     1      44.294   5.242   8.545  0.00  0.00    +0.000 HD
ATOM     29  H   UNL     1      43.503   3.768   8.131  0.00  0.00    +0.000 HD
ENDBRANCH  21  25
ENDBRANCH  16  17
ENDBRANCH   1  16
TORSDOF 5
ENDMDL
MODEL 9
REMARK VINA RESULT:    -6.239      4.941      6.542
REMARK INTER + INTRA:          -9.123
REMARK INTER:                  -8.419
REMARK INTRA:                  -0.704
REMARK UNBOUND:                -1.061
REMARK  Name = 
REMARK  7 active torsions:
REMARK  status: ('A' for Active; 'I' for Inactive)
REMARK    1  A    between atoms: C_1  and  C_2
REMARK    2  A    between atoms: N_4  and  C_5
REMARK    3  A    between atoms: C_9  and  C_10
REMARK    4  A    between atoms: C_10  and  C_11
REMARK    5  A    between atoms: C_11  and  N_12
REMARK    6  A    between atoms: C_16  and  C_17
REMARK    7  A    between atoms: C_24  and  C_25
REMARK                            x       y       z     vdW  Elec       q    Type
REMARK                         _______ _______ _______ _____ _____    ______ ____
ROOT
ATOM      1  C   UNL     1      46.944   3.950  17.194  0.00  0.00    +0.000 C 
ENDROOT
BRANCH   1   6
ATOM      2  C   UNL     1      49.922   5.653  18.936  0.00  0.00    +0.000 A 
ATOM      3  C   UNL     1      49.229   6.570  19.738  0.00  0.00    +0.000 A 
ATOM      4  C   UNL     1      47.834   6.624  19.758  0.00  0.00    +0.000 A 
ATOM      5  C   UNL     1      47.086   5.765  18.955  0.00  0.00    +0.000 A 
ATOM      6  C   UNL     1      47.734   4.841  18.132  0.00  0.00    +0.000 A 
ATOM      7  C   UNL     1      49.141   4.792  18.150  0.00  0.00    +0.000 A 
BRANCH   2  11
ATOM      8  C   UNL     1      52.067   2.740  17.862  0.00  0.00    +0.000 C 
ATOM      9  C   UNL     1      52.911   3.743  18.649  0.00  0.00    +0.000 C 
ATOM     10  C   UNL     1      52.082   4.587  19.637  0.00  0.00    +0.000 C 
ATOM     11  N   UNL     1      51.301   5.613  18.932  0.00  0.00    +0.000 N 
ATOM     12  C   UNL     1      52.091   6.439  18.006  0.00  0.00    +0.000 C 
ATOM     13  C   UNL     1      52.906   5.536  17.053  0.00  0.00    +0.000 C 
ATOM     14  C   UNL     1      53.860   6.374  16.209  0.00  0.00    +0.000 C 
ATOM     15  O   UNL     1      53.699   4.570  17.769  0.00  0.00    +0.000 OA
ENDBRANCH   2  11
ENDBRANCH   1   6
BRANCH   1  16
ATOM     16  C   UNL     1      47.504   3.935  15.769  0.00  0.00    +0.000 C 
BRANCH  16  17
ATOM     17  N   UNL     1      47.102   5.136  15.019  0.00  0.00    +0.000 N 
ATOM     18  C   UNL     1      46.399   4.810  13.841  0.00  0.00    +0.000 A 
ATOM     19  C   UNL     1      45.937   5.834  13.017  0.00  0.00    +0.000 A 
ATOM     20  C   UNL     1      45.216   5.509  11.860  0.00  0.00    +0.000 A 
ATOM     21  C   UNL     1      44.974   4.170  11.547  0.00  0.00    +0.000 A 
ATOM     22  C   UNL     1      45.469   3.224  12.424  0.00  0.00    +0.000 A 
ATOM     23  N   UNL     1      46.162   3.518  13.548  0.00  0.00    +0.000 NA
ATOM     24  H   UNL     1      47.896   5.721  14.770  0.00  0.00    +0.000 HD
BRANCH  21  25
ATOM     25  C   UNL     1      44.216   3.817  10.326  0.00  0.00    +0.000 C 
ATOM     26  N   UNL     1      43.933   4.791   9.410  0.00  0.00    +0.000 N 
ATOM     27  O   UNL     1      43.838   2.665  10.130  0.00  0.00    +0.000 OA
ATOM     28  H   UNL     1      44.201   5.761   9.463  0.00  0.00    +0.000 HD
ATOM     29  H   UNL     1      43.416   4.501   8.587  0.00  0.00    +0.000 HD
ENDBRANCH  21  25
ENDBRANCH  16  17
ENDBRANCH   1  16
TORSDOF 5
ENDMDL
