MODEL 1
REMARK VINA RESULT:    -7.387      0.000      0.000
REMARK INTER + INTRA:          -9.431
REMARK INTER:                  -9.115
REMARK INTRA:                  -0.316
REMARK UNBOUND:                -0.316
REMARK  Name = 
REMARK  4 active torsions:
REMARK  status: ('A' for Active; 'I' for Inactive)
REMARK    1  A    between atoms: C_5  and  C_6
REMARK    2  A    between atoms: C_10  and  C_11
REMARK    3  A    between atoms: C_11  and  O_12
REMARK    4  A    between atoms: O_12  and  C_13
REMARK                            x       y       z     vdW  Elec       q    Type
REMARK                         _______ _______ _______ _____ _____    ______ ____
ROOT
ATOM      1  C   UNL     1      46.934   5.523  13.321  0.00  0.00    +0.000 A 
ATOM      2  C   UNL     1      47.496   6.597  12.642  0.00  0.00    +0.000 A 
ATOM      3  C   UNL     1      46.975   6.955  11.401  0.00  0.00    +0.000 A 
ATOM      4  C   UNL     1      45.904   6.236  10.877  0.00  0.00    +0.000 A 
ATOM      5  C   UNL     1      45.370   5.171  11.602  0.00  0.00    +0.000 A 
ATOM      6  N   UNL     1      45.902   4.817  12.800  0.00  0.00    +0.000 NA
ENDROOT
BRANCH   1  11
ATOM      7  C   UNL     1      48.655   5.390  16.687  0.00  0.00    +0.000 A 
ATOM      8  C   UNL     1      48.240   4.138  17.097  0.00  0.00    +0.000 A 
ATOM      9  N   UNL     1      47.419   3.346  16.373  0.00  0.00    +0.000 NA
ATOM     10  C   UNL     1      47.009   3.831  15.176  0.00  0.00    +0.000 A 
ATOM     11  C   UNL     1      47.360   5.076  14.653  0.00  0.00    +0.000 A 
ATOM     12  C   UNL     1      48.205   5.860  15.456  0.00  0.00    +0.000 A 
ENDBRANCH   1  11
BRANCH   5  13
ATOM     13  C   UNL     1      44.152   4.400  11.119  0.00  0.00    +0.000 C 
ATOM     14  C   UNL     1      42.868   4.596  11.912  0.00  0.00    +0.000 C 
ATOM     15  C   UNL     1      43.572   3.279  11.968  0.00  0.00    +0.000 C 
BRANCH  13  16
ATOM     16  O   UNL     1      43.961   4.291   9.685  0.00  0.00    +0.000 OA
BRANCH  16  17
ATOM     17  C   UNL     1      44.870   3.529   8.990  0.00  0.00    +0.000 A 
ATOM     18  C   UNL     1      45.110   2.175   9.208  0.00  0.00    +0.000 A 
ATOM     19  N   UNL     1      46.006   1.452   8.486  0.00  0.00    +0.000 NA
ATOM     20  C   UNL     1      46.666   2.144   7.534  0.00  0.00    +0.000 A 
ATOM     21  C   UNL     1      46.445   3.493   7.321  0.00  0.00    +0.000 A 
ATOM     22  N   UNL     1      45.554   4.212   8.042  0.00  0.00    +0.000 NA
ENDBRANCH  16  17
ENDBRANCH  13  16
ENDBRANCH   5  13
TORSDOF 4
ENDMDL
MODEL 2
REMARK VINA RESULT:    -7.328      1.840      3.514
REMARK INTER + INTRA:          -9.358
REMARK INTER:                  -9.007
REMARK INTRA:                  -0.351
REMARK UNBOUND:                -0.316
REMARK  Name = 
REMARK  4 active torsions:
REMARK  status: ('A' for Active; 'I' for Inactive)
REMARK    1  A    between atoms: C_5  and  C_6
REMARK    2  A    between atoms: C_10  and  C_11
REMARK    3  A    between atoms: C_11  and  O_12
REMARK    4  A    between atoms: O_12  and  C_13
REMARK                            x       y       z     vdW  Elec       q    Type
REMARK                         _______ _______ _______ _____ _____    ______ ____
ROOT
ATOM      1  C   UNL     1      46.868   6.415  12.495  0.00  0.00    +0.000 A 
ATOM      2  C   UNL     1      47.490   5.594  13.428  0.00  0.00    +0.000 A 
ATOM      3  C   UNL     1      46.983   4.315  13.642  0.00  0.00    +0.000 A 
ATOM      4  C   UNL     1      45.874   3.890  12.914  0.00  0.00    +0.000 A 
ATOM      5  C   UNL     1      45.291   4.749  11.984  0.00  0.00    +0.000 A 
ATOM      6  N   UNL     1      45.781   6.001  11.801  0.00  0.00    +0.000 NA
ENDROOT
BRANCH   1  11
ATOM      7  C   UNL     1      49.103   9.303  11.507  0.00  0.00    +0.000 A 
ATOM      8  C   UNL     1      48.191  10.335  11.620  0.00  0.00    +0.000 A 
ATOM      9  N   UNL     1      46.897  10.159  11.966  0.00  0.00    +0.000 NA
ATOM     10  C   UNL     1      46.507   8.886  12.223  0.00  0.00    +0.000 A 
ATOM     11  C   UNL     1      47.332   7.764  12.145  0.00  0.00    +0.000 A 
ATOM     12  C   UNL     1      48.663   8.008  11.769  0.00  0.00    +0.000 A 
ENDBRANCH   1  11
BRANCH   5  13
ATOM     13  C   UNL     1      44.130   4.314  11.104  0.00  0.00    +0.000 C 
ATOM     14  C   UNL     1      42.733   4.552  11.657  0.00  0.00    +0.000 C 
ATOM     15  C   UNL     1      43.243   3.154  11.528  0.00  0.00    +0.000 C 
BRANCH  13  16
ATOM     16  O   UNL     1      44.257   4.544   9.677  0.00  0.00    +0.000 OA
BRANCH  16  17
ATOM     17  C   UNL     1      45.084   3.696   8.978  0.00  0.00    +0.000 A 
ATOM     18  C   UNL     1      45.182   2.324   9.189  0.00  0.00    +0.000 A 
ATOM     19  N   UNL     1      46.001   1.516   8.464  0.00  0.00    +0.000 NA
ATOM     20  C   UNL     1      46.730   2.142   7.516  0.00  0.00    +0.000 A 
ATOM     21  C   UNL     1      46.650   3.508   7.311  0.00  0.00    +0.000 A 
ATOM     22  N   UNL     1      45.837   4.311   8.036  0.00  0.00    +0.000 NA
ENDBRANCH  16  17
ENDBRANCH  13  16
ENDBRANCH   5  13
TORSDOF 4
ENDMDL
MODEL 3
REMARK VINA RESULT:    -6.909      2.040      2.897
REMARK INTER + INTRA:          -8.841
REMARK INTER:                  -8.297
REMARK INTRA:                  -0.544
REMARK UNBOUND:                -0.316
REMARK  Name = 
REMARK  4 active torsions:
REMARK  status: ('A' for Active; 'I' for Inactive)
REMARK    1  A    between atoms: C_5  and  C_6
REMARK    2  A    between atoms: C_10  and  C_11
REMARK    3  A    between atoms: C_11  and  O_12
REMARK    4  A    between atoms: O_12  and  C_13
REMARK                            x       y       z     vdW  Elec       q    Type
REMARK                         _______ _______ _______ _____ _____    ______ ____
ROOT
ATOM      1  C   UNL     1      46.150   7.100  12.016  0.00  0.00    +0.000 A 
ATOM      2  C   UNL     1      45.183   8.077  11.813  0.00  0.00    +0.000 A 
ATOM      3  C   UNL     1      43.910   7.689  11.401  0.00  0.00    +0.000 A 
ATOM      4  C   UNL     1      43.638   6.336  11.211  0.00  0.00    +0.000 A 
ATOM      5  C   UNL     1      44.641   5.394  11.437  0.00  0.00    +0.000 A 
ATOM      6  N   UNL     1      45.883   5.787  11.816  0.00  0.00    +0.000 NA
ENDROOT
BRANCH   1  11
ATOM      7  C   UNL     1      49.700   8.394  12.205  0.00  0.00    +0.000 A 
ATOM      8  C   UNL     1      50.104   7.759  13.364  0.00  0.00    +0.000 A 
ATOM      9  N   UNL     1      49.299   6.965  14.103  0.00  0.00    +0.000 NA
ATOM     10  C   UNL     1      48.034   6.791  13.647  0.00  0.00    +0.000 A 
ATOM     11  C   UNL     1      47.511   7.375  12.494  0.00  0.00    +0.000 A 
ATOM     12  C   UNL     1      48.391   8.200  11.773  0.00  0.00    +0.000 A 
ENDBRANCH   1  11
BRANCH   5  13
ATOM     13  C   UNL     1      44.382   3.900  11.324  0.00  0.00    +0.000 C 
ATOM     14  C   UNL     1      43.704   3.238  12.514  0.00  0.00    +0.000 C 
ATOM     15  C   UNL     1      45.134   2.925  12.215  0.00  0.00    +0.000 C 
BRANCH  13  16
ATOM     16  O   UNL     1      43.950   3.398  10.032  0.00  0.00    +0.000 OA
BRANCH  16  17
ATOM     17  C   UNL     1      44.926   3.191   9.086  0.00  0.00    +0.000 A 
ATOM     18  C   UNL     1      45.476   4.180   8.276  0.00  0.00    +0.000 A 
ATOM     19  N   UNL     1      46.453   3.938   7.362  0.00  0.00    +0.000 NA
ATOM     20  C   UNL     1      46.857   2.652   7.285  0.00  0.00    +0.000 A 
ATOM     21  C   UNL     1      46.305   1.660   8.075  0.00  0.00    +0.000 A 
ATOM     22  N   UNL     1      45.330   1.903   8.982  0.00  0.00    +0.000 NA
ENDBRANCH  16  17
ENDBRANCH  13  16
ENDBRANCH   5  13
TORSDOF 4
ENDMDL
MODEL 4
REMARK VINA RESULT:    -6.907      2.877      4.821
REMARK INTER + INTRA:          -8.838
REMARK INTER:                  -8.587
REMARK INTRA:                  -0.251
REMARK UNBOUND:                -0.316
REMARK  Name = 
REMARK  4 active torsions:
REMARK  status: ('A' for Active; 'I' for Inactive)
REMARK    1  A    between atoms: C_5  and  C_6
REMARK    2  A    between atoms: C_10  and  C_11
REMARK    3  A    between atoms: C_11  and  O_12
REMARK    4  A    between atoms: O_12  and  C_13
REMARK                            x       y       z     vdW  Elec       q    Type
REMARK                         _______ _______ _______ _____ _____    ______ ____
ROOT
ATOM      1  C   UNL     1      45.136   8.024  11.703  0.00  0.00    +0.000 A 
ATOM      2  C   UNL     1      46.433   7.969  12.199  0.00  0.00    +0.000 A 
ATOM      3  C   UNL     1      47.038   6.725  12.363  0.00  0.00    +0.000 A 
ATOM      4  C   UNL     1      46.334   5.574  12.021  0.00  0.00    +0.000 A 
ATOM      5  C   UNL     1      45.037   5.683  11.519  0.00  0.00    +0.000 A 
ATOM      6  N   UNL     1      44.451   6.900  11.385  0.00  0.00    +0.000 NA
ENDROOT
BRANCH   1  11
ATOM      7  C   UNL     1      42.596  10.490  10.369  0.00  0.00    +0.000 A 
ATOM      8  C   UNL     1      43.142  11.658  10.865  0.00  0.00    +0.000 A 
ATOM      9  N   UNL     1      44.258  11.701  11.625  0.00  0.00    +0.000 NA
ATOM     10  C   UNL     1      44.860  10.514  11.885  0.00  0.00    +0.000 A 
ATOM     11  C   UNL     1      44.407   9.272  11.441  0.00  0.00    +0.000 A 
ATOM     12  C   UNL     1      43.236   9.290  10.665  0.00  0.00    +0.000 A 
ENDBRANCH   1  11
BRANCH   5  13
ATOM     13  C   UNL     1      44.249   4.469  11.054  0.00  0.00    +0.000 C 
ATOM     14  C   UNL     1      43.082   4.042  11.932  0.00  0.00    +0.000 C 
ATOM     15  C   UNL     1      44.297   3.176  11.852  0.00  0.00    +0.000 C 
BRANCH  13  16
ATOM     16  O   UNL     1      44.005   4.343   9.629  0.00  0.00    +0.000 OA
BRANCH  16  17
ATOM     17  C   UNL     1      44.961   3.690   8.888  0.00  0.00    +0.000 A 
ATOM     18  C   UNL     1      45.195   2.319   8.915  0.00  0.00    +0.000 A 
ATOM     19  N   UNL     1      46.141   1.709   8.152  0.00  0.00    +0.000 NA
ATOM     20  C   UNL     1      46.856   2.534   7.359  0.00  0.00    +0.000 A 
ATOM     21  C   UNL     1      46.640   3.900   7.337  0.00  0.00    +0.000 A 
ATOM     22  N   UNL     1      45.701   4.506   8.100  0.00  0.00    +0.000 NA
ENDBRANCH  16  17
ENDBRANCH  13  16
ENDBRANCH   5  13
TORSDOF 4
ENDMDL
MODEL 5
REMARK VINA RESULT:    -6.242      1.798      6.540
REMARK INTER + INTRA:          -8.018
REMARK INTER:                  -8.522
REMARK INTRA:                   0.504
REMARK UNBOUND:                -0.316
REMARK  Name = 
REMARK  4 active torsions:
REMARK  status: ('A' for Active; 'I' for Inactive)
REMARK    1  A    between atoms: C_5  and  C_6
REMARK    2  A    between atoms: C_10  and  C_11
REMARK    3  A    between atoms: C_11  and  O_12
REMARK    4  A    between atoms: O_12  and  C_13
REMARK                            x       y       z     vdW  Elec       q    Type
REMARK                         _______ _______ _______ _____ _____    ______ ____
ROOT
ATOM      1  C   UNL     1      44.901   4.577  10.101  0.00  0.00    +0.000 A 
ATOM      2  C   UNL     1      43.540   4.632  10.375  0.00  0.00    +0.000 A 
ATOM      3  C   UNL     1      43.082   5.535  11.331  0.00  0.00    +0.000 A 
ATOM      4  C   UNL     1      43.995   6.363  11.979  0.00  0.00    +0.000 A 
ATOM      5  C   UNL     1      45.350   6.276  11.662  0.00  0.00    +0.000 A 
ATOM      6  N   UNL     1      45.786   5.375  10.745  0.00  0.00    +0.000 NA
ENDROOT
BRANCH   1  11
ATOM      7  C   UNL     1      46.624   3.384   6.952  0.00  0.00    +0.000 A 
ATOM      8  C   UNL     1      46.505   2.020   7.139  0.00  0.00    +0.000 A 
ATOM      9  N   UNL     1      45.932   1.460   8.226  0.00  0.00    +0.000 NA
ATOM     10  C   UNL     1      45.444   2.313   9.161  0.00  0.00    +0.000 A 
ATOM     11  C   UNL     1      45.502   3.704   9.085  0.00  0.00    +0.000 A 
ATOM     12  C   UNL     1      46.121   4.228   7.938  0.00  0.00    +0.000 A 
ENDBRANCH   1  11
BRANCH   5  13
ATOM     13  C   UNL     1      46.382   7.207  12.277  0.00  0.00    +0.000 C 
ATOM     14  C   UNL     1      45.847   8.316  13.171  0.00  0.00    +0.000 C 
ATOM     15  C   UNL     1      46.447   8.665  11.849  0.00  0.00    +0.000 C 
BRANCH  13  16
ATOM     16  O   UNL     1      47.622   6.611  12.737  0.00  0.00    +0.000 OA
BRANCH  16  17
ATOM     17  C   UNL     1      47.565   5.863  13.890  0.00  0.00    +0.000 A 
ATOM     18  C   UNL     1      46.752   4.751  14.081  0.00  0.00    +0.000 A 
ATOM     19  N   UNL     1      46.737   4.026  15.231  0.00  0.00    +0.000 NA
ATOM     20  C   UNL     1      47.571   4.469  16.196  0.00  0.00    +0.000 A 
ATOM     21  C   UNL     1      48.371   5.583  16.020  0.00  0.00    +0.000 A 
ATOM     22  N   UNL     1      48.382   6.305  14.875  0.00  0.00    +0.000 NA
ENDBRANCH  16  17
ENDBRANCH  13  16
ENDBRANCH   5  13
TORSDOF 4
ENDMDL
MODEL 6
REMARK VINA RESULT:    -6.218      1.783      6.727
REMARK INTER + INTRA:          -7.988
REMARK INTER:                  -7.756
REMARK INTRA:                  -0.232
REMARK UNBOUND:                -0.316
REMARK  Name = 
REMARK  4 active torsions:
REMARK  status: ('A' for Active; 'I' for Inactive)
REMARK    1  A    between atoms: C_5  and  C_6
REMARK    2  A    between atoms: C_10  and  C_11
REMARK    3  A    between atoms: C_11  and  O_12
REMARK    4  A    between atoms: O_12  and  C_13
REMARK                            x       y       z     vdW  Elec       q    Type
REMARK                         _______ _______ _______ _____ _____    ______ ____
ROOT
ATOM      1  C   UNL     1      45.894   3.658   8.664  0.00  0.00    +0.000 A 
ATOM      2  C   UNL     1      45.896   5.018   8.378  0.00  0.00    +0.000 A 
ATOM      3  C   UNL     1      45.527   5.916   9.377  0.00  0.00    +0.000 A 
ATOM      4  C   UNL     1      45.175   5.431  10.634  0.00  0.00    +0.000 A 
ATOM      5  C   UNL     1      45.198   4.057  10.873  0.00  0.00    +0.000 A 
ATOM      6  N   UNL     1      45.537   3.191   9.884  0.00  0.00    +0.000 NA
ENDROOT
BRANCH   1  11
ATOM      7  C   UNL     1      46.907   0.314   7.214  0.00  0.00    +0.000 A 
ATOM      8  C   UNL     1      47.208   0.715   5.926  0.00  0.00    +0.000 A 
ATOM      9  N   UNL     1      47.078   1.985   5.487  0.00  0.00    +0.000 NA
ATOM     10  C   UNL     1      46.639   2.896   6.389  0.00  0.00    +0.000 A 
ATOM     11  C   UNL     1      46.306   2.616   7.714  0.00  0.00    +0.000 A 
ATOM     12  C   UNL     1      46.450   1.276   8.110  0.00  0.00    +0.000 A 
ENDBRANCH   1  11
BRANCH   5  13
ATOM     13  C   UNL     1      44.901   3.474  12.245  0.00  0.00    +0.000 C 
ATOM     14  C   UNL     1      43.648   2.619  12.363  0.00  0.00    +0.000 C 
ATOM     15  C   UNL     1      43.693   3.953  13.034  0.00  0.00    +0.000 C 
BRANCH  13  16
ATOM     16  O   UNL     1      46.030   2.991  13.019  0.00  0.00    +0.000 OA
BRANCH  16  17
ATOM     17  C   UNL     1      46.734   3.924  13.744  0.00  0.00    +0.000 A 
ATOM     18  C   UNL     1      47.338   5.060  13.212  0.00  0.00    +0.000 A 
ATOM     19  N   UNL     1      48.011   5.969  13.967  0.00  0.00    +0.000 NA
ATOM     20  C   UNL     1      48.064   5.689  15.286  0.00  0.00    +0.000 A 
ATOM     21  C   UNL     1      47.481   4.555  15.820  0.00  0.00    +0.000 A 
ATOM     22  N   UNL     1      46.813   3.650  15.067  0.00  0.00    +0.000 NA
ENDBRANCH  16  17
ENDBRANCH  13  16
ENDBRANCH   5  13
TORSDOF 4
ENDMDL
MODEL 7
REMARK VINA RESULT:    -6.102      3.102      7.496
REMARK INTER + INTRA:          -7.846
REMARK INTER:                  -8.103
REMARK INTRA:                   0.257
REMARK UNBOUND:                -0.316
REMARK  Name = 
REMARK  4 active torsions:
REMARK  status: ('A' for Active; 'I' for Inactive)
REMARK    1  A    between atoms: C_5  and  C_6
REMARK    2  A    between atoms: C_10  and  C_11
REMARK    3  A    between atoms: C_11  and  O_12
REMARK    4  A    between atoms: O_12  and  C_13
REMARK                            x       y       z     vdW  Elec       q    Type
REMARK                         _______ _______ _______ _____ _____    ______ ____
ROOT
ATOM      1  C   UNL     1      46.448   5.116  13.914  0.00  0.00    +0.000 A 
ATOM      2  C   UNL     1      47.164   6.294  13.743  0.00  0.00    +0.000 A 
ATOM      3  C   UNL     1      48.223   6.569  14.605  0.00  0.00    +0.000 A 
ATOM      4  C   UNL     1      48.542   5.655  15.607  0.00  0.00    +0.000 A 
ATOM      5  C   UNL     1      47.799   4.483  15.731  0.00  0.00    +0.000 A 
ATOM      6  N   UNL     1      46.754   4.238  14.900  0.00  0.00    +0.000 NA
ENDROOT
BRANCH   1  11
ATOM      7  C   UNL     1      43.089   4.974  12.180  0.00  0.00    +0.000 A 
ATOM      8  C   UNL     1      43.243   3.781  11.500  0.00  0.00    +0.000 A 
ATOM      9  N   UNL     1      44.368   3.034  11.541  0.00  0.00    +0.000 NA
ATOM     10  C   UNL     1      45.378   3.503  12.313  0.00  0.00    +0.000 A 
ATOM     11  C   UNL     1      45.343   4.689  13.046  0.00  0.00    +0.000 A 
ATOM     12  C   UNL     1      44.153   5.429  12.954  0.00  0.00    +0.000 A 
ENDBRANCH   1  11
BRANCH   5  13
ATOM     13  C   UNL     1      48.149   3.412  16.752  0.00  0.00    +0.000 C 
ATOM     14  C   UNL     1      47.006   2.902  17.618  0.00  0.00    +0.000 C 
ATOM     15  C   UNL     1      48.086   3.725  18.239  0.00  0.00    +0.000 C 
BRANCH  13  16
ATOM     16  O   UNL     1      49.095   2.391  16.345  0.00  0.00    +0.000 OA
BRANCH  16  17
ATOM     17  C   UNL     1      50.324   2.396  16.962  0.00  0.00    +0.000 A 
ATOM     18  C   UNL     1      50.959   3.527  17.466  0.00  0.00    +0.000 A 
ATOM     19  N   UNL     1      52.169   3.488  18.086  0.00  0.00    +0.000 NA
ATOM     20  C   UNL     1      52.726   2.262  18.176  0.00  0.00    +0.000 A 
ATOM     21  C   UNL     1      52.109   1.136  17.663  0.00  0.00    +0.000 A 
ATOM     22  N   UNL     1      50.906   1.177  17.044  0.00  0.00    +0.000 NA
ENDBRANCH  16  17
ENDBRANCH  13  16
ENDBRANCH   5  13
TORSDOF 4
ENDMDL
MODEL 8
REMARK VINA RESULT:    -6.089      3.206      7.157
REMARK INTER + INTRA:          -7.830
REMARK INTER:                  -7.487
REMARK INTRA:                  -0.343
REMARK UNBOUND:                -0.316
REMARK  Name = 
REMARK  4 active torsions:
REMARK  status: ('A' for Active; 'I' for Inactive)
REMARK    1  A    between atoms: C_5  and  C_6
REMARK    2  A    between atoms: C_10  and  C_11
REMARK    3  A    between atoms: C_11  and  O_12
REMARK    4  A    between atoms: O_12  and  C_13
REMARK                            x       y       z     vdW  Elec       q    Type
REMARK                         _______ _______ _______ _____ _____    ______ ____
ROOT
ATOM      1  C   UNL     1      47.924   6.061  13.768  0.00  0.00    +0.000 A 
ATOM      2  C   UNL     1      48.866   6.870  13.144  0.00  0.00    +0.000 A 
ATOM      3  C   UNL     1      49.810   7.529  13.927  0.00  0.00    +0.000 A 
ATOM      4  C   UNL     1      49.792   7.356  15.309  0.00  0.00    +0.000 A 
ATOM      5  C   UNL     1      48.831   6.527  15.886  0.00  0.00    +0.000 A 
ATOM      6  N   UNL     1      47.901   5.908  15.114  0.00  0.00    +0.000 NA
ENDROOT
BRANCH   1  11
ATOM      7  C   UNL     1      45.219   5.068  11.317  0.00  0.00    +0.000 A 
ATOM      8  C   UNL     1      44.913   3.818  11.822  0.00  0.00    +0.000 A 
ATOM      9  N   UNL     1      45.540   3.264  12.881  0.00  0.00    +0.000 NA
ATOM     10  C   UNL     1      46.510   4.007  13.469  0.00  0.00    +0.000 A 
ATOM     11  C   UNL     1      46.907   5.278  13.054  0.00  0.00    +0.000 A 
ATOM     12  C   UNL     1      46.228   5.797  11.939  0.00  0.00    +0.000 A 
ENDBRANCH   1  11
BRANCH   5  13
ATOM     13  C   UNL     1      48.810   6.237  17.378  0.00  0.00    +0.000 C 
ATOM     14  C   UNL     1      48.376   7.379  18.285  0.00  0.00    +0.000 C 
ATOM     15  C   UNL     1      49.799   6.926  18.305  0.00  0.00    +0.000 C 
BRANCH  13  16
ATOM     16  O   UNL     1      48.337   4.929  17.793  0.00  0.00    +0.000 OA
BRANCH  16  17
ATOM     17  C   UNL     1      49.124   3.849  17.468  0.00  0.00    +0.000 A 
ATOM     18  C   UNL     1      48.730   2.787  16.661  0.00  0.00    +0.000 A 
ATOM     19  N   UNL     1      49.546   1.745  16.349  0.00  0.00    +0.000 NA
ATOM     20  C   UNL     1      50.781   1.804  16.889  0.00  0.00    +0.000 A 
ATOM     21  C   UNL     1      51.176   2.848  17.706  0.00  0.00    +0.000 A 
ATOM     22  N   UNL     1      50.362   3.883  18.018  0.00  0.00    +0.000 NA
ENDBRANCH  16  17
ENDBRANCH  13  16
ENDBRANCH   5  13
TORSDOF 4
ENDMDL
MODEL 9
REMARK VINA RESULT:    -6.008      3.267      5.814
REMARK INTER + INTRA:          -7.730
REMARK INTER:                  -7.219
REMARK INTRA:                  -0.511
REMARK UNBOUND:                -0.316
REMARK  Name = 
REMARK  4 active torsions:
REMARK  status: ('A' for Active; 'I' for Inactive)
REMARK    1  A    between atoms: C_5  and  C_6
REMARK    2  A    between atoms: C_10  and  C_11
REMARK    3  A    between atoms: C_11  and  O_12
REMARK    4  A    between atoms: O_12  and  C_13
REMARK                            x       y       z     vdW  Elec       q    Type
REMARK                         _______ _______ _______ _____ _____    ______ ____
ROOT
ATOM      1  C   UNL     1      49.871   4.957  17.530  0.00  0.00    +0.000 A 
ATOM      2  C   UNL     1      49.341   5.582  18.653  0.00  0.00    +0.000 A 
ATOM      3  C   UNL     1      48.650   6.780  18.492  0.00  0.00    +0.000 A 
ATOM      4  C   UNL     1      48.500   7.315  17.216  0.00  0.00    +0.000 A 
ATOM      5  C   UNL     1      49.043   6.645  16.120  0.00  0.00    +0.000 A 
ATOM      6  N   UNL     1      49.735   5.490  16.292  0.00  0.00    +0.000 NA
ENDROOT
BRANCH   1  11
ATOM      7  C   UNL     1      52.588   2.359  17.952  0.00  0.00    +0.000 A 
ATOM      8  C   UNL     1      51.910   1.253  17.476  0.00  0.00    +0.000 A 
ATOM      9  N   UNL     1      50.627   1.283  17.056  0.00  0.00    +0.000 NA
ATOM     10  C   UNL     1      50.002   2.486  17.104  0.00  0.00    +0.000 A 
ATOM     11  C   UNL     1      50.579   3.671  17.560  0.00  0.00    +0.000 A 
ATOM     12  C   UNL     1      51.911   3.574  17.996  0.00  0.00    +0.000 A 
ENDBRANCH   1  11
BRANCH   5  13
ATOM     13  C   UNL     1      48.844   7.138  14.696  0.00  0.00    +0.000 C 
ATOM     14  C   UNL     1      49.605   8.395  14.301  0.00  0.00    +0.000 C 
ATOM     15  C   UNL     1      48.118   8.449  14.435  0.00  0.00    +0.000 C 
BRANCH  13  16
ATOM     16  O   UNL     1      48.762   6.134  13.652  0.00  0.00    +0.000 OA
BRANCH  16  17
ATOM     17  C   UNL     1      47.508   5.670  13.329  0.00  0.00    +0.000 A 
ATOM     18  C   UNL     1      46.794   4.724  14.058  0.00  0.00    +0.000 A 
ATOM     19  N   UNL     1      45.547   4.304  13.714  0.00  0.00    +0.000 NA
ATOM     20  C   UNL     1      45.042   4.868  12.597  0.00  0.00    +0.000 A 
ATOM     21  C   UNL     1      45.751   5.798  11.858  0.00  0.00    +0.000 A 
ATOM     22  N   UNL     1      46.993   6.212  12.200  0.00  0.00    +0.000 NA
ENDBRANCH  16  17
ENDBRANCH  13  16
ENDBRANCH   5  13
TORSDOF 4
ENDMDL
