MODEL 1
REMARK VINA RESULT:    -7.970      0.000      0.000
REMARK INTER + INTRA:         -10.535
REMARK INTER:                  -9.833
REMARK INTRA:                  -0.702
REMARK UNBOUND:                -0.702
REMARK  Name = 
REMARK  4 active torsions:
REMARK  status: ('A' for Active; 'I' for Inactive)
REMARK    1  A    between atoms: C_5  and  N_6
REMARK    2  A    between atoms: N_6  and  C_7
REMARK    3  A    between atoms: C_7  and  C_8
REMARK    4  A    between atoms: C_13  and  N_14
REMARK                            x       y       z     vdW  Elec       q    Type
REMARK                         _______ _______ _______ _____ _____    ______ ____
ROOT
ATOM      1  C   UNL     1      44.398   4.114  11.467  0.00  0.00    +0.000 A 
ATOM      2  C   UNL     1      43.795   5.287  11.010  0.00  0.00    +0.000 A 
ATOM      3  C   UNL     1      44.148   6.504  11.579  0.00  0.00    +0.000 A 
ATOM      4  F   UNL     1      43.586   7.631  11.118  0.00  0.00    +0.000 F 
ATOM      5  C   UNL     1      45.092   6.582  12.600  0.00  0.00    +0.000 A 
ATOM      6  C   UNL     1      45.701   5.426  13.098  0.00  0.00    +0.000 A 
ATOM      7  C   UNL     1      45.323   4.197  12.524  0.00  0.00    +0.000 A 
ENDROOT
BRANCH   6   8
ATOM      8  N   UNL     1      46.705   5.444  14.057  0.00  0.00    +0.000 N 
ATOM      9  C   UNL     1      47.052   4.222  14.803  0.00  0.00    +0.000 C 
ATOM     10  C   UNL     1      47.743   4.635  16.115  0.00  0.00    +0.000 C 
ATOM     11  O   UNL     1      48.914   5.434  15.865  0.00  0.00    +0.000 OA
ATOM     12  C   UNL     1      48.564   6.623  15.135  0.00  0.00    +0.000 C 
ATOM     13  C   UNL     1      47.890   6.287  13.793  0.00  0.00    +0.000 C 
ENDBRANCH   6   8
BRANCH   1  14
ATOM     14  C   UNL     1      44.077   2.785  10.827  0.00  0.00    +0.000 C 
BRANCH  14  15
ATOM     15  N   UNL     1      44.037   2.939   9.379  0.00  0.00    +0.000 N 
ATOM     16  H   UNL     1      43.296   2.387   8.955  0.00  0.00    +0.000 HD
BRANCH  15  21
ATOM     17  N   UNL     1      48.568   2.352   6.206  0.00  0.00    +0.000 N 
ATOM     18  C   UNL     1      47.473   2.557   7.039  0.00  0.00    +0.000 A 
ATOM     19  C   UNL     1      46.903   3.814   7.163  0.00  0.00    +0.000 A 
ATOM     20  C   UNL     1      45.773   3.976   7.969  0.00  0.00    +0.000 A 
ATOM     21  C   UNL     1      45.228   2.888   8.649  0.00  0.00    +0.000 A 
ATOM     22  C   UNL     1      45.866   1.666   8.419  0.00  0.00    +0.000 A 
ATOM     23  N   UNL     1      46.973   1.479   7.655  0.00  0.00    +0.000 NA
ATOM     24  H   UNL     1      49.331   2.980   6.421  0.00  0.00    +0.000 HD
ATOM     25  H   UNL     1      48.833   1.374   6.306  0.00  0.00    +0.000 HD
ENDBRANCH  15  21
ENDBRANCH  14  15
ENDBRANCH   1  14
TORSDOF 4
ENDMDL
MODEL 2
REMARK VINA RESULT:    -7.779      2.565      3.456
REMARK INTER + INTRA:         -10.300
REMARK INTER:                  -9.546
REMARK INTRA:                  -0.754
REMARK UNBOUND:                -0.702
REMARK  Name = 
REMARK  4 active torsions:
REMARK  status: ('A' for Active; 'I' for Inactive)
REMARK    1  A    between atoms: C_5  and  N_6
REMARK    2  A    between atoms: N_6  and  C_7
REMARK    3  A    between atoms: C_7  and  C_8
REMARK    4  A    between atoms: C_13  and  N_14
REMARK                            x       y       z     vdW  Elec       q    Type
REMARK                         _______ _______ _______ _____ _____    ______ ____
ROOT
ATOM      1  C   UNL     1      44.992   3.888  11.765  0.00  0.00    +0.000 A 
ATOM      2  C   UNL     1      45.758   3.188  12.698  0.00  0.00    +0.000 A 
ATOM      3  C   UNL     1      46.665   3.876  13.493  0.00  0.00    +0.000 A 
ATOM      4  F   UNL     1      47.380   3.203  14.406  0.00  0.00    +0.000 F 
ATOM      5  C   UNL     1      46.831   5.255  13.379  0.00  0.00    +0.000 A 
ATOM      6  C   UNL     1      46.096   5.986  12.442  0.00  0.00    +0.000 A 
ATOM      7  C   UNL     1      45.191   5.274  11.631  0.00  0.00    +0.000 A 
ENDROOT
BRANCH   6   8
ATOM      8  N   UNL     1      46.156   7.369  12.334  0.00  0.00    +0.000 N 
ATOM      9  C   UNL     1      47.440   8.048  12.087  0.00  0.00    +0.000 C 
ATOM     10  C   UNL     1      47.316   9.507  12.563  0.00  0.00    +0.000 C 
ATOM     11  O   UNL     1      46.239  10.189  11.896  0.00  0.00    +0.000 OA
ATOM     12  C   UNL     1      44.991   9.517  12.143  0.00  0.00    +0.000 C 
ATOM     13  C   UNL     1      45.030   8.054  11.666  0.00  0.00    +0.000 C 
ENDBRANCH   6   8
BRANCH   1  14
ATOM     14  C   UNL     1      43.956   3.174  10.930  0.00  0.00    +0.000 C 
BRANCH  14  15
ATOM     15  N   UNL     1      43.992   3.687   9.567  0.00  0.00    +0.000 N 
ATOM     16  H   UNL     1      43.081   3.642   9.117  0.00  0.00    +0.000 HD
BRANCH  15  21
ATOM     17  N   UNL     1      48.413   2.510   6.403  0.00  0.00    +0.000 N 
ATOM     18  C   UNL     1      47.266   2.748   7.154  0.00  0.00    +0.000 A 
ATOM     19  C   UNL     1      46.635   1.716   7.829  0.00  0.00    +0.000 A 
ATOM     20  C   UNL     1      45.514   1.998   8.615  0.00  0.00    +0.000 A 
ATOM     21  C   UNL     1      45.030   3.301   8.714  0.00  0.00    +0.000 A 
ATOM     22  C   UNL     1      45.769   4.262   8.019  0.00  0.00    +0.000 A 
ATOM     23  N   UNL     1      46.851   4.019   7.235  0.00  0.00    +0.000 NA
ATOM     24  H   UNL     1      48.272   1.778   5.718  0.00  0.00    +0.000 HD
ATOM     25  H   UNL     1      48.671   3.396   5.973  0.00  0.00    +0.000 HD
ENDBRANCH  15  21
ENDBRANCH  14  15
ENDBRANCH   1  14
TORSDOF 4
ENDMDL
MODEL 3
REMARK VINA RESULT:    -7.627      2.589      3.319
REMARK INTER + INTRA:         -10.112
REMARK INTER:                  -9.408
REMARK INTRA:                  -0.704
REMARK UNBOUND:                -0.702
REMARK  Name = 
REMARK  4 active torsions:
REMARK  status: ('A' for Active; 'I' for Inactive)
REMARK    1  A    between atoms: C_5  and  N_6
REMARK    2  A    between atoms: N_6  and  C_7
REMARK    3  A    between atoms: C_7  and  C_8
REMARK    4  A    between atoms: C_13  and  N_14
REMARK                            x       y       z     vdW  Elec       q    Type
REMARK                         _______ _______ _______ _____ _____    ______ ____
ROOT
ATOM      1  C   UNL     1      44.784   4.683  11.567  0.00  0.00    +0.000 A 
ATOM      2  C   UNL     1      45.423   3.851  12.488  0.00  0.00    +0.000 A 
ATOM      3  C   UNL     1      46.422   4.371  13.301  0.00  0.00    +0.000 A 
ATOM      4  F   UNL     1      47.014   3.575  14.203  0.00  0.00    +0.000 F 
ATOM      5  C   UNL     1      46.804   5.708  13.217  0.00  0.00    +0.000 A 
ATOM      6  C   UNL     1      46.201   6.566  12.292  0.00  0.00    +0.000 A 
ATOM      7  C   UNL     1      45.201   6.022  11.463  0.00  0.00    +0.000 A 
ENDROOT
BRANCH   6   8
ATOM      8  N   UNL     1      46.480   7.923  12.214  0.00  0.00    +0.000 N 
ATOM      9  C   UNL     1      45.466   8.921  12.597  0.00  0.00    +0.000 C 
ATOM     10  C   UNL     1      45.812  10.253  11.907  0.00  0.00    +0.000 C 
ATOM     11  O   UNL     1      47.132  10.702  12.261  0.00  0.00    +0.000 OA
ATOM     12  C   UNL     1      48.114   9.720  11.884  0.00  0.00    +0.000 C 
ATOM     13  C   UNL     1      47.848   8.363  12.560  0.00  0.00    +0.000 C 
ENDBRANCH   6   8
BRANCH   1  14
ATOM     14  C   UNL     1      43.654   4.159  10.713  0.00  0.00    +0.000 C 
BRANCH  14  15
ATOM     15  N   UNL     1      43.986   4.334   9.305  0.00  0.00    +0.000 N 
ATOM     16  H   UNL     1      43.157   4.358   8.717  0.00  0.00    +0.000 HD
BRANCH  15  21
ATOM     17  N   UNL     1      47.751   1.007   6.918  0.00  0.00    +0.000 N 
ATOM     18  C   UNL     1      46.870   1.888   7.538  0.00  0.00    +0.000 A 
ATOM     19  C   UNL     1      46.862   3.233   7.207  0.00  0.00    +0.000 A 
ATOM     20  C   UNL     1      45.930   4.081   7.812  0.00  0.00    +0.000 A 
ATOM     21  C   UNL     1      45.022   3.582   8.744  0.00  0.00    +0.000 A 
ATOM     22  C   UNL     1      45.100   2.205   8.970  0.00  0.00    +0.000 A 
ATOM     23  N   UNL     1      46.004   1.358   8.411  0.00  0.00    +0.000 NA
ATOM     24  H   UNL     1      48.711   1.315   6.996  0.00  0.00    +0.000 HD
ATOM     25  H   UNL     1      47.602   0.095   7.344  0.00  0.00    +0.000 HD
ENDBRANCH  15  21
ENDBRANCH  14  15
ENDBRANCH   1  14
TORSDOF 4
ENDMDL
MODEL 4
REMARK VINA RESULT:    -7.051      1.612      2.088
REMARK INTER + INTRA:          -9.402
REMARK INTER:                  -8.915
REMARK INTRA:                  -0.487
REMARK UNBOUND:                -0.702
REMARK  Name = 
REMARK  4 active torsions:
REMARK  status: ('A' for Active; 'I' for Inactive)
REMARK    1  A    between atoms: C_5  and  N_6
REMARK    2  A    between atoms: N_6  and  C_7
REMARK    3  A    between atoms: C_7  and  C_8
REMARK    4  A    between atoms: C_13  and  N_14
REMARK                            x       y       z     vdW  Elec       q    Type
REMARK                         _______ _______ _______ _____ _____    ______ ____
ROOT
ATOM      1  C   UNL     1      45.417   5.324  12.011  0.00  0.00    +0.000 A 
ATOM      2  C   UNL     1      46.193   6.239  11.297  0.00  0.00    +0.000 A 
ATOM      3  C   UNL     1      47.341   6.762  11.876  0.00  0.00    +0.000 A 
ATOM      4  F   UNL     1      48.097   7.620  11.176  0.00  0.00    +0.000 F 
ATOM      5  C   UNL     1      47.739   6.395  13.160  0.00  0.00    +0.000 A 
ATOM      6  C   UNL     1      46.976   5.499  13.914  0.00  0.00    +0.000 A 
ATOM      7  C   UNL     1      45.806   4.987  13.321  0.00  0.00    +0.000 A 
ENDROOT
BRANCH   6   8
ATOM      8  N   UNL     1      47.359   5.033  15.165  0.00  0.00    +0.000 N 
ATOM      9  C   UNL     1      47.413   3.588  15.443  0.00  0.00    +0.000 C 
ATOM     10  C   UNL     1      47.309   3.383  16.965  0.00  0.00    +0.000 C 
ATOM     11  O   UNL     1      48.356   4.080  17.664  0.00  0.00    +0.000 OA
ATOM     12  C   UNL     1      48.295   5.490  17.384  0.00  0.00    +0.000 C 
ATOM     13  C   UNL     1      48.421   5.775  15.876  0.00  0.00    +0.000 C 
ENDBRANCH   6   8
BRANCH   1  14
ATOM     14  C   UNL     1      44.197   4.695  11.383  0.00  0.00    +0.000 C 
BRANCH  14  15
ATOM     15  N   UNL     1      44.288   4.798   9.933  0.00  0.00    +0.000 N 
ATOM     16  H   UNL     1      43.377   4.933   9.501  0.00  0.00    +0.000 HD
BRANCH  15  21
ATOM     17  N   UNL     1      47.046   0.922   7.050  0.00  0.00    +0.000 N 
ATOM     18  C   UNL     1      46.426   1.930   7.781  0.00  0.00    +0.000 A 
ATOM     19  C   UNL     1      46.557   3.258   7.409  0.00  0.00    +0.000 A 
ATOM     20  C   UNL     1      45.880   4.242   8.135  0.00  0.00    +0.000 A 
ATOM     21  C   UNL     1      45.088   3.894   9.228  0.00  0.00    +0.000 A 
ATOM     22  C   UNL     1      45.002   2.523   9.486  0.00  0.00    +0.000 A 
ATOM     23  N   UNL     1      45.660   1.545   8.810  0.00  0.00    +0.000 NA
ATOM     24  H   UNL     1      48.040   1.083   6.950  0.00  0.00    +0.000 HD
ATOM     25  H   UNL     1      46.844   0.047   7.527  0.00  0.00    +0.000 HD
ENDBRANCH  15  21
ENDBRANCH  14  15
ENDBRANCH   1  14
TORSDOF 4
ENDMDL
MODEL 5
REMARK VINA RESULT:    -7.031      3.792      7.171
REMARK INTER + INTRA:          -9.377
REMARK INTER:                  -8.759
REMARK INTRA:                  -0.618
REMARK UNBOUND:                -0.702
REMARK  Name = 
REMARK  4 active torsions:
REMARK  status: ('A' for Active; 'I' for Inactive)
REMARK    1  A    between atoms: C_5  and  N_6
REMARK    2  A    between atoms: N_6  and  C_7
REMARK    3  A    between atoms: C_7  and  C_8
REMARK    4  A    between atoms: C_13  and  N_14
REMARK                            x       y       z     vdW  Elec       q    Type
REMARK                         _______ _______ _______ _____ _____    ______ ____
ROOT
ATOM      1  C   UNL     1      47.945   6.415  14.231  0.00  0.00    +0.000 A 
ATOM      2  C   UNL     1      48.600   7.227  13.303  0.00  0.00    +0.000 A 
ATOM      3  C   UNL     1      48.119   7.304  12.002  0.00  0.00    +0.000 A 
ATOM      4  F   UNL     1      48.735   8.106  11.121  0.00  0.00    +0.000 F 
ATOM      5  C   UNL     1      46.997   6.584  11.599  0.00  0.00    +0.000 A 
ATOM      6  C   UNL     1      46.328   5.744  12.494  0.00  0.00    +0.000 A 
ATOM      7  C   UNL     1      46.834   5.664  13.806  0.00  0.00    +0.000 A 
ENDROOT
BRANCH   6   8
ATOM      8  N   UNL     1      45.160   5.064  12.178  0.00  0.00    +0.000 N 
ATOM      9  C   UNL     1      44.218   5.611  11.186  0.00  0.00    +0.000 C 
ATOM     10  C   UNL     1      42.832   4.993  11.443  0.00  0.00    +0.000 C 
ATOM     11  O   UNL     1      42.874   3.556  11.372  0.00  0.00    +0.000 OA
ATOM     12  C   UNL     1      43.798   3.033  12.343  0.00  0.00    +0.000 C 
ATOM     13  C   UNL     1      45.218   3.588  12.132  0.00  0.00    +0.000 C 
ENDBRANCH   6   8
BRANCH   1  14
ATOM     14  C   UNL     1      48.410   6.360  15.666  0.00  0.00    +0.000 C 
BRANCH  14  15
ATOM     15  N   UNL     1      47.842   5.187  16.317  0.00  0.00    +0.000 N 
ATOM     16  H   UNL     1      47.188   5.437  17.054  0.00  0.00    +0.000 HD
BRANCH  15  21
ATOM     17  N   UNL     1      51.239   0.884  17.260  0.00  0.00    +0.000 N 
ATOM     18  C   UNL     1      50.382   1.969  17.104  0.00  0.00    +0.000 A 
ATOM     19  C   UNL     1      50.661   3.184  17.707  0.00  0.00    +0.000 A 
ATOM     20  C   UNL     1      49.806   4.268  17.490  0.00  0.00    +0.000 A 
ATOM     21  C   UNL     1      48.680   4.128  16.680  0.00  0.00    +0.000 A 
ATOM     22  C   UNL     1      48.522   2.868  16.097  0.00  0.00    +0.000 A 
ATOM     23  N   UNL     1      49.325   1.792  16.301  0.00  0.00    +0.000 NA
ATOM     24  H   UNL     1      51.410   0.674  18.235  0.00  0.00    +0.000 HD
ATOM     25  H   UNL     1      50.814   0.102  16.766  0.00  0.00    +0.000 HD
ENDBRANCH  15  21
ENDBRANCH  14  15
ENDBRANCH   1  14
TORSDOF 4
ENDMDL
MODEL 6
REMARK VINA RESULT:    -6.788      3.383      4.505
REMARK INTER + INTRA:          -9.078
REMARK INTER:                  -8.452
REMARK INTRA:                  -0.625
REMARK UNBOUND:                -0.702
REMARK  Name = 
REMARK  4 active torsions:
REMARK  status: ('A' for Active; 'I' for Inactive)
REMARK    1  A    between atoms: C_5  and  N_6
REMARK    2  A    between atoms: N_6  and  C_7
REMARK    3  A    between atoms: C_7  and  C_8
REMARK    4  A    between atoms: C_13  and  N_14
REMARK                            x       y       z     vdW  Elec       q    Type
REMARK                         _______ _______ _______ _____ _____    ______ ____
ROOT
ATOM      1  C   UNL     1      44.953   5.904  11.702  0.00  0.00    +0.000 A 
ATOM      2  C   UNL     1      46.069   5.603  12.484  0.00  0.00    +0.000 A 
ATOM      3  C   UNL     1      46.843   6.635  12.998  0.00  0.00    +0.000 A 
ATOM      4  F   UNL     1      47.898   6.341  13.772  0.00  0.00    +0.000 F 
ATOM      5  C   UNL     1      46.532   7.970  12.749  0.00  0.00    +0.000 A 
ATOM      6  C   UNL     1      45.434   8.310  11.952  0.00  0.00    +0.000 A 
ATOM      7  C   UNL     1      44.667   7.254  11.424  0.00  0.00    +0.000 A 
ENDROOT
BRANCH   6   8
ATOM      8  N   UNL     1      45.025   9.618  11.733  0.00  0.00    +0.000 N 
ATOM      9  C   UNL     1      46.014  10.685  11.500  0.00  0.00    +0.000 C 
ATOM     10  C   UNL     1      45.361  12.035  11.844  0.00  0.00    +0.000 C 
ATOM     11  O   UNL     1      44.172  12.259  11.065  0.00  0.00    +0.000 OA
ATOM     12  C   UNL     1      43.214  11.211  11.299  0.00  0.00    +0.000 C 
ATOM     13  C   UNL     1      43.790   9.827  10.949  0.00  0.00    +0.000 C 
ENDBRANCH   6   8
BRANCH   1  14
ATOM     14  C   UNL     1      44.061   4.804  11.180  0.00  0.00    +0.000 C 
BRANCH  14  15
ATOM     15  N   UNL     1      44.132   4.768   9.725  0.00  0.00    +0.000 N 
ATOM     16  H   UNL     1      43.210   4.787   9.296  0.00  0.00    +0.000 HD
BRANCH  15  21
ATOM     17  N   UNL     1      47.159   0.877   7.148  0.00  0.00    +0.000 N 
ATOM     18  C   UNL     1      46.470   1.891   7.806  0.00  0.00    +0.000 A 
ATOM     19  C   UNL     1      46.592   3.210   7.400  0.00  0.00    +0.000 A 
ATOM     20  C   UNL     1      45.848   4.198   8.050  0.00  0.00    +0.000 A 
ATOM     21  C   UNL     1      44.996   3.863   9.101  0.00  0.00    +0.000 A 
ATOM     22  C   UNL     1      44.927   2.499   9.398  0.00  0.00    +0.000 A 
ATOM     23  N   UNL     1      45.649   1.518   8.796  0.00  0.00    +0.000 NA
ATOM     24  H   UNL     1      48.153   1.060   7.106  0.00  0.00    +0.000 HD
ATOM     25  H   UNL     1      46.947   0.011   7.640  0.00  0.00    +0.000 HD
ENDBRANCH  15  21
ENDBRANCH  14  15
ENDBRANCH   1  14
TORSDOF 4
ENDMDL
MODEL 7
REMARK VINA RESULT:    -6.727      3.135      6.526
REMARK INTER + INTRA:          -9.002
REMARK INTER:                  -8.333
REMARK INTRA:                  -0.670
REMARK UNBOUND:                -0.702
REMARK  Name = 
REMARK  4 active torsions:
REMARK  status: ('A' for Active; 'I' for Inactive)
REMARK    1  A    between atoms: C_5  and  N_6
REMARK    2  A    between atoms: N_6  and  C_7
REMARK    3  A    between atoms: C_7  and  C_8
REMARK    4  A    between atoms: C_13  and  N_14
REMARK                            x       y       z     vdW  Elec       q    Type
REMARK                         _______ _______ _______ _____ _____    ______ ____
ROOT
ATOM      1  C   UNL     1      44.508   5.253  11.133  0.00  0.00    +0.000 A 
ATOM      2  C   UNL     1      43.855   4.417  12.040  0.00  0.00    +0.000 A 
ATOM      3  C   UNL     1      43.797   3.052  11.793  0.00  0.00    +0.000 A 
ATOM      4  F   UNL     1      43.193   2.249  12.681  0.00  0.00    +0.000 F 
ATOM      5  C   UNL     1      44.374   2.495  10.654  0.00  0.00    +0.000 A 
ATOM      6  C   UNL     1      45.018   3.303   9.712  0.00  0.00    +0.000 A 
ATOM      7  C   UNL     1      45.057   4.688   9.967  0.00  0.00    +0.000 A 
ENDROOT
BRANCH   6   8
ATOM      8  N   UNL     1      45.681   2.802   8.600  0.00  0.00    +0.000 N 
ATOM      9  C   UNL     1      45.808   1.350   8.393  0.00  0.00    +0.000 C 
ATOM     10  C   UNL     1      47.006   1.096   7.461  0.00  0.00    +0.000 C 
ATOM     11  O   UNL     1      46.850   1.781   6.205  0.00  0.00    +0.000 OA
ATOM     12  C   UNL     1      46.726   3.198   6.418  0.00  0.00    +0.000 C 
ATOM     13  C   UNL     1      45.527   3.532   7.324  0.00  0.00    +0.000 C 
ENDBRANCH   6   8
BRANCH   1  14
ATOM     14  C   UNL     1      44.638   6.732  11.407  0.00  0.00    +0.000 C 
BRANCH  14  15
ATOM     15  N   UNL     1      45.287   6.933  12.696  0.00  0.00    +0.000 N 
ATOM     16  H   UNL     1      44.747   7.541  13.306  0.00  0.00    +0.000 HD
BRANCH  15  21
ATOM     17  N   UNL     1      50.815   7.553  12.705  0.00  0.00    +0.000 N 
ATOM     18  C   UNL     1      49.426   7.474  12.731  0.00  0.00    +0.000 A 
ATOM     19  C   UNL     1      48.651   8.407  12.064  0.00  0.00    +0.000 A 
ATOM     20  C   UNL     1      47.260   8.270  12.067  0.00  0.00    +0.000 A 
ATOM     21  C   UNL     1      46.657   7.209  12.740  0.00  0.00    +0.000 A 
ATOM     22  C   UNL     1      47.541   6.311  13.345  0.00  0.00    +0.000 A 
ATOM     23  N   UNL     1      48.894   6.426  13.373  0.00  0.00    +0.000 NA
ATOM     24  H   UNL     1      51.148   8.457  13.013  0.00  0.00    +0.000 HD
ATOM     25  H   UNL     1      51.163   6.795  13.288  0.00  0.00    +0.000 HD
ENDBRANCH  15  21
ENDBRANCH  14  15
ENDBRANCH   1  14
TORSDOF 4
ENDMDL
MODEL 8
REMARK VINA RESULT:    -6.499      3.381      7.517
REMARK INTER + INTRA:          -8.721
REMARK INTER:                  -8.087
REMARK INTRA:                  -0.634
REMARK UNBOUND:                -0.702
REMARK  Name = 
REMARK  4 active torsions:
REMARK  status: ('A' for Active; 'I' for Inactive)
REMARK    1  A    between atoms: C_5  and  N_6
REMARK    2  A    between atoms: N_6  and  C_7
REMARK    3  A    between atoms: C_7  and  C_8
REMARK    4  A    between atoms: C_13  and  N_14
REMARK                            x       y       z     vdW  Elec       q    Type
REMARK                         _______ _______ _______ _____ _____    ______ ____
ROOT
ATOM      1  C   UNL     1      47.464   6.989  13.553  0.00  0.00    +0.000 A 
ATOM      2  C   UNL     1      46.974   8.281  13.353  0.00  0.00    +0.000 A 
ATOM      3  C   UNL     1      45.779   8.461  12.667  0.00  0.00    +0.000 A 
ATOM      4  F   UNL     1      45.299   9.702  12.501  0.00  0.00    +0.000 F 
ATOM      5  C   UNL     1      45.057   7.379  12.170  0.00  0.00    +0.000 A 
ATOM      6  C   UNL     1      45.528   6.072  12.332  0.00  0.00    +0.000 A 
ATOM      7  C   UNL     1      46.747   5.904  13.016  0.00  0.00    +0.000 A 
ENDROOT
BRANCH   6   8
ATOM      8  N   UNL     1      44.817   4.949  11.932  0.00  0.00    +0.000 N 
ATOM      9  C   UNL     1      43.781   4.366  12.802  0.00  0.00    +0.000 C 
ATOM     10  C   UNL     1      43.579   2.895  12.396  0.00  0.00    +0.000 C 
ATOM     11  O   UNL     1      43.211   2.776  11.010  0.00  0.00    +0.000 OA
ATOM     12  C   UNL     1      44.229   3.349  10.170  0.00  0.00    +0.000 C 
ATOM     13  C   UNL     1      44.468   4.833  10.500  0.00  0.00    +0.000 C 
ENDBRANCH   6   8
BRANCH   1  14
ATOM     14  C   UNL     1      48.728   6.761  14.345  0.00  0.00    +0.000 C 
BRANCH  14  15
ATOM     15  N   UNL     1      48.463   6.988  15.760  0.00  0.00    +0.000 N 
ATOM     16  H   UNL     1      48.962   7.799  16.118  0.00  0.00    +0.000 HD
BRANCH  15  21
ATOM     17  N   UNL     1      48.375   3.004  19.641  0.00  0.00    +0.000 N 
ATOM     18  C   UNL     1      48.430   3.947  18.619  0.00  0.00    +0.000 A 
ATOM     19  C   UNL     1      47.836   3.698  17.392  0.00  0.00    +0.000 A 
ATOM     20  C   UNL     1      47.865   4.685  16.405  0.00  0.00    +0.000 A 
ATOM     21  C   UNL     1      48.490   5.908  16.647  0.00  0.00    +0.000 A 
ATOM     22  C   UNL     1      49.021   6.059  17.931  0.00  0.00    +0.000 A 
ATOM     23  N   UNL     1      49.023   5.113  18.906  0.00  0.00    +0.000 NA
ATOM     24  H   UNL     1      48.727   2.103  19.344  0.00  0.00    +0.000 HD
ATOM     25  H   UNL     1      48.905   3.386  20.421  0.00  0.00    +0.000 HD
ENDBRANCH  15  21
ENDBRANCH  14  15
ENDBRANCH   1  14
TORSDOF 4
ENDMDL
MODEL 9
REMARK VINA RESULT:    -5.978      4.622      7.243
REMARK INTER + INTRA:          -8.078
REMARK INTER:                  -7.483
REMARK INTRA:                  -0.595
REMARK UNBOUND:                -0.702
REMARK  Name = 
REMARK  4 active torsions:
REMARK  status: ('A' for Active; 'I' for Inactive)
REMARK    1  A    between atoms: C_5  and  N_6
REMARK    2  A    between atoms: N_6  and  C_7
REMARK    3  A    between atoms: C_7  and  C_8
REMARK    4  A    between atoms: C_13  and  N_14
REMARK                            x       y       z     vdW  Elec       q    Type
REMARK                         _______ _______ _______ _____ _____    ______ ____
ROOT
ATOM      1  C   UNL     1      46.289   8.345  12.739  0.00  0.00    +0.000 A 
ATOM      2  C   UNL     1      47.429   8.069  13.497  0.00  0.00    +0.000 A 
ATOM      3  C   UNL     1      47.740   6.753  13.809  0.00  0.00    +0.000 A 
ATOM      4  F   UNL     1      48.850   6.491  14.515  0.00  0.00    +0.000 F 
ATOM      5  C   UNL     1      46.938   5.696  13.385  0.00  0.00    +0.000 A 
ATOM      6  C   UNL     1      45.778   5.935  12.642  0.00  0.00    +0.000 A 
ATOM      7  C   UNL     1      45.465   7.275  12.345  0.00  0.00    +0.000 A 
ENDROOT
BRANCH   6   8
ATOM      8  N   UNL     1      44.982   4.923  12.122  0.00  0.00    +0.000 N 
ATOM      9  C   UNL     1      43.867   4.367  12.907  0.00  0.00    +0.000 C 
ATOM     10  C   UNL     1      43.545   2.963  12.364  0.00  0.00    +0.000 C 
ATOM     11  O   UNL     1      43.217   3.002  10.963  0.00  0.00    +0.000 OA
ATOM     12  C   UNL     1      44.312   3.548  10.207  0.00  0.00    +0.000 C 
ATOM     13  C   UNL     1      44.675   4.968  10.677  0.00  0.00    +0.000 C 
ENDBRANCH   6   8
BRANCH   1  14
ATOM     14  C   UNL     1      45.960   9.762  12.334  0.00  0.00    +0.000 C 
BRANCH  14  15
ATOM     15  N   UNL     1      44.528   9.988  12.477  0.00  0.00    +0.000 N 
ATOM     16  H   UNL     1      44.043   9.165  12.826  0.00  0.00    +0.000 HD
BRANCH  15  21
ATOM     17  N   UNL     1      42.184  12.754   8.258  0.00  0.00    +0.000 N 
ATOM     18  C   UNL     1      42.697  12.032   9.331  0.00  0.00    +0.000 A 
ATOM     19  C   UNL     1      42.500  10.665   9.425  0.00  0.00    +0.000 A 
ATOM     20  C   UNL     1      43.071   9.961  10.488  0.00  0.00    +0.000 A 
ATOM     21  C   UNL     1      43.827  10.629  11.451  0.00  0.00    +0.000 A 
ATOM     22  C   UNL     1      43.988  12.000  11.233  0.00  0.00    +0.000 A 
ATOM     23  N   UNL     1      43.432  12.714  10.219  0.00  0.00    +0.000 NA
ATOM     24  H   UNL     1      41.188  12.612   8.148  0.00  0.00    +0.000 HD
ATOM     25  H   UNL     1      42.418  13.731   8.423  0.00  0.00    +0.000 HD
ENDBRANCH  15  21
ENDBRANCH  14  15
ENDBRANCH   1  14
TORSDOF 4
ENDMDL
