MODEL 1
REMARK VINA RESULT:    -8.625      0.000      0.000
REMARK INTER + INTRA:         -12.746
REMARK INTER:                 -11.651
REMARK INTRA:                  -1.095
REMARK UNBOUND:                -1.095
REMARK  Name = 
REMARK  6 active torsions:
REMARK  status: ('A' for Active; 'I' for Inactive)
REMARK    1  A    between atoms: C_2  and  C_4
REMARK    2  A    between atoms: C_7  and  N_8
REMARK    3  A    between atoms: N_8  and  C_9
REMARK    4  A    between atoms: C_9  and  C_10
REMARK    5  A    between atoms: C_10  and  C_13
REMARK    6  A    between atoms: C_17  and  C_18
REMARK                            x       y       z     vdW  Elec       q    Type
REMARK                         _______ _______ _______ _____ _____    ______ ____
ROOT
ATOM      1  C   UNL     1      43.397   5.602  11.996  0.00  0.00    +0.000 C 
ATOM      2  F   UNL     1      43.019   6.775  11.393  0.00  0.00    +0.000 F 
ATOM      3  F   UNL     1      42.490   5.421  13.005  0.00  0.00    +0.000 F 
ENDROOT
BRANCH   1   4
ATOM      4  C   UNL     1      44.814   5.669  12.521  0.00  0.00    +0.000 A 
ATOM      5  C   UNL     1      45.340   4.626  13.293  0.00  0.00    +0.000 A 
ATOM      6  C   UNL     1      46.651   4.691  13.755  0.00  0.00    +0.000 A 
ATOM      7  C   UNL     1      47.456   5.786  13.428  0.00  0.00    +0.000 A 
ATOM      8  C   UNL     1      46.980   6.833  12.619  0.00  0.00    +0.000 A 
ATOM      9  C   UNL     1      45.637   6.763  12.204  0.00  0.00    +0.000 A 
BRANCH   8  10
ATOM     10  C   UNL     1      47.871   7.911  12.127  0.00  0.00    +0.000 A 
ATOM     11  C   UNL     1      47.444   9.252  12.127  0.00  0.00    +0.000 A 
ATOM     12  C   UNL     1      48.313  10.297  11.802  0.00  0.00    +0.000 A 
ATOM     13  C   UNL     1      49.633  10.025  11.467  0.00  0.00    +0.000 A 
ATOM     14  C   UNL     1      50.076   8.707  11.425  0.00  0.00    +0.000 A 
ATOM     15  C   UNL     1      49.201   7.661  11.738  0.00  0.00    +0.000 A 
ENDBRANCH   8  10
ENDBRANCH   1   4
BRANCH   1  16
ATOM     16  C   UNL     1      43.223   4.465  10.955  0.00  0.00    +0.000 C 
BRANCH  16  17
ATOM     17  N   UNL     1      43.789   4.848   9.643  0.00  0.00    +0.000 N 
ATOM     18  H   UNL     1      44.238   5.762   9.678  0.00  0.00    +0.000 HD
BRANCH  17  22
ATOM     19  C   UNL     1      46.228   1.980   8.008  0.00  0.00    +0.000 A 
ATOM     20  C   UNL     1      46.272   3.287   7.546  0.00  0.00    +0.000 A 
ATOM     21  N   UNL     1      45.476   4.266   8.050  0.00  0.00    +0.000 NA
ATOM     22  C   UNL     1      44.614   3.905   9.025  0.00  0.00    +0.000 A 
ATOM     23  C   UNL     1      44.591   2.577   9.481  0.00  0.00    +0.000 A 
ATOM     24  N   UNL     1      45.376   1.582   8.991  0.00  0.00    +0.000 NA
BRANCH  19  26
ATOM     25  N   UNL     1      48.124   1.425   6.610  0.00  0.00    +0.000 N 
ATOM     26  C   UNL     1      47.135   0.951   7.429  0.00  0.00    +0.000 C 
ATOM     27  O   UNL     1      47.008  -0.244   7.667  0.00  0.00    +0.000 OA
ATOM     28  H   UNL     1      48.771   0.778   6.181  0.00  0.00    +0.000 HD
ATOM     29  H   UNL     1      48.203   2.420   6.434  0.00  0.00    +0.000 HD
ENDBRANCH  19  26
ENDBRANCH  17  22
ENDBRANCH  16  17
ENDBRANCH   1  16
TORSDOF 6
ENDMDL
MODEL 2
REMARK VINA RESULT:    -8.417      1.788      3.547
REMARK INTER + INTRA:         -12.465
REMARK INTER:                 -11.443
REMARK INTRA:                  -1.021
REMARK UNBOUND:                -1.095
REMARK  Name = 
REMARK  6 active torsions:
REMARK  status: ('A' for Active; 'I' for Inactive)
REMARK    1  A    between atoms: C_2  and  C_4
REMARK    2  A    between atoms: C_7  and  N_8
REMARK    3  A    between atoms: N_8  and  C_9
REMARK    4  A    between atoms: C_9  and  C_10
REMARK    5  A    between atoms: C_10  and  C_13
REMARK    6  A    between atoms: C_17  and  C_18
REMARK                            x       y       z     vdW  Elec       q    Type
REMARK                         _______ _______ _______ _____ _____    ______ ____
ROOT
ATOM      1  C   UNL     1      43.846   5.514  12.116  0.00  0.00    +0.000 C 
ATOM      2  F   UNL     1      43.308   6.590  11.455  0.00  0.00    +0.000 F 
ATOM      3  F   UNL     1      43.059   5.358  13.225  0.00  0.00    +0.000 F 
ENDROOT
BRANCH   1   4
ATOM      4  C   UNL     1      45.295   5.745  12.483  0.00  0.00    +0.000 A 
ATOM      5  C   UNL     1      46.105   6.576  11.702  0.00  0.00    +0.000 A 
ATOM      6  C   UNL     1      47.432   6.795  12.060  0.00  0.00    +0.000 A 
ATOM      7  C   UNL     1      47.953   6.206  13.216  0.00  0.00    +0.000 A 
ATOM      8  C   UNL     1      47.159   5.400  14.052  0.00  0.00    +0.000 A 
ATOM      9  C   UNL     1      45.834   5.159  13.641  0.00  0.00    +0.000 A 
BRANCH   8  10
ATOM     10  C   UNL     1      47.648   4.910  15.363  0.00  0.00    +0.000 A 
ATOM     11  C   UNL     1      47.384   3.593  15.781  0.00  0.00    +0.000 A 
ATOM     12  C   UNL     1      47.951   3.066  16.945  0.00  0.00    +0.000 A 
ATOM     13  C   UNL     1      48.798   3.848  17.720  0.00  0.00    +0.000 A 
ATOM     14  C   UNL     1      49.052   5.164  17.351  0.00  0.00    +0.000 A 
ATOM     15  C   UNL     1      48.471   5.694  16.193  0.00  0.00    +0.000 A 
ENDBRANCH   8  10
ENDBRANCH   1   4
BRANCH   1  16
ATOM     16  C   UNL     1      43.675   4.272  11.201  0.00  0.00    +0.000 C 
BRANCH  16  17
ATOM     17  N   UNL     1      43.751   4.645   9.772  0.00  0.00    +0.000 N 
ATOM     18  H   UNL     1      43.804   5.654   9.646  0.00  0.00    +0.000 HD
BRANCH  17  22
ATOM     19  C   UNL     1      46.629   2.586   7.691  0.00  0.00    +0.000 A 
ATOM     20  C   UNL     1      46.514   3.962   7.559  0.00  0.00    +0.000 A 
ATOM     21  N   UNL     1      45.570   4.682   8.220  0.00  0.00    +0.000 NA
ATOM     22  C   UNL     1      44.723   3.990   9.012  0.00  0.00    +0.000 A 
ATOM     23  C   UNL     1      44.861   2.599   9.134  0.00  0.00    +0.000 A 
ATOM     24  N   UNL     1      45.796   1.858   8.483  0.00  0.00    +0.000 NA
BRANCH  19  26
ATOM     25  N   UNL     1      48.591   2.627   6.275  0.00  0.00    +0.000 N 
ATOM     26  C   UNL     1      47.692   1.850   6.955  0.00  0.00    +0.000 C 
ATOM     27  O   UNL     1      47.762   0.627   6.954  0.00  0.00    +0.000 OA
ATOM     28  H   UNL     1      49.335   2.189   5.751  0.00  0.00    +0.000 HD
ATOM     29  H   UNL     1      48.505   3.637   6.296  0.00  0.00    +0.000 HD
ENDBRANCH  19  26
ENDBRANCH  17  22
ENDBRANCH  16  17
ENDBRANCH   1  16
TORSDOF 6
ENDMDL
MODEL 3
REMARK VINA RESULT:    -8.296      1.242      2.017
REMARK INTER + INTRA:         -12.301
REMARK INTER:                 -11.255
REMARK INTRA:                  -1.046
REMARK UNBOUND:                -1.095
REMARK  Name = 
REMARK  6 active torsions:
REMARK  status: ('A' for Active; 'I' for Inactive)
REMARK    1  A    between atoms: C_2  and  C_4
REMARK    2  A    between atoms: C_7  and  N_8
REMARK    3  A    between atoms: N_8  and  C_9
REMARK    4  A    between atoms: C_9  and  C_10
REMARK    5  A    between atoms: C_10  and  C_13
REMARK    6  A    between atoms: C_17  and  C_18
REMARK                            x       y       z     vdW  Elec       q    Type
REMARK                         _______ _______ _______ _____ _____    ______ ____
ROOT
ATOM      1  C   UNL     1      43.344   4.644  12.506  0.00  0.00    +0.000 C 
ATOM      2  F   UNL     1      42.356   5.553  12.223  0.00  0.00    +0.000 F 
ATOM      3  F   UNL     1      42.890   3.965  13.603  0.00  0.00    +0.000 F 
ENDROOT
BRANCH   1   4
ATOM      4  C   UNL     1      44.671   5.320  12.774  0.00  0.00    +0.000 A 
ATOM      5  C   UNL     1      45.782   4.574  13.182  0.00  0.00    +0.000 A 
ATOM      6  C   UNL     1      47.002   5.204  13.409  0.00  0.00    +0.000 A 
ATOM      7  C   UNL     1      47.129   6.581  13.204  0.00  0.00    +0.000 A 
ATOM      8  C   UNL     1      46.048   7.360  12.752  0.00  0.00    +0.000 A 
ATOM      9  C   UNL     1      44.815   6.704  12.575  0.00  0.00    +0.000 A 
BRANCH   8  10
ATOM     10  C   UNL     1      46.212   8.782  12.370  0.00  0.00    +0.000 A 
ATOM     11  C   UNL     1      47.489   9.313  12.111  0.00  0.00    +0.000 A 
ATOM     12  C   UNL     1      47.657  10.609  11.615  0.00  0.00    +0.000 A 
ATOM     13  C   UNL     1      46.548  11.407  11.366  0.00  0.00    +0.000 A 
ATOM     14  C   UNL     1      45.274  10.923  11.644  0.00  0.00    +0.000 A 
ATOM     15  C   UNL     1      45.109   9.630  12.154  0.00  0.00    +0.000 A 
ENDBRANCH   8  10
ENDBRANCH   1   4
BRANCH   1  16
ATOM     16  C   UNL     1      43.432   3.662  11.308  0.00  0.00    +0.000 C 
BRANCH  16  17
ATOM     17  N   UNL     1      43.872   4.355  10.078  0.00  0.00    +0.000 N 
ATOM     18  H   UNL     1      44.178   5.307  10.269  0.00  0.00    +0.000 HD
BRANCH  17  22
ATOM     19  C   UNL     1      46.564   2.502   7.595  0.00  0.00    +0.000 A 
ATOM     20  C   UNL     1      45.797   1.759   8.480  0.00  0.00    +0.000 A 
ATOM     21  N   UNL     1      44.902   2.331   9.327  0.00  0.00    +0.000 NA
ATOM     22  C   UNL     1      44.799   3.677   9.283  0.00  0.00    +0.000 A 
ATOM     23  C   UNL     1      45.581   4.408   8.375  0.00  0.00    +0.000 A 
ATOM     24  N   UNL     1      46.483   3.858   7.520  0.00  0.00    +0.000 NA
BRANCH  19  26
ATOM     25  N   UNL     1      48.628   2.545   6.331  0.00  0.00    +0.000 N 
ATOM     26  C   UNL     1      47.518   1.821   6.678  0.00  0.00    +0.000 C 
ATOM     27  O   UNL     1      47.328   0.687   6.257  0.00  0.00    +0.000 OA
ATOM     28  H   UNL     1      49.313   2.143   5.707  0.00  0.00    +0.000 HD
ATOM     29  H   UNL     1      48.757   3.482   6.698  0.00  0.00    +0.000 HD
ENDBRANCH  19  26
ENDBRANCH  17  22
ENDBRANCH  16  17
ENDBRANCH   1  16
TORSDOF 6
ENDMDL
MODEL 4
REMARK VINA RESULT:    -7.310      1.743      2.534
REMARK INTER + INTRA:         -10.969
REMARK INTER:                 -10.057
REMARK INTRA:                  -0.912
REMARK UNBOUND:                -1.095
REMARK  Name = 
REMARK  6 active torsions:
REMARK  status: ('A' for Active; 'I' for Inactive)
REMARK    1  A    between atoms: C_2  and  C_4
REMARK    2  A    between atoms: C_7  and  N_8
REMARK    3  A    between atoms: N_8  and  C_9
REMARK    4  A    between atoms: C_9  and  C_10
REMARK    5  A    between atoms: C_10  and  C_13
REMARK    6  A    between atoms: C_17  and  C_18
REMARK                            x       y       z     vdW  Elec       q    Type
REMARK                         _______ _______ _______ _____ _____    ______ ____
ROOT
ATOM      1  C   UNL     1      44.096   4.870  12.496  0.00  0.00    +0.000 C 
ATOM      2  F   UNL     1      42.834   5.256  12.122  0.00  0.00    +0.000 F 
ATOM      3  F   UNL     1      43.944   4.355  13.755  0.00  0.00    +0.000 F 
ENDROOT
BRANCH   1   4
ATOM      4  C   UNL     1      45.069   6.028  12.477  0.00  0.00    +0.000 A 
ATOM      5  C   UNL     1      44.751   7.216  11.810  0.00  0.00    +0.000 A 
ATOM      6  C   UNL     1      45.647   8.281  11.813  0.00  0.00    +0.000 A 
ATOM      7  C   UNL     1      46.857   8.177  12.506  0.00  0.00    +0.000 A 
ATOM      8  C   UNL     1      47.195   7.016  13.226  0.00  0.00    +0.000 A 
ATOM      9  C   UNL     1      46.291   5.939  13.166  0.00  0.00    +0.000 A 
BRANCH   8  10
ATOM     10  C   UNL     1      48.391   6.956  14.100  0.00  0.00    +0.000 A 
ATOM     11  C   UNL     1      49.574   7.629  13.744  0.00  0.00    +0.000 A 
ATOM     12  C   UNL     1      50.665   7.703  14.614  0.00  0.00    +0.000 A 
ATOM     13  C   UNL     1      50.597   7.104  15.866  0.00  0.00    +0.000 A 
ATOM     14  C   UNL     1      49.453   6.403  16.233  0.00  0.00    +0.000 A 
ATOM     15  C   UNL     1      48.368   6.318  15.354  0.00  0.00    +0.000 A 
ENDBRANCH   8  10
ENDBRANCH   1   4
BRANCH   1  16
ATOM     16  C   UNL     1      44.539   3.731  11.539  0.00  0.00    +0.000 C 
BRANCH  16  17
ATOM     17  N   UNL     1      44.151   4.025  10.142  0.00  0.00    +0.000 N 
ATOM     18  H   UNL     1      43.994   5.021   9.995  0.00  0.00    +0.000 HD
BRANCH  17  22
ATOM     19  C   UNL     1      46.625   2.313   7.350  0.00  0.00    +0.000 A 
ATOM     20  C   UNL     1      46.408   3.682   7.352  0.00  0.00    +0.000 A 
ATOM     21  N   UNL     1      45.589   4.290   8.249  0.00  0.00    +0.000 NA
ATOM     22  C   UNL     1      44.972   3.491   9.146  0.00  0.00    +0.000 A 
ATOM     23  C   UNL     1      45.212   2.108   9.130  0.00  0.00    +0.000 A 
ATOM     24  N   UNL     1      46.025   1.479   8.241  0.00  0.00    +0.000 NA
BRANCH  19  26
ATOM     25  N   UNL     1      48.621   2.468   5.989  0.00  0.00    +0.000 N 
ATOM     26  C   UNL     1      47.545   1.702   6.352  0.00  0.00    +0.000 C 
ATOM     27  O   UNL     1      47.356   0.587   5.882  0.00  0.00    +0.000 OA
ATOM     28  H   UNL     1      49.281   2.114   5.312  0.00  0.00    +0.000 HD
ATOM     29  H   UNL     1      48.749   3.387   6.398  0.00  0.00    +0.000 HD
ENDBRANCH  19  26
ENDBRANCH  17  22
ENDBRANCH  16  17
ENDBRANCH   1  16
TORSDOF 6
ENDMDL
MODEL 5
REMARK VINA RESULT:    -7.225      4.775      7.537
REMARK INTER + INTRA:         -10.854
REMARK INTER:                  -9.685
REMARK INTRA:                  -1.170
REMARK UNBOUND:                -1.095
REMARK  Name = 
REMARK  6 active torsions:
REMARK  status: ('A' for Active; 'I' for Inactive)
REMARK    1  A    between atoms: C_2  and  C_4
REMARK    2  A    between atoms: C_7  and  N_8
REMARK    3  A    between atoms: N_8  and  C_9
REMARK    4  A    between atoms: C_9  and  C_10
REMARK    5  A    between atoms: C_10  and  C_13
REMARK    6  A    between atoms: C_17  and  C_18
REMARK                            x       y       z     vdW  Elec       q    Type
REMARK                         _______ _______ _______ _____ _____    ______ ____
ROOT
ATOM      1  C   UNL     1      48.951   8.439  12.318  0.00  0.00    +0.000 C 
ATOM      2  F   UNL     1      49.118   9.709  12.808  0.00  0.00    +0.000 F 
ATOM      3  F   UNL     1      49.648   8.426  11.141  0.00  0.00    +0.000 F 
ENDROOT
BRANCH   1   4
ATOM      4  C   UNL     1      47.491   8.103  12.109  0.00  0.00    +0.000 A 
ATOM      5  C   UNL     1      46.494   9.044  12.390  0.00  0.00    +0.000 A 
ATOM      6  C   UNL     1      45.155   8.729  12.178  0.00  0.00    +0.000 A 
ATOM      7  C   UNL     1      44.803   7.480  11.658  0.00  0.00    +0.000 A 
ATOM      8  C   UNL     1      45.777   6.523  11.321  0.00  0.00    +0.000 A 
ATOM      9  C   UNL     1      47.119   6.851  11.589  0.00  0.00    +0.000 A 
BRANCH   8  10
ATOM     10  C   UNL     1      45.430   5.267  10.614  0.00  0.00    +0.000 A 
ATOM     11  C   UNL     1      44.808   4.206  11.299  0.00  0.00    +0.000 A 
ATOM     12  C   UNL     1      44.345   3.071  10.628  0.00  0.00    +0.000 A 
ATOM     13  C   UNL     1      44.494   2.970   9.250  0.00  0.00    +0.000 A 
ATOM     14  C   UNL     1      45.135   3.987   8.550  0.00  0.00    +0.000 A 
ATOM     15  C   UNL     1      45.610   5.116   9.226  0.00  0.00    +0.000 A 
ENDBRANCH   8  10
ENDBRANCH   1   4
BRANCH   1  16
ATOM     16  C   UNL     1      49.629   7.461  13.314  0.00  0.00    +0.000 C 
BRANCH  16  17
ATOM     17  N   UNL     1      49.233   7.757  14.708  0.00  0.00    +0.000 N 
ATOM     18  H   UNL     1      48.598   8.552  14.761  0.00  0.00    +0.000 HD
BRANCH  17  22
ATOM     19  C   UNL     1      47.996   4.603  17.027  0.00  0.00    +0.000 A 
ATOM     20  C   UNL     1      47.680   4.651  15.677  0.00  0.00    +0.000 A 
ATOM     21  N   UNL     1      48.058   5.680  14.875  0.00  0.00    +0.000 NA
ATOM     22  C   UNL     1      48.754   6.680  15.458  0.00  0.00    +0.000 A 
ATOM     23  C   UNL     1      49.068   6.607  16.824  0.00  0.00    +0.000 A 
ATOM     24  N   UNL     1      48.699   5.590  17.645  0.00  0.00    +0.000 NA
BRANCH  19  26
ATOM     25  N   UNL     1      48.335   3.188  18.960  0.00  0.00    +0.000 N 
ATOM     26  C   UNL     1      47.568   3.444  17.855  0.00  0.00    +0.000 C 
ATOM     27  O   UNL     1      46.594   2.758  17.570  0.00  0.00    +0.000 OA
ATOM     28  H   UNL     1      48.102   2.412  19.562  0.00  0.00    +0.000 HD
ATOM     29  H   UNL     1      49.135   3.775  19.168  0.00  0.00    +0.000 HD
ENDBRANCH  19  26
ENDBRANCH  17  22
ENDBRANCH  16  17
ENDBRANCH   1  16
TORSDOF 6
ENDMDL
MODEL 6
REMARK VINA RESULT:    -6.984      4.009      7.416
REMARK INTER + INTRA:         -10.528
REMARK INTER:                  -9.520
REMARK INTRA:                  -1.008
REMARK UNBOUND:                -1.095
REMARK  Name = 
REMARK  6 active torsions:
REMARK  status: ('A' for Active; 'I' for Inactive)
REMARK    1  A    between atoms: C_2  and  C_4
REMARK    2  A    between atoms: C_7  and  N_8
REMARK    3  A    between atoms: N_8  and  C_9
REMARK    4  A    between atoms: C_9  and  C_10
REMARK    5  A    between atoms: C_10  and  C_13
REMARK    6  A    between atoms: C_17  and  C_18
REMARK                            x       y       z     vdW  Elec       q    Type
REMARK                         _______ _______ _______ _____ _____    ______ ____
ROOT
ATOM      1  C   UNL     1      44.125   3.460  11.863  0.00  0.00    +0.000 C 
ATOM      2  F   UNL     1      44.304   2.105  11.981  0.00  0.00    +0.000 F 
ATOM      3  F   UNL     1      42.769   3.626  11.783  0.00  0.00    +0.000 F 
ENDROOT
BRANCH   1   4
ATOM      4  C   UNL     1      44.832   4.020  10.649  0.00  0.00    +0.000 A 
ATOM      5  C   UNL     1      45.152   5.380  10.573  0.00  0.00    +0.000 A 
ATOM      6  C   UNL     1      45.818   5.879   9.457  0.00  0.00    +0.000 A 
ATOM      7  C   UNL     1      46.193   5.019   8.421  0.00  0.00    +0.000 A 
ATOM      8  C   UNL     1      45.929   3.639   8.479  0.00  0.00    +0.000 A 
ATOM      9  C   UNL     1      45.214   3.169   9.597  0.00  0.00    +0.000 A 
BRANCH   8  10
ATOM     10  C   UNL     1      46.468   2.695   7.472  0.00  0.00    +0.000 A 
ATOM     11  C   UNL     1      46.676   1.341   7.795  0.00  0.00    +0.000 A 
ATOM     12  C   UNL     1      47.049   0.405   6.826  0.00  0.00    +0.000 A 
ATOM     13  C   UNL     1      47.224   0.803   5.507  0.00  0.00    +0.000 A 
ATOM     14  C   UNL     1      47.059   2.141   5.163  0.00  0.00    +0.000 A 
ATOM     15  C   UNL     1      46.700   3.078   6.137  0.00  0.00    +0.000 A 
ENDBRANCH   8  10
ENDBRANCH   1   4
BRANCH   1  16
ATOM     16  C   UNL     1      44.634   4.113  13.176  0.00  0.00    +0.000 C 
BRANCH  16  17
ATOM     17  N   UNL     1      45.951   3.568  13.570  0.00  0.00    +0.000 N 
ATOM     18  H   UNL     1      46.384   3.042  12.813  0.00  0.00    +0.000 HD
BRANCH  17  22
ATOM     19  C   UNL     1      48.520   6.184  15.415  0.00  0.00    +0.000 A 
ATOM     20  C   UNL     1      48.041   6.449  14.141  0.00  0.00    +0.000 A 
ATOM     21  N   UNL     1      47.199   5.607  13.488  0.00  0.00    +0.000 NA
ATOM     22  C   UNL     1      46.852   4.473  14.135  0.00  0.00    +0.000 A 
ATOM     23  C   UNL     1      47.344   4.229  15.427  0.00  0.00    +0.000 A 
ATOM     24  N   UNL     1      48.188   5.056  16.098  0.00  0.00    +0.000 NA
BRANCH  19  26
ATOM     25  N   UNL     1      49.051   7.544  17.346  0.00  0.00    +0.000 N 
ATOM     26  C   UNL     1      49.429   7.150  16.089  0.00  0.00    +0.000 C 
ATOM     27  O   UNL     1      50.450   7.570  15.559  0.00  0.00    +0.000 OA
ATOM     28  H   UNL     1      49.622   8.203  17.856  0.00  0.00    +0.000 HD
ATOM     29  H   UNL     1      48.200   7.177  17.757  0.00  0.00    +0.000 HD
ENDBRANCH  19  26
ENDBRANCH  17  22
ENDBRANCH  16  17
ENDBRANCH   1  16
TORSDOF 6
ENDMDL
MODEL 7
REMARK VINA RESULT:    -6.906      3.457      5.629
REMARK INTER + INTRA:         -10.423
REMARK INTER:                  -9.262
REMARK INTRA:                  -1.161
REMARK UNBOUND:                -1.095
REMARK  Name = 
REMARK  6 active torsions:
REMARK  status: ('A' for Active; 'I' for Inactive)
REMARK    1  A    between atoms: C_2  and  C_4
REMARK    2  A    between atoms: C_7  and  N_8
REMARK    3  A    between atoms: N_8  and  C_9
REMARK    4  A    between atoms: C_9  and  C_10
REMARK    5  A    between atoms: C_10  and  C_13
REMARK    6  A    between atoms: C_17  and  C_18
REMARK                            x       y       z     vdW  Elec       q    Type
REMARK                         _______ _______ _______ _____ _____    ______ ____
ROOT
ATOM      1  C   UNL     1      47.713   8.048  12.423  0.00  0.00    +0.000 C 
ATOM      2  F   UNL     1      47.863   6.826  11.817  0.00  0.00    +0.000 F 
ATOM      3  F   UNL     1      48.510   8.895  11.702  0.00  0.00    +0.000 F 
ENDROOT
BRANCH   1   4
ATOM      4  C   UNL     1      48.112   8.007  13.881  0.00  0.00    +0.000 A 
ATOM      5  C   UNL     1      48.192   9.185  14.633  0.00  0.00    +0.000 A 
ATOM      6  C   UNL     1      48.544   9.132  15.978  0.00  0.00    +0.000 A 
ATOM      7  C   UNL     1      48.792   7.901  16.591  0.00  0.00    +0.000 A 
ATOM      8  C   UNL     1      48.679   6.691  15.881  0.00  0.00    +0.000 A 
ATOM      9  C   UNL     1      48.368   6.777  14.512  0.00  0.00    +0.000 A 
BRANCH   8  10
ATOM     10  C   UNL     1      48.774   5.375  16.557  0.00  0.00    +0.000 A 
ATOM     11  C   UNL     1      47.758   4.413  16.400  0.00  0.00    +0.000 A 
ATOM     12  C   UNL     1      47.890   3.119  16.910  0.00  0.00    +0.000 A 
ATOM     13  C   UNL     1      49.045   2.755  17.593  0.00  0.00    +0.000 A 
ATOM     14  C   UNL     1      50.051   3.694  17.793  0.00  0.00    +0.000 A 
ATOM     15  C   UNL     1      49.911   4.993  17.294  0.00  0.00    +0.000 A 
ENDBRANCH   8  10
ENDBRANCH   1   4
BRANCH   1  16
ATOM     16  C   UNL     1      46.233   8.479  12.244  0.00  0.00    +0.000 C 
BRANCH  16  17
ATOM     17  N   UNL     1      45.336   7.689  13.116  0.00  0.00    +0.000 N 
ATOM     18  H   UNL     1      44.560   8.248  13.465  0.00  0.00    +0.000 HD
BRANCH  17  22
ATOM     19  C   UNL     1      44.189   4.017  11.683  0.00  0.00    +0.000 A 
ATOM     20  C   UNL     1      43.884   5.173  10.980  0.00  0.00    +0.000 A 
ATOM     21  N   UNL     1      44.234   6.410  11.422  0.00  0.00    +0.000 NA
ATOM     22  C   UNL     1      44.889   6.470  12.601  0.00  0.00    +0.000 A 
ATOM     23  C   UNL     1      45.192   5.286  13.293  0.00  0.00    +0.000 A 
ATOM     24  N   UNL     1      44.851   4.040  12.871  0.00  0.00    +0.000 NA
BRANCH  19  26
ATOM     25  N   UNL     1      44.526   2.238  10.077  0.00  0.00    +0.000 N 
ATOM     26  C   UNL     1      43.794   2.688  11.144  0.00  0.00    +0.000 C 
ATOM     27  O   UNL     1      42.875   2.033  11.619  0.00  0.00    +0.000 OA
ATOM     28  H   UNL     1      44.306   1.345   9.660  0.00  0.00    +0.000 HD
ATOM     29  H   UNL     1      45.282   2.804   9.707  0.00  0.00    +0.000 HD
ENDBRANCH  19  26
ENDBRANCH  17  22
ENDBRANCH  16  17
ENDBRANCH   1  16
TORSDOF 6
ENDMDL
MODEL 8
REMARK VINA RESULT:    -6.768      5.898      7.692
REMARK INTER + INTRA:         -10.236
REMARK INTER:                  -9.359
REMARK INTRA:                  -0.878
REMARK UNBOUND:                -1.095
REMARK  Name = 
REMARK  6 active torsions:
REMARK  status: ('A' for Active; 'I' for Inactive)
REMARK    1  A    between atoms: C_2  and  C_4
REMARK    2  A    between atoms: C_7  and  N_8
REMARK    3  A    between atoms: N_8  and  C_9
REMARK    4  A    between atoms: C_9  and  C_10
REMARK    5  A    between atoms: C_10  and  C_13
REMARK    6  A    between atoms: C_17  and  C_18
REMARK                            x       y       z     vdW  Elec       q    Type
REMARK                         _______ _______ _______ _____ _____    ______ ____
ROOT
ATOM      1  C   UNL     1      47.845   3.122  16.871  0.00  0.00    +0.000 C 
ATOM      2  F   UNL     1      47.069   2.353  17.701  0.00  0.00    +0.000 F 
ATOM      3  F   UNL     1      48.118   2.313  15.801  0.00  0.00    +0.000 F 
ENDROOT
BRANCH   1   4
ATOM      4  C   UNL     1      49.109   3.592  17.556  0.00  0.00    +0.000 A 
ATOM      5  C   UNL     1      49.075   4.656  18.464  0.00  0.00    +0.000 A 
ATOM      6  C   UNL     1      50.241   5.068  19.102  0.00  0.00    +0.000 A 
ATOM      7  C   UNL     1      51.446   4.404  18.857  0.00  0.00    +0.000 A 
ATOM      8  C   UNL     1      51.514   3.302  17.985  0.00  0.00    +0.000 A 
ATOM      9  C   UNL     1      50.329   2.936  17.320  0.00  0.00    +0.000 A 
BRANCH   8  10
ATOM     10  C   UNL     1      52.745   2.486  17.847  0.00  0.00    +0.000 A 
ATOM     11  C   UNL     1      52.666   1.093  17.668  0.00  0.00    +0.000 A 
ATOM     12  C   UNL     1      53.801   0.324  17.396  0.00  0.00    +0.000 A 
ATOM     13  C   UNL     1      55.046   0.933  17.298  0.00  0.00    +0.000 A 
ATOM     14  C   UNL     1      55.160   2.304  17.503  0.00  0.00    +0.000 A 
ATOM     15  C   UNL     1      54.025   3.069  17.789  0.00  0.00    +0.000 A 
ENDBRANCH   8  10
ENDBRANCH   1   4
BRANCH   1  16
ATOM     16  C   UNL     1      46.974   4.313  16.391  0.00  0.00    +0.000 C 
BRANCH  16  17
ATOM     17  N   UNL     1      47.498   4.886  15.132  0.00  0.00    +0.000 N 
ATOM     18  H   UNL     1      48.467   4.617  14.968  0.00  0.00    +0.000 HD
BRANCH  17  22
ATOM     19  C   UNL     1      45.111   4.476  11.817  0.00  0.00    +0.000 A 
ATOM     20  C   UNL     1      45.545   3.359  12.515  0.00  0.00    +0.000 A 
ATOM     21  N   UNL     1      46.344   3.446  13.610  0.00  0.00    +0.000 NA
ATOM     22  C   UNL     1      46.719   4.687  13.990  0.00  0.00    +0.000 A 
ATOM     23  C   UNL     1      46.264   5.804  13.272  0.00  0.00    +0.000 A 
ATOM     24  N   UNL     1      45.466   5.740  12.174  0.00  0.00    +0.000 NA
BRANCH  19  26
ATOM     25  N   UNL     1      43.455   5.411  10.321  0.00  0.00    +0.000 N 
ATOM     26  C   UNL     1      44.224   4.322  10.633  0.00  0.00    +0.000 C 
ATOM     27  O   UNL     1      44.179   3.289   9.977  0.00  0.00    +0.000 OA
ATOM     28  H   UNL     1      42.826   5.371   9.532  0.00  0.00    +0.000 HD
ATOM     29  H   UNL     1      43.516   6.252  10.884  0.00  0.00    +0.000 HD
ENDBRANCH  19  26
ENDBRANCH  17  22
ENDBRANCH  16  17
ENDBRANCH   1  16
TORSDOF 6
ENDMDL
MODEL 9
REMARK VINA RESULT:    -6.217      3.559      5.627
REMARK INTER + INTRA:          -9.492
REMARK INTER:                  -8.483
REMARK INTRA:                  -1.009
REMARK UNBOUND:                -1.095
REMARK  Name = 
REMARK  6 active torsions:
REMARK  status: ('A' for Active; 'I' for Inactive)
REMARK    1  A    between atoms: C_2  and  C_4
REMARK    2  A    between atoms: C_7  and  N_8
REMARK    3  A    between atoms: N_8  and  C_9
REMARK    4  A    between atoms: C_9  and  C_10
REMARK    5  A    between atoms: C_10  and  C_13
REMARK    6  A    between atoms: C_17  and  C_18
REMARK                            x       y       z     vdW  Elec       q    Type
REMARK                         _______ _______ _______ _____ _____    ______ ____
ROOT
ATOM      1  C   UNL     1      49.077   7.726  13.178  0.00  0.00    +0.000 C 
ATOM      2  F   UNL     1      50.171   7.821  14.001  0.00  0.00    +0.000 F 
ATOM      3  F   UNL     1      49.335   6.646  12.379  0.00  0.00    +0.000 F 
ENDROOT
BRANCH   1   4
ATOM      4  C   UNL     1      48.869   8.987  12.369  0.00  0.00    +0.000 A 
ATOM      5  C   UNL     1      49.945   9.606  11.723  0.00  0.00    +0.000 A 
ATOM      6  C   UNL     1      49.737  10.756  10.967  0.00  0.00    +0.000 A 
ATOM      7  C   UNL     1      48.450  11.282  10.828  0.00  0.00    +0.000 A 
ATOM      8  C   UNL     1      47.336  10.664  11.425  0.00  0.00    +0.000 A 
ATOM      9  C   UNL     1      47.581   9.530  12.221  0.00  0.00    +0.000 A 
BRANCH   8  10
ATOM     10  C   UNL     1      45.950  11.112  11.148  0.00  0.00    +0.000 A 
ATOM     11  C   UNL     1      44.849  10.389  11.644  0.00  0.00    +0.000 A 
ATOM     12  C   UNL     1      43.542  10.866  11.516  0.00  0.00    +0.000 A 
ATOM     13  C   UNL     1      43.304  12.081  10.886  0.00  0.00    +0.000 A 
ATOM     14  C   UNL     1      44.368  12.802  10.355  0.00  0.00    +0.000 A 
ATOM     15  C   UNL     1      45.675  12.316  10.472  0.00  0.00    +0.000 A 
ENDBRANCH   8  10
ENDBRANCH   1   4
BRANCH   1  16
ATOM     16  C   UNL     1      47.848   7.408  14.072  0.00  0.00    +0.000 C 
BRANCH  16  17
ATOM     17  N   UNL     1      47.724   5.954  14.314  0.00  0.00    +0.000 N 
ATOM     18  H   UNL     1      47.593   5.745  15.302  0.00  0.00    +0.000 HD
BRANCH  17  22
ATOM     19  C   UNL     1      45.115   3.788  12.002  0.00  0.00    +0.000 A 
ATOM     20  C   UNL     1      45.232   5.159  11.833  0.00  0.00    +0.000 A 
ATOM     21  N   UNL     1      46.074   5.917  12.583  0.00  0.00    +0.000 NA
ATOM     22  C   UNL     1      46.794   5.272  13.526  0.00  0.00    +0.000 A 
ATOM     23  C   UNL     1      46.663   3.882  13.675  0.00  0.00    +0.000 A 
ATOM     24  N   UNL     1      45.827   3.105  12.938  0.00  0.00    +0.000 NA
BRANCH  19  26
ATOM     25  N   UNL     1      44.751   2.419  10.039  0.00  0.00    +0.000 N 
ATOM     26  C   UNL     1      44.187   3.005  11.141  0.00  0.00    +0.000 C 
ATOM     27  O   UNL     1      42.995   2.889  11.396  0.00  0.00    +0.000 OA
ATOM     28  H   UNL     1      44.175   1.877   9.411  0.00  0.00    +0.000 HD
ATOM     29  H   UNL     1      45.742   2.533   9.856  0.00  0.00    +0.000 HD
ENDBRANCH  19  26
ENDBRANCH  17  22
ENDBRANCH  16  17
ENDBRANCH   1  16
TORSDOF 6
ENDMDL
