MODEL 1
REMARK VINA RESULT:    -8.042      0.000      0.000
REMARK INTER + INTRA:         -14.224
REMARK INTER:                 -12.509
REMARK INTRA:                  -1.715
REMARK UNBOUND:                -1.715
REMARK  Name = 
REMARK  10 active torsions:
REMARK  status: ('A' for Active; 'I' for Inactive)
REMARK    1  A    between atoms: C_2  and  C_23
REMARK    2  A    between atoms: N_3  and  C_4
REMARK    3  A    between atoms: C_4  and  C_5
REMARK    4  A    between atoms: C_8  and  C_9
REMARK    5  A    between atoms: C_9  and  N_10
REMARK    6  A    between atoms: N_10  and  C_11
REMARK    7  A    between atoms: N_10  and  C_14
REMARK    8  A    between atoms: C_11  and  C_12
REMARK    9  A    between atoms: C_12  and  O_13
REMARK   10  A    between atoms: C_14  and  C_15
REMARK                            x       y       z     vdW  Elec       q    Type
REMARK                         _______ _______ _______ _____ _____    ______ ____
ROOT
ATOM      1  C   UNL     1      46.512   7.626  12.666  0.00  0.00    +0.000 A 
ATOM      2  C   UNL     1      47.059   6.605  11.880  0.00  0.00    +0.000 A 
ATOM      3  C   UNL     1      46.246   5.852  11.037  0.00  0.00    +0.000 A 
ATOM      4  C   UNL     1      44.869   6.105  10.972  0.00  0.00    +0.000 A 
ATOM      5  C   UNL     1      44.343   7.202  11.667  0.00  0.00    +0.000 A 
ATOM      6  C   UNL     1      45.161   7.961  12.504  0.00  0.00    +0.000 A 
ENDROOT
BRANCH   1   7
ATOM      7  C   UNL     1      47.370   8.342  13.672  0.00  0.00    +0.000 C 
BRANCH   7  10
ATOM      8  O   UNL     1      49.807   7.002  14.092  0.00  0.00    +0.000 OA
ATOM      9  C   UNL     1      48.927   6.929  14.946  0.00  0.00    +0.000 C 
ATOM     10  N   UNL     1      47.689   7.490  14.784  0.00  0.00    +0.000 N 
ATOM     11  H   UNL     1      47.072   7.564  15.583  0.00  0.00    +0.000 HD
BRANCH   9  12
ATOM     12  C   UNL     1      49.126   6.181  16.191  0.00  0.00    +0.000 A 
ATOM     13  C   UNL     1      50.071   6.616  17.111  0.00  0.00    +0.000 A 
ATOM     14  S   UNL     1      50.174   5.625  18.496  0.00  0.00    +0.000 S 
ATOM     15  C   UNL     1      48.929   4.612  17.933  0.00  0.00    +0.000 A 
ATOM     16  N   UNL     1      48.493   3.562  18.677  0.00  0.00    +0.000 NA
ATOM     17  C   UNL     1      47.517   2.901  18.150  0.00  0.00    +0.000 A 
ATOM     18  N   UNL     1      46.948   3.188  16.933  0.00  0.00    +0.000 N 
ATOM     19  C   UNL     1      47.410   4.184  16.113  0.00  0.00    +0.000 A 
ATOM     20  O   UNL     1      46.976   4.314  14.969  0.00  0.00    +0.000 OA
ATOM     21  C   UNL     1      48.466   4.998  16.690  0.00  0.00    +0.000 A 
ATOM     22  H   UNL     1      46.211   2.605  16.558  0.00  0.00    +0.000 HD
ENDBRANCH   9  12
ENDBRANCH   7  10
ENDBRANCH   1   7
BRANCH   4  23
ATOM     23  C   UNL     1      43.957   5.167  10.209  0.00  0.00    +0.000 C 
BRANCH  23  24
ATOM     24  N   UNL     1      44.568   3.834   9.955  0.00  0.00    +0.000 NA
BRANCH  24  25
ATOM     25  C   UNL     1      43.895   2.788  10.763  0.00  0.00    +0.000 C 
BRANCH  25  26
ATOM     26  C   UNL     1      43.995   2.968  12.290  0.00  0.00    +0.000 C 
BRANCH  26  27
ATOM     27  O   UNL     1      45.346   2.818  12.723  0.00  0.00    +0.000 OA
ATOM     28  H   UNL     1      45.365   2.074  13.349  0.00  0.00    +0.000 HD
ENDBRANCH  26  27
ENDBRANCH  25  26
ENDBRANCH  24  25
BRANCH  24  29
ATOM     29  C   UNL     1      44.500   3.508   8.516  0.00  0.00    +0.000 C 
BRANCH  29  30
ATOM     30  C   UNL     1      45.740   2.823   7.991  0.00  0.00    +0.000 A 
ATOM     31  C   UNL     1      46.706   3.538   7.276  0.00  0.00    +0.000 A 
ATOM     32  C   UNL     1      47.802   2.854   6.776  0.00  0.00    +0.000 A 
ATOM     33  N   UNL     1      48.002   1.529   6.944  0.00  0.00    +0.000 NA
ATOM     34  C   UNL     1      47.065   0.860   7.648  0.00  0.00    +0.000 A 
ATOM     35  C   UNL     1      45.936   1.453   8.190  0.00  0.00    +0.000 A 
ENDBRANCH  29  30
ENDBRANCH  24  29
ENDBRANCH  23  24
ENDBRANCH   4  23
TORSDOF 10
ENDMDL
MODEL 2
REMARK VINA RESULT:    -7.188      2.210      2.759
REMARK INTER + INTRA:         -12.895
REMARK INTER:                 -11.550
REMARK INTRA:                  -1.346
REMARK UNBOUND:                -1.715
REMARK  Name = 
REMARK  10 active torsions:
REMARK  status: ('A' for Active; 'I' for Inactive)
REMARK    1  A    between atoms: C_2  and  C_23
REMARK    2  A    between atoms: N_3  and  C_4
REMARK    3  A    between atoms: C_4  and  C_5
REMARK    4  A    between atoms: C_8  and  C_9
REMARK    5  A    between atoms: C_9  and  N_10
REMARK    6  A    between atoms: N_10  and  C_11
REMARK    7  A    between atoms: N_10  and  C_14
REMARK    8  A    between atoms: C_11  and  C_12
REMARK    9  A    between atoms: C_12  and  O_13
REMARK   10  A    between atoms: C_14  and  C_15
REMARK                            x       y       z     vdW  Elec       q    Type
REMARK                         _______ _______ _______ _____ _____    ______ ____
ROOT
ATOM      1  C   UNL     1      48.217   6.612  13.426  0.00  0.00    +0.000 A 
ATOM      2  C   UNL     1      47.262   5.640  13.746  0.00  0.00    +0.000 A 
ATOM      3  C   UNL     1      46.234   5.342  12.855  0.00  0.00    +0.000 A 
ATOM      4  C   UNL     1      46.141   6.017  11.631  0.00  0.00    +0.000 A 
ATOM      5  C   UNL     1      47.162   6.902  11.261  0.00  0.00    +0.000 A 
ATOM      6  C   UNL     1      48.197   7.194  12.151  0.00  0.00    +0.000 A 
ENDROOT
BRANCH   1   7
ATOM      7  C   UNL     1      49.241   7.025  14.446  0.00  0.00    +0.000 C 
BRANCH   7  10
ATOM      8  O   UNL     1      50.967   5.957  16.393  0.00  0.00    +0.000 OA
ATOM      9  C   UNL     1      49.786   6.144  16.675  0.00  0.00    +0.000 C 
ATOM     10  N   UNL     1      48.868   6.591  15.763  0.00  0.00    +0.000 N 
ATOM     11  H   UNL     1      47.963   6.907  16.088  0.00  0.00    +0.000 HD
BRANCH   9  12
ATOM     12  C   UNL     1      49.260   5.848  18.012  0.00  0.00    +0.000 A 
ATOM     13  C   UNL     1      49.422   4.578  18.549  0.00  0.00    +0.000 A 
ATOM     14  S   UNL     1      48.744   4.409  20.106  0.00  0.00    +0.000 S 
ATOM     15  C   UNL     1      48.255   6.038  20.130  0.00  0.00    +0.000 A 
ATOM     16  N   UNL     1      47.632   6.563  21.217  0.00  0.00    +0.000 NA
ATOM     17  C   UNL     1      47.351   7.820  21.119  0.00  0.00    +0.000 A 
ATOM     18  N   UNL     1      47.624   8.596  20.019  0.00  0.00    +0.000 N 
ATOM     19  C   UNL     1      48.174   8.089  18.869  0.00  0.00    +0.000 A 
ATOM     20  O   UNL     1      48.264   8.778  17.854  0.00  0.00    +0.000 OA
ATOM     21  C   UNL     1      48.567   6.693  18.954  0.00  0.00    +0.000 A 
ATOM     22  H   UNL     1      47.341   9.567  19.989  0.00  0.00    +0.000 HD
ENDBRANCH   9  12
ENDBRANCH   7  10
ENDBRANCH   1   7
BRANCH   4  23
ATOM     23  C   UNL     1      44.922   5.837  10.752  0.00  0.00    +0.000 C 
BRANCH  23  24
ATOM     24  N   UNL     1      44.575   4.409  10.516  0.00  0.00    +0.000 NA
BRANCH  24  25
ATOM     25  C   UNL     1      43.373   4.027  11.295  0.00  0.00    +0.000 C 
BRANCH  25  26
ATOM     26  C   UNL     1      43.542   2.802  12.213  0.00  0.00    +0.000 C 
BRANCH  26  27
ATOM     27  O   UNL     1      43.050   1.626  11.573  0.00  0.00    +0.000 OA
ATOM     28  H   UNL     1      43.005   1.816  10.620  0.00  0.00    +0.000 HD
ENDBRANCH  26  27
ENDBRANCH  25  26
ENDBRANCH  24  25
BRANCH  24  29
ATOM     29  C   UNL     1      44.364   4.167   9.074  0.00  0.00    +0.000 C 
BRANCH  29  30
ATOM     30  C   UNL     1      45.421   3.287   8.447  0.00  0.00    +0.000 A 
ATOM     31  C   UNL     1      46.374   3.823   7.576  0.00  0.00    +0.000 A 
ATOM     32  C   UNL     1      47.293   2.967   6.991  0.00  0.00    +0.000 A 
ATOM     33  N   UNL     1      47.329   1.635   7.216  0.00  0.00    +0.000 NA
ATOM     34  C   UNL     1      46.408   1.141   8.069  0.00  0.00    +0.000 A 
ATOM     35  C   UNL     1      45.451   1.914   8.707  0.00  0.00    +0.000 A 
ENDBRANCH  29  30
ENDBRANCH  24  29
ENDBRANCH  23  24
ENDBRANCH   4  23
TORSDOF 10
ENDMDL
MODEL 3
REMARK VINA RESULT:    -7.115      1.916      2.376
REMARK INTER + INTRA:         -12.781
REMARK INTER:                 -11.627
REMARK INTRA:                  -1.154
REMARK UNBOUND:                -1.715
REMARK  Name = 
REMARK  10 active torsions:
REMARK  status: ('A' for Active; 'I' for Inactive)
REMARK    1  A    between atoms: C_2  and  C_23
REMARK    2  A    between atoms: N_3  and  C_4
REMARK    3  A    between atoms: C_4  and  C_5
REMARK    4  A    between atoms: C_8  and  C_9
REMARK    5  A    between atoms: C_9  and  N_10
REMARK    6  A    between atoms: N_10  and  C_11
REMARK    7  A    between atoms: N_10  and  C_14
REMARK    8  A    between atoms: C_11  and  C_12
REMARK    9  A    between atoms: C_12  and  O_13
REMARK   10  A    between atoms: C_14  and  C_15
REMARK                            x       y       z     vdW  Elec       q    Type
REMARK                         _______ _______ _______ _____ _____    ______ ____
ROOT
ATOM      1  C   UNL     1      48.453   6.779  13.260  0.00  0.00    +0.000 A 
ATOM      2  C   UNL     1      47.505   5.884  13.772  0.00  0.00    +0.000 A 
ATOM      3  C   UNL     1      46.376   5.553  13.028  0.00  0.00    +0.000 A 
ATOM      4  C   UNL     1      46.172   6.119  11.762  0.00  0.00    +0.000 A 
ATOM      5  C   UNL     1      47.176   6.919  11.202  0.00  0.00    +0.000 A 
ATOM      6  C   UNL     1      48.312   7.243  11.945  0.00  0.00    +0.000 A 
ENDROOT
BRANCH   1   7
ATOM      7  C   UNL     1      49.597   7.236  14.122  0.00  0.00    +0.000 C 
BRANCH   7  10
ATOM      8  O   UNL     1      51.156   6.160  16.201  0.00  0.00    +0.000 OA
ATOM      9  C   UNL     1      50.096   6.718  16.472  0.00  0.00    +0.000 C 
ATOM     10  N   UNL     1      49.247   7.202  15.514  0.00  0.00    +0.000 N 
ATOM     11  H   UNL     1      48.488   7.813  15.789  0.00  0.00    +0.000 HD
BRANCH   9  12
ATOM     12  C   UNL     1      49.636   6.860  17.858  0.00  0.00    +0.000 A 
ATOM     13  C   UNL     1      49.478   8.127  18.404  0.00  0.00    +0.000 A 
ATOM     14  S   UNL     1      48.943   8.105  20.023  0.00  0.00    +0.000 S 
ATOM     15  C   UNL     1      48.861   6.406  20.032  0.00  0.00    +0.000 A 
ATOM     16  N   UNL     1      48.432   5.734  21.132  0.00  0.00    +0.000 NA
ATOM     17  C   UNL     1      48.380   4.451  20.989  0.00  0.00    +0.000 A 
ATOM     18  N   UNL     1      48.738   3.779  19.846  0.00  0.00    +0.000 N 
ATOM     19  C   UNL     1      49.255   4.409  18.744  0.00  0.00    +0.000 A 
ATOM     20  O   UNL     1      49.705   3.763  17.799  0.00  0.00    +0.000 OA
ATOM     21  C   UNL     1      49.272   5.859  18.832  0.00  0.00    +0.000 A 
ATOM     22  H   UNL     1      48.713   2.768  19.813  0.00  0.00    +0.000 HD
ENDBRANCH   9  12
ENDBRANCH   7  10
ENDBRANCH   1   7
BRANCH   4  23
ATOM     23  C   UNL     1      44.858   5.914  11.039  0.00  0.00    +0.000 C 
BRANCH  23  24
ATOM     24  N   UNL     1      44.551   4.483  10.772  0.00  0.00    +0.000 NA
BRANCH  24  25
ATOM     25  C   UNL     1      43.409   4.030  11.604  0.00  0.00    +0.000 C 
BRANCH  25  26
ATOM     26  C   UNL     1      42.445   5.140  12.062  0.00  0.00    +0.000 C 
BRANCH  26  27
ATOM     27  O   UNL     1      42.592   5.385  13.460  0.00  0.00    +0.000 OA
ATOM     28  H   UNL     1      42.838   4.541  13.874  0.00  0.00    +0.000 HD
ENDBRANCH  26  27
ENDBRANCH  25  26
ENDBRANCH  24  25
BRANCH  24  29
ATOM     29  C   UNL     1      44.266   4.281   9.337  0.00  0.00    +0.000 C 
BRANCH  29  30
ATOM     30  C   UNL     1      45.291   3.421   8.632  0.00  0.00    +0.000 A 
ATOM     31  C   UNL     1      46.194   3.983   7.725  0.00  0.00    +0.000 A 
ATOM     32  C   UNL     1      47.083   3.146   7.070  0.00  0.00    +0.000 A 
ATOM     33  N   UNL     1      47.136   1.810   7.260  0.00  0.00    +0.000 NA
ATOM     34  C   UNL     1      46.264   1.290   8.149  0.00  0.00    +0.000 A 
ATOM     35  C   UNL     1      45.340   2.042   8.856  0.00  0.00    +0.000 A 
ENDBRANCH  29  30
ENDBRANCH  24  29
ENDBRANCH  23  24
ENDBRANCH   4  23
TORSDOF 10
ENDMDL
MODEL 4
REMARK VINA RESULT:    -6.765      3.131      5.387
REMARK INTER + INTRA:         -12.237
REMARK INTER:                 -10.775
REMARK INTRA:                  -1.462
REMARK UNBOUND:                -1.715
REMARK  Name = 
REMARK  10 active torsions:
REMARK  status: ('A' for Active; 'I' for Inactive)
REMARK    1  A    between atoms: C_2  and  C_23
REMARK    2  A    between atoms: N_3  and  C_4
REMARK    3  A    between atoms: C_4  and  C_5
REMARK    4  A    between atoms: C_8  and  C_9
REMARK    5  A    between atoms: C_9  and  N_10
REMARK    6  A    between atoms: N_10  and  C_11
REMARK    7  A    between atoms: N_10  and  C_14
REMARK    8  A    between atoms: C_11  and  C_12
REMARK    9  A    between atoms: C_12  and  O_13
REMARK   10  A    between atoms: C_14  and  C_15
REMARK                            x       y       z     vdW  Elec       q    Type
REMARK                         _______ _______ _______ _____ _____    ______ ____
ROOT
ATOM      1  C   UNL     1      47.622   4.295  15.914  0.00  0.00    +0.000 A 
ATOM      2  C   UNL     1      46.983   3.803  14.769  0.00  0.00    +0.000 A 
ATOM      3  C   UNL     1      46.851   4.604  13.638  0.00  0.00    +0.000 A 
ATOM      4  C   UNL     1      47.351   5.913  13.636  0.00  0.00    +0.000 A 
ATOM      5  C   UNL     1      48.093   6.363  14.736  0.00  0.00    +0.000 A 
ATOM      6  C   UNL     1      48.232   5.556  15.866  0.00  0.00    +0.000 A 
ENDROOT
BRANCH   1   7
ATOM      7  C   UNL     1      47.640   3.476  17.175  0.00  0.00    +0.000 C 
BRANCH   7  10
ATOM      8  O   UNL     1      49.402   1.650  15.962  0.00  0.00    +0.000 OA
ATOM      9  C   UNL     1      49.799   2.335  16.901  0.00  0.00    +0.000 C 
ATOM     10  N   UNL     1      48.985   3.191  17.591  0.00  0.00    +0.000 N 
ATOM     11  H   UNL     1      49.398   3.863  18.225  0.00  0.00    +0.000 HD
BRANCH   9  12
ATOM     12  C   UNL     1      51.179   2.241  17.389  0.00  0.00    +0.000 A 
ATOM     13  C   UNL     1      51.767   0.993  17.556  0.00  0.00    +0.000 A 
ATOM     14  S   UNL     1      53.369   1.070  18.136  0.00  0.00    +0.000 S 
ATOM     15  C   UNL     1      53.345   2.771  18.139  0.00  0.00    +0.000 A 
ATOM     16  N   UNL     1      54.442   3.484  18.504  0.00  0.00    +0.000 NA
ATOM     17  C   UNL     1      54.301   4.765  18.422  0.00  0.00    +0.000 A 
ATOM     18  N   UNL     1      53.149   5.398  18.023  0.00  0.00    +0.000 N 
ATOM     19  C   UNL     1      51.994   4.722  17.726  0.00  0.00    +0.000 A 
ATOM     20  O   UNL     1      50.943   5.327  17.520  0.00  0.00    +0.000 OA
ATOM     21  C   UNL     1      52.121   3.275  17.741  0.00  0.00    +0.000 A 
ATOM     22  H   UNL     1      53.090   6.408  18.019  0.00  0.00    +0.000 HD
ENDBRANCH   9  12
ENDBRANCH   7  10
ENDBRANCH   1   7
BRANCH   4  23
ATOM     23  C   UNL     1      47.038   6.846  12.485  0.00  0.00    +0.000 C 
BRANCH  23  24
ATOM     24  N   UNL     1      45.661   7.409  12.544  0.00  0.00    +0.000 NA
BRANCH  24  25
ATOM     25  C   UNL     1      45.705   8.867  12.811  0.00  0.00    +0.000 C 
BRANCH  25  26
ATOM     26  C   UNL     1      44.731   9.721  11.976  0.00  0.00    +0.000 C 
BRANCH  26  27
ATOM     27  O   UNL     1      44.962  11.110  12.204  0.00  0.00    +0.000 OA
ATOM     28  H   UNL     1      44.107  11.563  12.105  0.00  0.00    +0.000 HD
ENDBRANCH  26  27
ENDBRANCH  25  26
ENDBRANCH  24  25
BRANCH  24  29
ATOM     29  C   UNL     1      44.941   7.128  11.285  0.00  0.00    +0.000 C 
BRANCH  29  30
ATOM     30  C   UNL     1      44.464   5.699  11.168  0.00  0.00    +0.000 A 
ATOM     31  C   UNL     1      44.914   4.876  10.131  0.00  0.00    +0.000 A 
ATOM     32  C   UNL     1      44.411   3.589  10.040  0.00  0.00    +0.000 A 
ATOM     33  N   UNL     1      43.509   3.071  10.902  0.00  0.00    +0.000 NA
ATOM     34  C   UNL     1      43.097   3.877  11.903  0.00  0.00    +0.000 A 
ATOM     35  C   UNL     1      43.543   5.178  12.081  0.00  0.00    +0.000 A 
ENDBRANCH  29  30
ENDBRANCH  24  29
ENDBRANCH  23  24
ENDBRANCH   4  23
TORSDOF 10
ENDMDL
MODEL 5
REMARK VINA RESULT:    -6.542      2.842      8.278
REMARK INTER + INTRA:         -11.890
REMARK INTER:                  -9.950
REMARK INTRA:                  -1.939
REMARK UNBOUND:                -1.715
REMARK  Name = 
REMARK  10 active torsions:
REMARK  status: ('A' for Active; 'I' for Inactive)
REMARK    1  A    between atoms: C_2  and  C_23
REMARK    2  A    between atoms: N_3  and  C_4
REMARK    3  A    between atoms: C_4  and  C_5
REMARK    4  A    between atoms: C_8  and  C_9
REMARK    5  A    between atoms: C_9  and  N_10
REMARK    6  A    between atoms: N_10  and  C_11
REMARK    7  A    between atoms: N_10  and  C_14
REMARK    8  A    between atoms: C_11  and  C_12
REMARK    9  A    between atoms: C_12  and  O_13
REMARK   10  A    between atoms: C_14  and  C_15
REMARK                            x       y       z     vdW  Elec       q    Type
REMARK                         _______ _______ _______ _____ _____    ______ ____
ROOT
ATOM      1  C   UNL     1      48.181   7.870  13.538  0.00  0.00    +0.000 A 
ATOM      2  C   UNL     1      47.757   8.820  14.475  0.00  0.00    +0.000 A 
ATOM      3  C   UNL     1      48.258   8.801  15.774  0.00  0.00    +0.000 A 
ATOM      4  C   UNL     1      49.188   7.825  16.158  0.00  0.00    +0.000 A 
ATOM      5  C   UNL     1      49.701   6.951  15.191  0.00  0.00    +0.000 A 
ATOM      6  C   UNL     1      49.204   6.977  13.887  0.00  0.00    +0.000 A 
ENDROOT
BRANCH   1   7
ATOM      7  C   UNL     1      47.536   7.811  12.181  0.00  0.00    +0.000 C 
BRANCH   7  10
ATOM      8  O   UNL     1      44.772   7.394  12.496  0.00  0.00    +0.000 OA
ATOM      9  C   UNL     1      45.478   6.470  12.098  0.00  0.00    +0.000 C 
ATOM     10  N   UNL     1      46.839   6.571  11.989  0.00  0.00    +0.000 N 
ATOM     11  H   UNL     1      47.348   5.857  11.484  0.00  0.00    +0.000 HD
BRANCH   9  12
ATOM     12  C   UNL     1      44.910   5.162  11.758  0.00  0.00    +0.000 A 
ATOM     13  C   UNL     1      44.204   4.448  12.719  0.00  0.00    +0.000 A 
ATOM     14  S   UNL     1      43.620   2.948  12.155  0.00  0.00    +0.000 S 
ATOM     15  C   UNL     1      44.251   3.224  10.599  0.00  0.00    +0.000 A 
ATOM     16  N   UNL     1      44.068   2.320   9.602  0.00  0.00    +0.000 NA
ATOM     17  C   UNL     1      44.563   2.672   8.462  0.00  0.00    +0.000 A 
ATOM     18  N   UNL     1      45.243   3.844   8.236  0.00  0.00    +0.000 N 
ATOM     19  C   UNL     1      45.524   4.744   9.232  0.00  0.00    +0.000 A 
ATOM     20  O   UNL     1      46.263   5.706   9.025  0.00  0.00    +0.000 OA
ATOM     21  C   UNL     1      44.931   4.424  10.519  0.00  0.00    +0.000 A 
ATOM     22  H   UNL     1      45.642   4.043   7.328  0.00  0.00    +0.000 HD
ENDBRANCH   9  12
ENDBRANCH   7  10
ENDBRANCH   1   7
BRANCH   4  23
ATOM     23  C   UNL     1      49.584   7.683  17.613  0.00  0.00    +0.000 C 
BRANCH  23  24
ATOM     24  N   UNL     1      50.477   6.519  17.866  0.00  0.00    +0.000 NA
BRANCH  24  25
ATOM     25  C   UNL     1      51.660   6.931  18.659  0.00  0.00    +0.000 C 
BRANCH  25  26
ATOM     26  C   UNL     1      52.992   6.273  18.250  0.00  0.00    +0.000 C 
BRANCH  26  27
ATOM     27  O   UNL     1      52.927   5.811  16.902  0.00  0.00    +0.000 OA
ATOM     28  H   UNL     1      52.090   6.135  16.528  0.00  0.00    +0.000 HD
ENDBRANCH  26  27
ENDBRANCH  25  26
ENDBRANCH  24  25
BRANCH  24  29
ATOM     29  C   UNL     1      49.732   5.446  18.556  0.00  0.00    +0.000 C 
BRANCH  29  30
ATOM     30  C   UNL     1      49.570   4.193  17.727  0.00  0.00    +0.000 A 
ATOM     31  C   UNL     1      48.387   3.947  17.024  0.00  0.00    +0.000 A 
ATOM     32  C   UNL     1      48.270   2.762  16.316  0.00  0.00    +0.000 A 
ATOM     33  N   UNL     1      49.239   1.823  16.258  0.00  0.00    +0.000 NA
ATOM     34  C   UNL     1      50.378   2.085  16.933  0.00  0.00    +0.000 A 
ATOM     35  C   UNL     1      50.592   3.241  17.667  0.00  0.00    +0.000 A 
ENDBRANCH  29  30
ENDBRANCH  24  29
ENDBRANCH  23  24
ENDBRANCH   4  23
TORSDOF 10
ENDMDL
MODEL 6
REMARK VINA RESULT:    -6.378      3.348      7.894
REMARK INTER + INTRA:         -11.635
REMARK INTER:                 -10.572
REMARK INTRA:                  -1.063
REMARK UNBOUND:                -1.715
REMARK  Name = 
REMARK  10 active torsions:
REMARK  status: ('A' for Active; 'I' for Inactive)
REMARK    1  A    between atoms: C_2  and  C_23
REMARK    2  A    between atoms: N_3  and  C_4
REMARK    3  A    between atoms: C_4  and  C_5
REMARK    4  A    between atoms: C_8  and  C_9
REMARK    5  A    between atoms: C_9  and  N_10
REMARK    6  A    between atoms: N_10  and  C_11
REMARK    7  A    between atoms: N_10  and  C_14
REMARK    8  A    between atoms: C_11  and  C_12
REMARK    9  A    between atoms: C_12  and  O_13
REMARK   10  A    between atoms: C_14  and  C_15
REMARK                            x       y       z     vdW  Elec       q    Type
REMARK                         _______ _______ _______ _____ _____    ______ ____
ROOT
ATOM      1  C   UNL     1      49.415   7.875  14.544  0.00  0.00    +0.000 A 
ATOM      2  C   UNL     1      48.409   8.648  15.136  0.00  0.00    +0.000 A 
ATOM      3  C   UNL     1      48.307   8.727  16.522  0.00  0.00    +0.000 A 
ATOM      4  C   UNL     1      49.206   8.029  17.339  0.00  0.00    +0.000 A 
ATOM      5  C   UNL     1      50.282   7.354  16.749  0.00  0.00    +0.000 A 
ATOM      6  C   UNL     1      50.389   7.282  15.359  0.00  0.00    +0.000 A 
ENDROOT
BRANCH   1   7
ATOM      7  C   UNL     1      49.437   7.684  13.052  0.00  0.00    +0.000 C 
BRANCH   7  10
ATOM      8  O   UNL     1      48.111   5.223  13.368  0.00  0.00    +0.000 OA
ATOM      9  C   UNL     1      47.532   6.151  12.808  0.00  0.00    +0.000 C 
ATOM     10  N   UNL     1      48.132   7.353  12.551  0.00  0.00    +0.000 N 
ATOM     11  H   UNL     1      47.563   8.139  12.263  0.00  0.00    +0.000 HD
BRANCH   9  12
ATOM     12  C   UNL     1      46.154   6.013  12.323  0.00  0.00    +0.000 A 
ATOM     13  C   UNL     1      45.497   7.119  11.797  0.00  0.00    +0.000 A 
ATOM     14  S   UNL     1      43.904   6.781  11.288  0.00  0.00    +0.000 S 
ATOM     15  C   UNL     1      44.058   5.140  11.710  0.00  0.00    +0.000 A 
ATOM     16  N   UNL     1      43.040   4.266  11.495  0.00  0.00    +0.000 NA
ATOM     17  C   UNL     1      43.304   3.045  11.824  0.00  0.00    +0.000 A 
ATOM     18  N   UNL     1      44.493   2.624  12.367  0.00  0.00    +0.000 N 
ATOM     19  C   UNL     1      45.515   3.484  12.679  0.00  0.00    +0.000 A 
ATOM     20  O   UNL     1      46.502   3.094  13.301  0.00  0.00    +0.000 OA
ATOM     21  C   UNL     1      45.291   4.859  12.268  0.00  0.00    +0.000 A 
ATOM     22  H   UNL     1      44.623   1.658  12.641  0.00  0.00    +0.000 HD
ENDBRANCH   9  12
ENDBRANCH   7  10
ENDBRANCH   1   7
BRANCH   4  23
ATOM     23  C   UNL     1      48.978   7.956  18.834  0.00  0.00    +0.000 C 
BRANCH  23  24
ATOM     24  N   UNL     1      48.834   6.563  19.339  0.00  0.00    +0.000 NA
BRANCH  24  25
ATOM     25  C   UNL     1      48.518   6.564  20.788  0.00  0.00    +0.000 C 
BRANCH  25  26
ATOM     26  C   UNL     1      48.993   5.323  21.568  0.00  0.00    +0.000 C 
BRANCH  26  27
ATOM     27  O   UNL     1      47.991   4.307  21.549  0.00  0.00    +0.000 OA
ATOM     28  H   UNL     1      48.280   3.609  22.163  0.00  0.00    +0.000 HD
ENDBRANCH  26  27
ENDBRANCH  25  26
ENDBRANCH  24  25
BRANCH  24  29
ATOM     29  C   UNL     1      47.791   5.850  18.576  0.00  0.00    +0.000 C 
BRANCH  29  30
ATOM     30  C   UNL     1      48.302   4.623  17.854  0.00  0.00    +0.000 A 
ATOM     31  C   UNL     1      47.524   3.989  16.880  0.00  0.00    +0.000 A 
ATOM     32  C   UNL     1      48.018   2.842  16.281  0.00  0.00    +0.000 A 
ATOM     33  N   UNL     1      49.217   2.296  16.577  0.00  0.00    +0.000 NA
ATOM     34  C   UNL     1      49.957   2.931  17.510  0.00  0.00    +0.000 A 
ATOM     35  C   UNL     1      49.554   4.084  18.164  0.00  0.00    +0.000 A 
ENDBRANCH  29  30
ENDBRANCH  24  29
ENDBRANCH  23  24
ENDBRANCH   4  23
TORSDOF 10
ENDMDL
MODEL 7
REMARK VINA RESULT:    -6.353      3.213      8.128
REMARK INTER + INTRA:         -11.597
REMARK INTER:                 -10.096
REMARK INTRA:                  -1.501
REMARK UNBOUND:                -1.715
REMARK  Name = 
REMARK  10 active torsions:
REMARK  status: ('A' for Active; 'I' for Inactive)
REMARK    1  A    between atoms: C_2  and  C_23
REMARK    2  A    between atoms: N_3  and  C_4
REMARK    3  A    between atoms: C_4  and  C_5
REMARK    4  A    between atoms: C_8  and  C_9
REMARK    5  A    between atoms: C_9  and  N_10
REMARK    6  A    between atoms: N_10  and  C_11
REMARK    7  A    between atoms: N_10  and  C_14
REMARK    8  A    between atoms: C_11  and  C_12
REMARK    9  A    between atoms: C_12  and  O_13
REMARK   10  A    between atoms: C_14  and  C_15
REMARK                            x       y       z     vdW  Elec       q    Type
REMARK                         _______ _______ _______ _____ _____    ______ ____
ROOT
ATOM      1  C   UNL     1      48.368   8.070  13.667  0.00  0.00    +0.000 A 
ATOM      2  C   UNL     1      48.351   9.154  14.554  0.00  0.00    +0.000 A 
ATOM      3  C   UNL     1      48.566   8.952  15.915  0.00  0.00    +0.000 A 
ATOM      4  C   UNL     1      48.794   7.662  16.411  0.00  0.00    +0.000 A 
ATOM      5  C   UNL     1      48.929   6.598  15.511  0.00  0.00    +0.000 A 
ATOM      6  C   UNL     1      48.722   6.802  14.146  0.00  0.00    +0.000 A 
ENDROOT
BRANCH   1   7
ATOM      7  C   UNL     1      48.002   8.275  12.223  0.00  0.00    +0.000 C 
BRANCH   7  10
ATOM      8  O   UNL     1      45.229   7.882  11.960  0.00  0.00    +0.000 OA
ATOM      9  C   UNL     1      46.001   7.030  11.525  0.00  0.00    +0.000 C 
ATOM     10  N   UNL     1      47.358   7.112  11.679  0.00  0.00    +0.000 N 
ATOM     11  H   UNL     1      47.954   6.492  11.146  0.00  0.00    +0.000 HD
BRANCH   9  12
ATOM     12  C   UNL     1      45.511   5.824  10.849  0.00  0.00    +0.000 A 
ATOM     13  C   UNL     1      45.833   5.604   9.516  0.00  0.00    +0.000 A 
ATOM     14  S   UNL     1      45.176   4.160   8.890  0.00  0.00    +0.000 S 
ATOM     15  C   UNL     1      44.479   3.761  10.389  0.00  0.00    +0.000 A 
ATOM     16  N   UNL     1      43.788   2.603  10.551  0.00  0.00    +0.000 NA
ATOM     17  C   UNL     1      43.347   2.405  11.749  0.00  0.00    +0.000 A 
ATOM     18  N   UNL     1      43.523   3.274  12.797  0.00  0.00    +0.000 N 
ATOM     19  C   UNL     1      44.139   4.491  12.659  0.00  0.00    +0.000 A 
ATOM     20  O   UNL     1      44.144   5.306  13.581  0.00  0.00    +0.000 OA
ATOM     21  C   UNL     1      44.710   4.732  11.345  0.00  0.00    +0.000 A 
ATOM     22  H   UNL     1      43.116   3.079  13.704  0.00  0.00    +0.000 HD
ENDBRANCH   9  12
ENDBRANCH   7  10
ENDBRANCH   1   7
BRANCH   4  23
ATOM     23  C   UNL     1      48.832   7.417  17.905  0.00  0.00    +0.000 C 
BRANCH  23  24
ATOM     24  N   UNL     1      49.806   6.365  18.303  0.00  0.00    +0.000 NA
BRANCH  24  25
ATOM     25  C   UNL     1      50.729   6.875  19.345  0.00  0.00    +0.000 C 
BRANCH  25  26
ATOM     26  C   UNL     1      51.451   8.192  19.002  0.00  0.00    +0.000 C 
BRANCH  26  27
ATOM     27  O   UNL     1      52.583   8.377  19.851  0.00  0.00    +0.000 OA
ATOM     28  H   UNL     1      52.599   7.631  20.474  0.00  0.00    +0.000 HD
ENDBRANCH  26  27
ENDBRANCH  25  26
ENDBRANCH  24  25
BRANCH  24  29
ATOM     29  C   UNL     1      49.092   5.162  18.778  0.00  0.00    +0.000 C 
BRANCH  29  30
ATOM     30  C   UNL     1      49.253   3.965  17.869  0.00  0.00    +0.000 A 
ATOM     31  C   UNL     1      48.181   3.498  17.102  0.00  0.00    +0.000 A 
ATOM     32  C   UNL     1      48.367   2.370  16.321  0.00  0.00    +0.000 A 
ATOM     33  N   UNL     1      49.531   1.689  16.248  0.00  0.00    +0.000 NA
ATOM     34  C   UNL     1      50.557   2.163  16.986  0.00  0.00    +0.000 A 
ATOM     35  C   UNL     1      50.472   3.285  17.795  0.00  0.00    +0.000 A 
ENDBRANCH  29  30
ENDBRANCH  24  29
ENDBRANCH  23  24
ENDBRANCH   4  23
TORSDOF 10
ENDMDL
MODEL 8
REMARK VINA RESULT:    -6.341      3.520      8.033
REMARK INTER + INTRA:         -11.578
REMARK INTER:                  -8.961
REMARK INTRA:                  -2.617
REMARK UNBOUND:                -1.715
REMARK  Name = 
REMARK  10 active torsions:
REMARK  status: ('A' for Active; 'I' for Inactive)
REMARK    1  A    between atoms: C_2  and  C_23
REMARK    2  A    between atoms: N_3  and  C_4
REMARK    3  A    between atoms: C_4  and  C_5
REMARK    4  A    between atoms: C_8  and  C_9
REMARK    5  A    between atoms: C_9  and  N_10
REMARK    6  A    between atoms: N_10  and  C_11
REMARK    7  A    between atoms: N_10  and  C_14
REMARK    8  A    between atoms: C_11  and  C_12
REMARK    9  A    between atoms: C_12  and  O_13
REMARK   10  A    between atoms: C_14  and  C_15
REMARK                            x       y       z     vdW  Elec       q    Type
REMARK                         _______ _______ _______ _____ _____    ______ ____
ROOT
ATOM      1  C   UNL     1      49.295   8.731  15.756  0.00  0.00    +0.000 A 
ATOM      2  C   UNL     1      49.383   8.718  17.154  0.00  0.00    +0.000 A 
ATOM      3  C   UNL     1      50.354   7.949  17.791  0.00  0.00    +0.000 A 
ATOM      4  C   UNL     1      51.247   7.174  17.039  0.00  0.00    +0.000 A 
ATOM      5  C   UNL     1      51.235   7.279  15.643  0.00  0.00    +0.000 A 
ATOM      6  C   UNL     1      50.268   8.058  15.005  0.00  0.00    +0.000 A 
ENDROOT
BRANCH   1   7
ATOM      7  C   UNL     1      48.162   9.454  15.081  0.00  0.00    +0.000 C 
BRANCH   7  10
ATOM      8  O   UNL     1      47.635   9.131  12.337  0.00  0.00    +0.000 OA
ATOM      9  C   UNL     1      47.082   8.391  13.146  0.00  0.00    +0.000 C 
ATOM     10  N   UNL     1      47.228   8.531  14.500  0.00  0.00    +0.000 N 
ATOM     11  H   UNL     1      46.909   7.790  15.111  0.00  0.00    +0.000 HD
BRANCH   9  12
ATOM     12  C   UNL     1      46.171   7.325  12.714  0.00  0.00    +0.000 A 
ATOM     13  C   UNL     1      45.081   7.635  11.911  0.00  0.00    +0.000 A 
ATOM     14  S   UNL     1      44.128   6.279  11.509  0.00  0.00    +0.000 S 
ATOM     15  C   UNL     1      45.166   5.229  12.355  0.00  0.00    +0.000 A 
ATOM     16  N   UNL     1      44.935   3.891  12.380  0.00  0.00    +0.000 NA
ATOM     17  C   UNL     1      45.822   3.206  13.023  0.00  0.00    +0.000 A 
ATOM     18  N   UNL     1      46.912   3.746  13.660  0.00  0.00    +0.000 N 
ATOM     19  C   UNL     1      47.138   5.097  13.732  0.00  0.00    +0.000 A 
ATOM     20  O   UNL     1      48.038   5.551  14.437  0.00  0.00    +0.000 OA
ATOM     21  C   UNL     1      46.203   5.905  12.968  0.00  0.00    +0.000 A 
ATOM     22  H   UNL     1      47.549   3.158  14.182  0.00  0.00    +0.000 HD
ENDBRANCH   9  12
ENDBRANCH   7  10
ENDBRANCH   1   7
BRANCH   4  23
ATOM     23  C   UNL     1      52.169   6.192  17.730  0.00  0.00    +0.000 C 
BRANCH  23  24
ATOM     24  N   UNL     1      51.704   4.781  17.631  0.00  0.00    +0.000 NA
BRANCH  24  25
ATOM     25  C   UNL     1      52.846   3.845  17.766  0.00  0.00    +0.000 C 
BRANCH  25  26
ATOM     26  C   UNL     1      53.192   3.427  19.208  0.00  0.00    +0.000 C 
BRANCH  26  27
ATOM     27  O   UNL     1      53.376   2.014  19.288  0.00  0.00    +0.000 OA
ATOM     28  H   UNL     1      53.462   1.684  18.378  0.00  0.00    +0.000 HD
ENDBRANCH  26  27
ENDBRANCH  25  26
ENDBRANCH  24  25
BRANCH  24  29
ATOM     29  C   UNL     1      50.680   4.509  18.660  0.00  0.00    +0.000 C 
BRANCH  29  30
ATOM     30  C   UNL     1      49.337   4.119  18.087  0.00  0.00    +0.000 A 
ATOM     31  C   UNL     1      49.183   2.930  17.367  0.00  0.00    +0.000 A 
ATOM     32  C   UNL     1      47.942   2.641  16.823  0.00  0.00    +0.000 A 
ATOM     33  N   UNL     1      46.860   3.439  16.951  0.00  0.00    +0.000 NA
ATOM     34  C   UNL     1      47.027   4.575  17.660  0.00  0.00    +0.000 A 
ATOM     35  C   UNL     1      48.225   4.952  18.245  0.00  0.00    +0.000 A 
ENDBRANCH  29  30
ENDBRANCH  24  29
ENDBRANCH  23  24
ENDBRANCH   4  23
TORSDOF 10
ENDMDL
MODEL 9
REMARK VINA RESULT:    -6.112      3.845      5.464
REMARK INTER + INTRA:         -11.221
REMARK INTER:                  -9.862
REMARK INTRA:                  -1.359
REMARK UNBOUND:                -1.715
REMARK  Name = 
REMARK  10 active torsions:
REMARK  status: ('A' for Active; 'I' for Inactive)
REMARK    1  A    between atoms: C_2  and  C_23
REMARK    2  A    between atoms: N_3  and  C_4
REMARK    3  A    between atoms: C_4  and  C_5
REMARK    4  A    between atoms: C_8  and  C_9
REMARK    5  A    between atoms: C_9  and  N_10
REMARK    6  A    between atoms: N_10  and  C_11
REMARK    7  A    between atoms: N_10  and  C_14
REMARK    8  A    between atoms: C_11  and  C_12
REMARK    9  A    between atoms: C_12  and  O_13
REMARK   10  A    between atoms: C_14  and  C_15
REMARK                            x       y       z     vdW  Elec       q    Type
REMARK                         _______ _______ _______ _____ _____    ______ ____
ROOT
ATOM      1  C   UNL     1      47.938   6.971  13.574  0.00  0.00    +0.000 A 
ATOM      2  C   UNL     1      47.138   8.025  13.116  0.00  0.00    +0.000 A 
ATOM      3  C   UNL     1      46.006   7.767  12.349  0.00  0.00    +0.000 A 
ATOM      4  C   UNL     1      45.659   6.449  12.021  0.00  0.00    +0.000 A 
ATOM      5  C   UNL     1      46.390   5.392  12.577  0.00  0.00    +0.000 A 
ATOM      6  C   UNL     1      47.520   5.652  13.353  0.00  0.00    +0.000 A 
ENDROOT
BRANCH   1   7
ATOM      7  C   UNL     1      49.231   7.262  14.284  0.00  0.00    +0.000 C 
BRANCH   7  10
ATOM      8  O   UNL     1      51.875   8.022  14.869  0.00  0.00    +0.000 OA
ATOM      9  C   UNL     1      51.320   8.491  13.878  0.00  0.00    +0.000 C 
ATOM     10  N   UNL     1      50.014   8.229  13.567  0.00  0.00    +0.000 N 
ATOM     11  H   UNL     1      49.664   8.482  12.652  0.00  0.00    +0.000 HD
BRANCH   9  12
ATOM     12  C   UNL     1      52.013   9.419  12.978  0.00  0.00    +0.000 A 
ATOM     13  C   UNL     1      52.522  10.611  13.477  0.00  0.00    +0.000 A 
ATOM     14  S   UNL     1      53.289  11.569  12.292  0.00  0.00    +0.000 S 
ATOM     15  C   UNL     1      53.006  10.403  11.086  0.00  0.00    +0.000 A 
ATOM     16  N   UNL     1      53.450  10.592   9.816  0.00  0.00    +0.000 NA
ATOM     17  C   UNL     1      53.203   9.611   9.011  0.00  0.00    +0.000 A 
ATOM     18  N   UNL     1      52.534   8.464   9.363  0.00  0.00    +0.000 N 
ATOM     19  C   UNL     1      51.996   8.269  10.608  0.00  0.00    +0.000 A 
ATOM     20  O   UNL     1      51.275   7.299  10.841  0.00  0.00    +0.000 OA
ATOM     21  C   UNL     1      52.303   9.316  11.568  0.00  0.00    +0.000 A 
ATOM     22  H   UNL     1      52.337   7.750   8.673  0.00  0.00    +0.000 HD
ENDBRANCH   9  12
ENDBRANCH   7  10
ENDBRANCH   1   7
BRANCH   4  23
ATOM     23  C   UNL     1      44.547   6.179  11.029  0.00  0.00    +0.000 C 
BRANCH  23  24
ATOM     24  N   UNL     1      44.367   4.733  10.729  0.00  0.00    +0.000 NA
BRANCH  24  25
ATOM     25  C   UNL     1      43.254   4.167  11.530  0.00  0.00    +0.000 C 
BRANCH  25  26
ATOM     26  C   UNL     1      43.574   2.855  12.270  0.00  0.00    +0.000 C 
BRANCH  26  27
ATOM     27  O   UNL     1      42.855   1.766  11.691  0.00  0.00    +0.000 OA
ATOM     28  H   UNL     1      42.974   1.826  10.727  0.00  0.00    +0.000 HD
ENDBRANCH  26  27
ENDBRANCH  25  26
ENDBRANCH  24  25
BRANCH  24  29
ATOM     29  C   UNL     1      44.124   4.538   9.285  0.00  0.00    +0.000 C 
BRANCH  29  30
ATOM     30  C   UNL     1      45.111   3.602   8.626  0.00  0.00    +0.000 A 
ATOM     31  C   UNL     1      45.092   2.231   8.902  0.00  0.00    +0.000 A 
ATOM     32  C   UNL     1      46.047   1.422   8.309  0.00  0.00    +0.000 A 
ATOM     33  N   UNL     1      47.001   1.878   7.468  0.00  0.00    +0.000 NA
ATOM     34  C   UNL     1      46.994   3.201   7.205  0.00  0.00    +0.000 A 
ATOM     35  C   UNL     1      46.080   4.092   7.745  0.00  0.00    +0.000 A 
ENDBRANCH  29  30
ENDBRANCH  24  29
ENDBRANCH  23  24
ENDBRANCH   4  23
TORSDOF 10
ENDMDL
