MODEL 1
REMARK VINA RESULT:    -8.212      0.000      0.000
REMARK INTER + INTRA:         -12.502
REMARK INTER:                 -11.573
REMARK INTRA:                  -0.929
REMARK UNBOUND:                -0.929
REMARK  Name = 
REMARK  10 active torsions:
REMARK  status: ('A' for Active; 'I' for Inactive)
REMARK    1  A    between atoms: C_1  and  O_2
REMARK    2  A    between atoms: O_2  and  C_3
REMARK    3  A    between atoms: C_5  and  C_6
REMARK    4  A    between atoms: C_6  and  C_7
REMARK    5  A    between atoms: C_7  and  N_8
REMARK    6  A    between atoms: C_12  and  C_13
REMARK    7  A    between atoms: C_19  and  O_20
REMARK    8  A    between atoms: O_20  and  C_21
REMARK    9  A    between atoms: C_22  and  C_23
REMARK   10  A    between atoms: C_27  and  C_28
REMARK                            x       y       z     vdW  Elec       q    Type
REMARK                         _______ _______ _______ _____ _____    ______ ____
ROOT
ATOM      1  C   UNL     1      46.715   5.628  13.567  0.00  0.00    +0.000 A 
ATOM      2  C   UNL     1      45.459   5.066  13.323  0.00  0.00    +0.000 A 
ATOM      3  C   UNL     1      44.445   5.767  12.662  0.00  0.00    +0.000 A 
ATOM      4  C   UNL     1      44.705   7.086  12.277  0.00  0.00    +0.000 A 
ATOM      5  C   UNL     1      45.950   7.686  12.535  0.00  0.00    +0.000 A 
ATOM      6  C   UNL     1      47.011   6.951  13.135  0.00  0.00    +0.000 A 
ENDROOT
BRANCH   6   7
ATOM      7  C   UNL     1      48.396   7.513  13.263  0.00  0.00    +0.000 A 
ATOM      8  C   UNL     1      48.924   7.937  14.497  0.00  0.00    +0.000 A 
ATOM      9  C   UNL     1      50.255   8.329  14.638  0.00  0.00    +0.000 A 
ATOM     10  C   UNL     1      51.094   8.363  13.531  0.00  0.00    +0.000 A 
ATOM     11  C   UNL     1      50.606   7.992  12.278  0.00  0.00    +0.000 A 
ATOM     12  C   UNL     1      51.490   8.005  11.067  0.00  0.00    +0.000 C 
ATOM     13  C   UNL     1      49.273   7.569  12.159  0.00  0.00    +0.000 A 
ENDBRANCH   6   7
BRANCH   1  15
ATOM     14  C   UNL     1      47.440   4.247  15.407  0.00  0.00    +0.000 C 
ATOM     15  O   UNL     1      47.716   4.912  14.182  0.00  0.00    +0.000 OA
ENDBRANCH   1  15
BRANCH   5  16
ATOM     16  O   UNL     1      46.206   8.990  12.175  0.00  0.00    +0.000 OA
ATOM     17  C   UNL     1      45.108   9.892  12.171  0.00  0.00    +0.000 C 
ENDBRANCH   5  16
BRANCH   3  18
ATOM     18  C   UNL     1      43.094   5.148  12.346  0.00  0.00    +0.000 C 
BRANCH  18  19
ATOM     19  C   UNL     1      43.062   4.359  11.034  0.00  0.00    +0.000 C 
BRANCH  19  20
ATOM     20  N   UNL     1      43.900   4.954   9.993  0.00  0.00    +0.000 N 
ATOM     21  C   UNL     1      44.664   3.963   9.337  0.00  0.00    +0.000 A 
ATOM     22  C   UNL     1      45.519   4.344   8.310  0.00  0.00    +0.000 A 
ATOM     23  C   UNL     1      46.278   3.367   7.657  0.00  0.00    +0.000 A 
ATOM     24  C   UNL     1      46.173   2.030   8.042  0.00  0.00    +0.000 A 
ATOM     25  C   UNL     1      45.287   1.739   9.062  0.00  0.00    +0.000 A 
ATOM     26  N   UNL     1      44.539   2.668   9.702  0.00  0.00    +0.000 NA
ATOM     27  H   UNL     1      44.538   5.654  10.363  0.00  0.00    +0.000 HD
BRANCH  24  28
ATOM     28  C   UNL     1      46.995   1.003   7.365  0.00  0.00    +0.000 C 
ATOM     29  N   UNL     1      47.781   1.371   6.303  0.00  0.00    +0.000 N 
ATOM     30  O   UNL     1      46.980  -0.163   7.730  0.00  0.00    +0.000 OA
ATOM     31  H   UNL     1      47.869   2.294   5.910  0.00  0.00    +0.000 HD
ATOM     32  H   UNL     1      48.322   0.629   5.872  0.00  0.00    +0.000 HD
ENDBRANCH  24  28
ENDBRANCH  19  20
ENDBRANCH  18  19
ENDBRANCH   3  18
TORSDOF 7
ENDMDL
MODEL 2
REMARK VINA RESULT:    -8.025      0.618      2.777
REMARK INTER + INTRA:         -12.238
REMARK INTER:                 -11.286
REMARK INTRA:                  -0.952
REMARK UNBOUND:                -0.929
REMARK  Name = 
REMARK  10 active torsions:
REMARK  status: ('A' for Active; 'I' for Inactive)
REMARK    1  A    between atoms: C_1  and  O_2
REMARK    2  A    between atoms: O_2  and  C_3
REMARK    3  A    between atoms: C_5  and  C_6
REMARK    4  A    between atoms: C_6  and  C_7
REMARK    5  A    between atoms: C_7  and  N_8
REMARK    6  A    between atoms: C_12  and  C_13
REMARK    7  A    between atoms: C_19  and  O_20
REMARK    8  A    between atoms: O_20  and  C_21
REMARK    9  A    between atoms: C_22  and  C_23
REMARK   10  A    between atoms: C_27  and  C_28
REMARK                            x       y       z     vdW  Elec       q    Type
REMARK                         _______ _______ _______ _____ _____    ______ ____
ROOT
ATOM      1  C   UNL     1      46.029   7.678  12.337  0.00  0.00    +0.000 A 
ATOM      2  C   UNL     1      44.785   7.089  12.094  0.00  0.00    +0.000 A 
ATOM      3  C   UNL     1      44.450   5.826  12.592  0.00  0.00    +0.000 A 
ATOM      4  C   UNL     1      45.421   5.129  13.318  0.00  0.00    +0.000 A 
ATOM      5  C   UNL     1      46.691   5.686  13.552  0.00  0.00    +0.000 A 
ATOM      6  C   UNL     1      47.009   7.004  13.117  0.00  0.00    +0.000 A 
ENDROOT
BRANCH   6   7
ATOM      7  C   UNL     1      48.290   7.682  13.503  0.00  0.00    +0.000 A 
ATOM      8  C   UNL     1      49.457   7.582  12.722  0.00  0.00    +0.000 A 
ATOM      9  C   UNL     1      50.605   8.322  13.007  0.00  0.00    +0.000 A 
ATOM     10  C   UNL     1      50.642   9.151  14.121  0.00  0.00    +0.000 A 
ATOM     11  C   UNL     1      49.524   9.253  14.949  0.00  0.00    +0.000 A 
ATOM     12  C   UNL     1      49.529  10.149  16.151  0.00  0.00    +0.000 C 
ATOM     13  C   UNL     1      48.366   8.525  14.630  0.00  0.00    +0.000 A 
ENDBRANCH   6   7
BRANCH   1  15
ATOM     14  C   UNL     1      45.384   9.986  12.056  0.00  0.00    +0.000 C 
ATOM     15  O   UNL     1      46.329   8.940  11.876  0.00  0.00    +0.000 OA
ENDBRANCH   1  15
BRANCH   5  16
ATOM     16  O   UNL     1      47.658   4.999  14.250  0.00  0.00    +0.000 OA
ATOM     17  C   UNL     1      47.252   4.328  15.436  0.00  0.00    +0.000 C 
ENDBRANCH   5  16
BRANCH   3  18
ATOM     18  C   UNL     1      43.082   5.199  12.379  0.00  0.00    +0.000 C 
BRANCH  18  19
ATOM     19  C   UNL     1      42.940   4.450  11.051  0.00  0.00    +0.000 C 
BRANCH  19  20
ATOM     20  N   UNL     1      43.767   5.020   9.987  0.00  0.00    +0.000 N 
ATOM     21  C   UNL     1      44.548   4.018   9.368  0.00  0.00    +0.000 A 
ATOM     22  C   UNL     1      45.395   4.374   8.326  0.00  0.00    +0.000 A 
ATOM     23  C   UNL     1      46.171   3.386   7.710  0.00  0.00    +0.000 A 
ATOM     24  C   UNL     1      46.090   2.063   8.146  0.00  0.00    +0.000 A 
ATOM     25  C   UNL     1      45.210   1.796   9.179  0.00  0.00    +0.000 A 
ATOM     26  N   UNL     1      44.446   2.736   9.783  0.00  0.00    +0.000 NA
ATOM     27  H   UNL     1      44.393   5.744  10.328  0.00  0.00    +0.000 HD
BRANCH  24  28
ATOM     28  C   UNL     1      46.929   1.026   7.508  0.00  0.00    +0.000 C 
ATOM     29  N   UNL     1      47.926   1.410   6.648  0.00  0.00    +0.000 N 
ATOM     30  O   UNL     1      46.746  -0.162   7.728  0.00  0.00    +0.000 OA
ATOM     31  H   UNL     1      48.165   2.351   6.384  0.00  0.00    +0.000 HD
ATOM     32  H   UNL     1      48.469   0.660   6.234  0.00  0.00    +0.000 HD
ENDBRANCH  24  28
ENDBRANCH  19  20
ENDBRANCH  18  19
ENDBRANCH   3  18
TORSDOF 7
ENDMDL
MODEL 3
REMARK VINA RESULT:    -7.786      1.108      1.919
REMARK INTER + INTRA:         -11.900
REMARK INTER:                 -10.829
REMARK INTRA:                  -1.071
REMARK UNBOUND:                -0.929
REMARK  Name = 
REMARK  10 active torsions:
REMARK  status: ('A' for Active; 'I' for Inactive)
REMARK    1  A    between atoms: C_1  and  O_2
REMARK    2  A    between atoms: O_2  and  C_3
REMARK    3  A    between atoms: C_5  and  C_6
REMARK    4  A    between atoms: C_6  and  C_7
REMARK    5  A    between atoms: C_7  and  N_8
REMARK    6  A    between atoms: C_12  and  C_13
REMARK    7  A    between atoms: C_19  and  O_20
REMARK    8  A    between atoms: O_20  and  C_21
REMARK    9  A    between atoms: C_22  and  C_23
REMARK   10  A    between atoms: C_27  and  C_28
REMARK                            x       y       z     vdW  Elec       q    Type
REMARK                         _______ _______ _______ _____ _____    ______ ____
ROOT
ATOM      1  C   UNL     1      46.797   5.505  13.689  0.00  0.00    +0.000 A 
ATOM      2  C   UNL     1      45.564   4.978  13.295  0.00  0.00    +0.000 A 
ATOM      3  C   UNL     1      44.610   5.745  12.617  0.00  0.00    +0.000 A 
ATOM      4  C   UNL     1      44.903   7.090  12.374  0.00  0.00    +0.000 A 
ATOM      5  C   UNL     1      46.124   7.653  12.785  0.00  0.00    +0.000 A 
ATOM      6  C   UNL     1      47.131   6.857  13.402  0.00  0.00    +0.000 A 
ENDROOT
BRANCH   6   7
ATOM      7  C   UNL     1      48.502   7.393  13.693  0.00  0.00    +0.000 A 
ATOM      8  C   UNL     1      49.501   7.475  12.704  0.00  0.00    +0.000 A 
ATOM      9  C   UNL     1      50.727   8.099  12.940  0.00  0.00    +0.000 A 
ATOM     10  C   UNL     1      51.016   8.617  14.196  0.00  0.00    +0.000 A 
ATOM     11  C   UNL     1      50.073   8.524  15.220  0.00  0.00    +0.000 A 
ATOM     12  C   UNL     1      50.351   9.085  16.582  0.00  0.00    +0.000 C 
ATOM     13  C   UNL     1      48.833   7.921  14.958  0.00  0.00    +0.000 A 
ENDBRANCH   6   7
BRANCH   1  15
ATOM     14  C   UNL     1      47.439   4.154  15.582  0.00  0.00    +0.000 C 
ATOM     15  O   UNL     1      47.743   4.727  14.317  0.00  0.00    +0.000 OA
ENDBRANCH   1  15
BRANCH   5  16
ATOM     16  O   UNL     1      46.412   8.981  12.565  0.00  0.00    +0.000 OA
ATOM     17  C   UNL     1      45.375   9.792  12.029  0.00  0.00    +0.000 C 
ENDBRANCH   5  16
BRANCH   3  18
ATOM     18  C   UNL     1      43.288   5.169  12.138  0.00  0.00    +0.000 C 
BRANCH  18  19
ATOM     19  C   UNL     1      43.313   4.675  10.689  0.00  0.00    +0.000 C 
BRANCH  19  20
ATOM     20  N   UNL     1      43.767   3.290  10.568  0.00  0.00    +0.000 N 
ATOM     21  C   UNL     1      44.664   3.149   9.486  0.00  0.00    +0.000 A 
ATOM     22  C   UNL     1      45.206   1.897   9.221  0.00  0.00    +0.000 A 
ATOM     23  C   UNL     1      46.095   1.751   8.151  0.00  0.00    +0.000 A 
ATOM     24  C   UNL     1      46.424   2.855   7.363  0.00  0.00    +0.000 A 
ATOM     25  C   UNL     1      45.851   4.065   7.708  0.00  0.00    +0.000 A 
ATOM     26  N   UNL     1      44.994   4.227   8.743  0.00  0.00    +0.000 NA
ATOM     27  H   UNL     1      42.997   2.641  10.429  0.00  0.00    +0.000 HD
BRANCH  24  28
ATOM     28  C   UNL     1      47.346   2.692   6.218  0.00  0.00    +0.000 C 
ATOM     29  N   UNL     1      48.684   2.504   6.460  0.00  0.00    +0.000 N 
ATOM     30  O   UNL     1      46.940   2.727   5.066  0.00  0.00    +0.000 OA
ATOM     31  H   UNL     1      49.134   2.465   7.359  0.00  0.00    +0.000 HD
ATOM     32  H   UNL     1      49.273   2.401   5.640  0.00  0.00    +0.000 HD
ENDBRANCH  24  28
ENDBRANCH  19  20
ENDBRANCH  18  19
ENDBRANCH   3  18
TORSDOF 7
ENDMDL
MODEL 4
REMARK VINA RESULT:    -6.946      2.171      3.340
REMARK INTER + INTRA:         -10.717
REMARK INTER:                  -9.709
REMARK INTRA:                  -1.008
REMARK UNBOUND:                -0.929
REMARK  Name = 
REMARK  10 active torsions:
REMARK  status: ('A' for Active; 'I' for Inactive)
REMARK    1  A    between atoms: C_1  and  O_2
REMARK    2  A    between atoms: O_2  and  C_3
REMARK    3  A    between atoms: C_5  and  C_6
REMARK    4  A    between atoms: C_6  and  C_7
REMARK    5  A    between atoms: C_7  and  N_8
REMARK    6  A    between atoms: C_12  and  C_13
REMARK    7  A    between atoms: C_19  and  O_20
REMARK    8  A    between atoms: O_20  and  C_21
REMARK    9  A    between atoms: C_22  and  C_23
REMARK   10  A    between atoms: C_27  and  C_28
REMARK                            x       y       z     vdW  Elec       q    Type
REMARK                         _______ _______ _______ _____ _____    ______ ____
ROOT
ATOM      1  C   UNL     1      45.717   9.008  11.783  0.00  0.00    +0.000 A 
ATOM      2  C   UNL     1      44.812   7.943  11.814  0.00  0.00    +0.000 A 
ATOM      3  C   UNL     1      45.199   6.647  12.168  0.00  0.00    +0.000 A 
ATOM      4  C   UNL     1      46.549   6.421  12.455  0.00  0.00    +0.000 A 
ATOM      5  C   UNL     1      47.487   7.468  12.403  0.00  0.00    +0.000 A 
ATOM      6  C   UNL     1      47.083   8.805  12.123  0.00  0.00    +0.000 A 
ENDROOT
BRANCH   6   7
ATOM      7  C   UNL     1      48.033   9.961  12.230  0.00  0.00    +0.000 A 
ATOM      8  C   UNL     1      48.346  10.563  13.463  0.00  0.00    +0.000 A 
ATOM      9  C   UNL     1      49.331  11.545  13.580  0.00  0.00    +0.000 A 
ATOM     10  C   UNL     1      50.001  11.998  12.451  0.00  0.00    +0.000 A 
ATOM     11  C   UNL     1      49.697  11.461  11.200  0.00  0.00    +0.000 A 
ATOM     12  C   UNL     1      50.412  11.920   9.965  0.00  0.00    +0.000 C 
ATOM     13  C   UNL     1      48.726  10.452  11.105  0.00  0.00    +0.000 A 
ENDBRANCH   6   7
BRANCH   1  15
ATOM     14  C   UNL     1      44.134  10.472  10.702  0.00  0.00    +0.000 C 
ATOM     15  O   UNL     1      45.313  10.286  11.473  0.00  0.00    +0.000 OA
ENDBRANCH   1  15
BRANCH   5  16
ATOM     16  O   UNL     1      48.820   7.250  12.666  0.00  0.00    +0.000 OA
ATOM     17  C   UNL     1      49.183   6.988  14.015  0.00  0.00    +0.000 C 
ENDBRANCH   5  16
BRANCH   3  18
ATOM     18  C   UNL     1      44.213   5.494  12.256  0.00  0.00    +0.000 C 
BRANCH  18  19
ATOM     19  C   UNL     1      43.675   5.029  10.900  0.00  0.00    +0.000 C 
BRANCH  19  20
ATOM     20  N   UNL     1      43.859   3.595  10.677  0.00  0.00    +0.000 N 
ATOM     21  C   UNL     1      44.726   3.366   9.585  0.00  0.00    +0.000 A 
ATOM     22  C   UNL     1      45.024   2.056   9.227  0.00  0.00    +0.000 A 
ATOM     23  C   UNL     1      45.881   1.823   8.146  0.00  0.00    +0.000 A 
ATOM     24  C   UNL     1      46.422   2.899   7.441  0.00  0.00    +0.000 A 
ATOM     25  C   UNL     1      46.085   4.167   7.875  0.00  0.00    +0.000 A 
ATOM     26  N   UNL     1      45.263   4.414   8.922  0.00  0.00    +0.000 NA
ATOM     27  H   UNL     1      42.982   3.116  10.492  0.00  0.00    +0.000 HD
BRANCH  24  28
ATOM     28  C   UNL     1      47.310   2.648   6.284  0.00  0.00    +0.000 C 
ATOM     29  N   UNL     1      48.662   2.548   6.490  0.00  0.00    +0.000 N 
ATOM     30  O   UNL     1      46.861   2.533   5.153  0.00  0.00    +0.000 OA
ATOM     31  H   UNL     1      49.145   2.631   7.369  0.00  0.00    +0.000 HD
ATOM     32  H   UNL     1      49.226   2.379   5.664  0.00  0.00    +0.000 HD
ENDBRANCH  24  28
ENDBRANCH  19  20
ENDBRANCH  18  19
ENDBRANCH   3  18
TORSDOF 7
ENDMDL
MODEL 5
REMARK VINA RESULT:    -6.742      4.215      8.239
REMARK INTER + INTRA:         -10.429
REMARK INTER:                  -9.215
REMARK INTRA:                  -1.214
REMARK UNBOUND:                -0.929
REMARK  Name = 
REMARK  10 active torsions:
REMARK  status: ('A' for Active; 'I' for Inactive)
REMARK    1  A    between atoms: C_1  and  O_2
REMARK    2  A    between atoms: O_2  and  C_3
REMARK    3  A    between atoms: C_5  and  C_6
REMARK    4  A    between atoms: C_6  and  C_7
REMARK    5  A    between atoms: C_7  and  N_8
REMARK    6  A    between atoms: C_12  and  C_13
REMARK    7  A    between atoms: C_19  and  O_20
REMARK    8  A    between atoms: O_20  and  C_21
REMARK    9  A    between atoms: C_22  and  C_23
REMARK   10  A    between atoms: C_27  and  C_28
REMARK                            x       y       z     vdW  Elec       q    Type
REMARK                         _______ _______ _______ _____ _____    ______ ____
ROOT
ATOM      1  C   UNL     1      47.361   6.359  13.546  0.00  0.00    +0.000 A 
ATOM      2  C   UNL     1      48.237   7.260  14.159  0.00  0.00    +0.000 A 
ATOM      3  C   UNL     1      48.082   8.645  14.043  0.00  0.00    +0.000 A 
ATOM      4  C   UNL     1      47.035   9.123  13.249  0.00  0.00    +0.000 A 
ATOM      5  C   UNL     1      46.156   8.239  12.597  0.00  0.00    +0.000 A 
ATOM      6  C   UNL     1      46.261   6.831  12.777  0.00  0.00    +0.000 A 
ENDROOT
BRANCH   6   7
ATOM      7  C   UNL     1      45.235   5.881  12.233  0.00  0.00    +0.000 A 
ATOM      8  C   UNL     1      44.078   5.532  12.955  0.00  0.00    +0.000 A 
ATOM      9  C   UNL     1      43.059   4.760  12.394  0.00  0.00    +0.000 A 
ATOM     10  C   UNL     1      43.191   4.263  11.103  0.00  0.00    +0.000 A 
ATOM     11  C   UNL     1      44.339   4.548  10.362  0.00  0.00    +0.000 A 
ATOM     12  C   UNL     1      44.504   4.037   8.963  0.00  0.00    +0.000 C 
ATOM     13  C   UNL     1      45.339   5.353  10.930  0.00  0.00    +0.000 A 
ENDBRANCH   6   7
BRANCH   1  15
ATOM     14  C   UNL     1      47.147   4.406  14.945  0.00  0.00    +0.000 C 
ATOM     15  O   UNL     1      47.501   5.000  13.703  0.00  0.00    +0.000 OA
ENDBRANCH   1  15
BRANCH   5  16
ATOM     16  O   UNL     1      45.135   8.703  11.799  0.00  0.00    +0.000 OA
ATOM     17  C   UNL     1      44.759  10.065  11.948  0.00  0.00    +0.000 C 
ENDBRANCH   5  16
BRANCH   3  18
ATOM     18  C   UNL     1      48.997   9.632  14.748  0.00  0.00    +0.000 C 
BRANCH  18  19
ATOM     19  C   UNL     1      49.513   9.144  16.105  0.00  0.00    +0.000 C 
BRANCH  19  20
ATOM     20  N   UNL     1      48.490   9.185  17.150  0.00  0.00    +0.000 N 
ATOM     21  C   UNL     1      48.496   7.991  17.905  0.00  0.00    +0.000 A 
ATOM     22  C   UNL     1      47.591   7.852  18.950  0.00  0.00    +0.000 A 
ATOM     23  C   UNL     1      47.593   6.671  19.701  0.00  0.00    +0.000 A 
ATOM     24  C   UNL     1      48.494   5.651  19.394  0.00  0.00    +0.000 A 
ATOM     25  C   UNL     1      49.369   5.881  18.348  0.00  0.00    +0.000 A 
ATOM     26  N   UNL     1      49.387   7.018  17.614  0.00  0.00    +0.000 NA
ATOM     27  H   UNL     1      47.555   9.316  16.772  0.00  0.00    +0.000 HD
BRANCH  24  28
ATOM     28  C   UNL     1      48.477   4.395  20.176  0.00  0.00    +0.000 C 
ATOM     29  N   UNL     1      48.454   3.196  19.511  0.00  0.00    +0.000 N 
ATOM     30  O   UNL     1      48.478   4.409  21.398  0.00  0.00    +0.000 OA
ATOM     31  H   UNL     1      48.443   3.060  18.514  0.00  0.00    +0.000 HD
ATOM     32  H   UNL     1      48.439   2.365  20.094  0.00  0.00    +0.000 HD
ENDBRANCH  24  28
ENDBRANCH  19  20
ENDBRANCH  18  19
ENDBRANCH   3  18
TORSDOF 7
ENDMDL
MODEL 6
REMARK VINA RESULT:    -6.704      4.177      8.568
REMARK INTER + INTRA:         -10.376
REMARK INTER:                  -9.170
REMARK INTRA:                  -1.207
REMARK UNBOUND:                -0.929
REMARK  Name = 
REMARK  10 active torsions:
REMARK  status: ('A' for Active; 'I' for Inactive)
REMARK    1  A    between atoms: C_1  and  O_2
REMARK    2  A    between atoms: O_2  and  C_3
REMARK    3  A    between atoms: C_5  and  C_6
REMARK    4  A    between atoms: C_6  and  C_7
REMARK    5  A    between atoms: C_7  and  N_8
REMARK    6  A    between atoms: C_12  and  C_13
REMARK    7  A    between atoms: C_19  and  O_20
REMARK    8  A    between atoms: O_20  and  C_21
REMARK    9  A    between atoms: C_22  and  C_23
REMARK   10  A    between atoms: C_27  and  C_28
REMARK                            x       y       z     vdW  Elec       q    Type
REMARK                         _______ _______ _______ _____ _____    ______ ____
ROOT
ATOM      1  C   UNL     1      45.985   7.948  12.737  0.00  0.00    +0.000 A 
ATOM      2  C   UNL     1      46.874   8.855  13.322  0.00  0.00    +0.000 A 
ATOM      3  C   UNL     1      48.005   8.436  14.030  0.00  0.00    +0.000 A 
ATOM      4  C   UNL     1      48.212   7.062  14.182  0.00  0.00    +0.000 A 
ATOM      5  C   UNL     1      47.317   6.128  13.629  0.00  0.00    +0.000 A 
ATOM      6  C   UNL     1      46.210   6.548  12.839  0.00  0.00    +0.000 A 
ENDROOT
BRANCH   6   7
ATOM      7  C   UNL     1      45.345   5.570  12.099  0.00  0.00    +0.000 A 
ATOM      8  C   UNL     1      44.211   4.977  12.686  0.00  0.00    +0.000 A 
ATOM      9  C   UNL     1      43.331   4.177  11.955  0.00  0.00    +0.000 A 
ATOM     10  C   UNL     1      43.588   3.899  10.618  0.00  0.00    +0.000 A 
ATOM     11  C   UNL     1      44.721   4.431  10.003  0.00  0.00    +0.000 A 
ATOM     12  C   UNL     1      45.018   4.160   8.558  0.00  0.00    +0.000 C 
ATOM     13  C   UNL     1      45.579   5.260  10.744  0.00  0.00    +0.000 A 
ENDBRANCH   6   7
BRANCH   1  15
ATOM     14  C   UNL     1      44.738   9.765  11.754  0.00  0.00    +0.000 C 
ATOM     15  O   UNL     1      44.899   8.375  12.008  0.00  0.00    +0.000 OA
ENDBRANCH   1  15
BRANCH   5  16
ATOM     16  O   UNL     1      47.504   4.774  13.791  0.00  0.00    +0.000 OA
ATOM     17  C   UNL     1      47.160   4.214  15.051  0.00  0.00    +0.000 C 
ENDBRANCH   5  16
BRANCH   3  18
ATOM     18  C   UNL     1      49.006   9.413  14.624  0.00  0.00    +0.000 C 
BRANCH  18  19
ATOM     19  C   UNL     1      49.568   8.982  15.981  0.00  0.00    +0.000 C 
BRANCH  19  20
ATOM     20  N   UNL     1      48.596   9.116  17.067  0.00  0.00    +0.000 N 
ATOM     21  C   UNL     1      48.572   7.950  17.865  0.00  0.00    +0.000 A 
ATOM     22  C   UNL     1      47.708   7.897  18.952  0.00  0.00    +0.000 A 
ATOM     23  C   UNL     1      47.681   6.745  19.746  0.00  0.00    +0.000 A 
ATOM     24  C   UNL     1      48.511   5.667  19.439  0.00  0.00    +0.000 A 
ATOM     25  C   UNL     1      49.350   5.812  18.349  0.00  0.00    +0.000 A 
ATOM     26  N   UNL     1      49.396   6.920  17.573  0.00  0.00    +0.000 NA
ATOM     27  H   UNL     1      47.654   9.285  16.724  0.00  0.00    +0.000 HD
BRANCH  24  28
ATOM     28  C   UNL     1      48.462   4.443  20.267  0.00  0.00    +0.000 C 
ATOM     29  N   UNL     1      48.479   3.218  19.649  0.00  0.00    +0.000 N 
ATOM     30  O   UNL     1      48.401   4.503  21.486  0.00  0.00    +0.000 OA
ATOM     31  H   UNL     1      48.520   3.044  18.658  0.00  0.00    +0.000 HD
ATOM     32  H   UNL     1      48.440   2.411  20.262  0.00  0.00    +0.000 HD
ENDBRANCH  24  28
ENDBRANCH  19  20
ENDBRANCH  18  19
ENDBRANCH   3  18
TORSDOF 7
ENDMDL
MODEL 7
REMARK VINA RESULT:    -6.281      3.945      7.580
REMARK INTER + INTRA:          -9.780
REMARK INTER:                  -8.988
REMARK INTRA:                  -0.791
REMARK UNBOUND:                -0.929
REMARK  Name = 
REMARK  10 active torsions:
REMARK  status: ('A' for Active; 'I' for Inactive)
REMARK    1  A    between atoms: C_1  and  O_2
REMARK    2  A    between atoms: O_2  and  C_3
REMARK    3  A    between atoms: C_5  and  C_6
REMARK    4  A    between atoms: C_6  and  C_7
REMARK    5  A    between atoms: C_7  and  N_8
REMARK    6  A    between atoms: C_12  and  C_13
REMARK    7  A    between atoms: C_19  and  O_20
REMARK    8  A    between atoms: O_20  and  C_21
REMARK    9  A    between atoms: C_22  and  C_23
REMARK   10  A    between atoms: C_27  and  C_28
REMARK                            x       y       z     vdW  Elec       q    Type
REMARK                         _______ _______ _______ _____ _____    ______ ____
ROOT
ATOM      1  C   UNL     1      47.394   6.317  13.208  0.00  0.00    +0.000 A 
ATOM      2  C   UNL     1      48.267   7.212  13.832  0.00  0.00    +0.000 A 
ATOM      3  C   UNL     1      48.056   8.594  13.811  0.00  0.00    +0.000 A 
ATOM      4  C   UNL     1      46.952   9.078  13.103  0.00  0.00    +0.000 A 
ATOM      5  C   UNL     1      46.073   8.201  12.441  0.00  0.00    +0.000 A 
ATOM      6  C   UNL     1      46.239   6.790  12.527  0.00  0.00    +0.000 A 
ENDROOT
BRANCH   6   7
ATOM      7  C   UNL     1      45.221   5.835  11.976  0.00  0.00    +0.000 A 
ATOM      8  C   UNL     1      44.058   5.484  12.688  0.00  0.00    +0.000 A 
ATOM      9  C   UNL     1      43.048   4.707  12.119  0.00  0.00    +0.000 A 
ATOM     10  C   UNL     1      43.194   4.206  10.832  0.00  0.00    +0.000 A 
ATOM     11  C   UNL     1      44.347   4.492  10.101  0.00  0.00    +0.000 A 
ATOM     12  C   UNL     1      44.528   3.978   8.705  0.00  0.00    +0.000 C 
ATOM     13  C   UNL     1      45.340   5.302  10.676  0.00  0.00    +0.000 A 
ENDBRANCH   6   7
BRANCH   1  15
ATOM     14  C   UNL     1      47.115   4.239  14.403  0.00  0.00    +0.000 C 
ATOM     15  O   UNL     1      47.592   4.957  13.273  0.00  0.00    +0.000 OA
ENDBRANCH   1  15
BRANCH   5  16
ATOM     16  O   UNL     1      44.995   8.671  11.726  0.00  0.00    +0.000 OA
ATOM     17  C   UNL     1      44.695  10.056  11.835  0.00  0.00    +0.000 C 
ENDBRANCH   5  16
BRANCH   3  18
ATOM     18  C   UNL     1      48.970   9.572  14.531  0.00  0.00    +0.000 C 
BRANCH  18  19
ATOM     19  C   UNL     1      49.227   9.220  15.999  0.00  0.00    +0.000 C 
BRANCH  19  20
ATOM     20  N   UNL     1      50.458   8.453  16.191  0.00  0.00    +0.000 N 
ATOM     21  C   UNL     1      50.170   7.153  16.665  0.00  0.00    +0.000 A 
ATOM     22  C   UNL     1      51.221   6.275  16.901  0.00  0.00    +0.000 A 
ATOM     23  C   UNL     1      50.941   4.988  17.371  0.00  0.00    +0.000 A 
ATOM     24  C   UNL     1      49.621   4.601  17.600  0.00  0.00    +0.000 A 
ATOM     25  C   UNL     1      48.637   5.532  17.323  0.00  0.00    +0.000 A 
ATOM     26  N   UNL     1      48.887   6.780  16.862  0.00  0.00    +0.000 NA
ATOM     27  H   UNL     1      51.093   8.897  16.849  0.00  0.00    +0.000 HD
BRANCH  24  28
ATOM     28  C   UNL     1      49.331   3.246  18.118  0.00  0.00    +0.000 C 
ATOM     29  N   UNL     1      48.506   3.110  19.206  0.00  0.00    +0.000 N 
ATOM     30  O   UNL     1      49.817   2.251  17.601  0.00  0.00    +0.000 OA
ATOM     31  H   UNL     1      48.057   3.851  19.717  0.00  0.00    +0.000 HD
ATOM     32  H   UNL     1      48.343   2.160  19.524  0.00  0.00    +0.000 HD
ENDBRANCH  24  28
ENDBRANCH  19  20
ENDBRANCH  18  19
ENDBRANCH   3  18
TORSDOF 7
ENDMDL
MODEL 8
REMARK VINA RESULT:    -6.141      4.176      6.420
REMARK INTER + INTRA:          -9.582
REMARK INTER:                  -8.502
REMARK INTRA:                  -1.080
REMARK UNBOUND:                -0.929
REMARK  Name = 
REMARK  10 active torsions:
REMARK  status: ('A' for Active; 'I' for Inactive)
REMARK    1  A    between atoms: C_1  and  O_2
REMARK    2  A    between atoms: O_2  and  C_3
REMARK    3  A    between atoms: C_5  and  C_6
REMARK    4  A    between atoms: C_6  and  C_7
REMARK    5  A    between atoms: C_7  and  N_8
REMARK    6  A    between atoms: C_12  and  C_13
REMARK    7  A    between atoms: C_19  and  O_20
REMARK    8  A    between atoms: O_20  and  C_21
REMARK    9  A    between atoms: C_22  and  C_23
REMARK   10  A    between atoms: C_27  and  C_28
REMARK                            x       y       z     vdW  Elec       q    Type
REMARK                         _______ _______ _______ _____ _____    ______ ____
ROOT
ATOM      1  C   UNL     1      48.576   5.888  17.159  0.00  0.00    +0.000 A 
ATOM      2  C   UNL     1      48.711   6.321  15.837  0.00  0.00    +0.000 A 
ATOM      3  C   UNL     1      48.800   7.677  15.503  0.00  0.00    +0.000 A 
ATOM      4  C   UNL     1      48.707   8.613  16.537  0.00  0.00    +0.000 A 
ATOM      5  C   UNL     1      48.542   8.206  17.873  0.00  0.00    +0.000 A 
ATOM      6  C   UNL     1      48.532   6.827  18.226  0.00  0.00    +0.000 A 
ENDROOT
BRANCH   6   7
ATOM      7  C   UNL     1      48.530   6.372  19.656  0.00  0.00    +0.000 A 
ATOM      8  C   UNL     1      47.341   6.223  20.394  0.00  0.00    +0.000 A 
ATOM      9  C   UNL     1      47.329   5.669  21.676  0.00  0.00    +0.000 A 
ATOM     10  C   UNL     1      48.520   5.294  22.285  0.00  0.00    +0.000 A 
ATOM     11  C   UNL     1      49.729   5.460  21.608  0.00  0.00    +0.000 A 
ATOM     12  C   UNL     1      51.029   5.053  22.234  0.00  0.00    +0.000 C 
ATOM     13  C   UNL     1      49.720   5.989  20.308  0.00  0.00    +0.000 A 
ENDBRANCH   6   7
BRANCH   1  15
ATOM     14  C   UNL     1      47.316   3.835  17.295  0.00  0.00    +0.000 C 
ATOM     15  O   UNL     1      48.532   4.550  17.475  0.00  0.00    +0.000 OA
ENDBRANCH   1  15
BRANCH   5  16
ATOM     16  O   UNL     1      48.431   9.123  18.894  0.00  0.00    +0.000 OA
ATOM     17  C   UNL     1      48.326  10.493  18.530  0.00  0.00    +0.000 C 
ENDBRANCH   5  16
BRANCH   3  18
ATOM     18  C   UNL     1      49.000   8.156  14.075  0.00  0.00    +0.000 C 
BRANCH  18  19
ATOM     19  C   UNL     1      48.894   7.047  13.025  0.00  0.00    +0.000 C 
BRANCH  19  20
ATOM     20  N   UNL     1      47.911   7.344  11.983  0.00  0.00    +0.000 N 
ATOM     21  C   UNL     1      46.873   6.386  11.985  0.00  0.00    +0.000 A 
ATOM     22  C   UNL     1      45.842   6.510  11.062  0.00  0.00    +0.000 A 
ATOM     23  C   UNL     1      44.812   5.564  11.059  0.00  0.00    +0.000 A 
ATOM     24  C   UNL     1      44.831   4.510  11.973  0.00  0.00    +0.000 A 
ATOM     25  C   UNL     1      45.887   4.472  12.865  0.00  0.00    +0.000 A 
ATOM     26  N   UNL     1      46.889   5.382  12.888  0.00  0.00    +0.000 NA
ATOM     27  H   UNL     1      48.325   7.363  11.054  0.00  0.00    +0.000 HD
BRANCH  24  28
ATOM     28  C   UNL     1      43.752   3.498  11.951  0.00  0.00    +0.000 C 
ATOM     29  N   UNL     1      43.828   2.422  12.798  0.00  0.00    +0.000 N 
ATOM     30  O   UNL     1      42.800   3.602  11.191  0.00  0.00    +0.000 OA
ATOM     31  H   UNL     1      44.562   2.226  13.458  0.00  0.00    +0.000 HD
ATOM     32  H   UNL     1      43.065   1.756  12.740  0.00  0.00    +0.000 HD
ENDBRANCH  24  28
ENDBRANCH  19  20
ENDBRANCH  18  19
ENDBRANCH   3  18
TORSDOF 7
ENDMDL
MODEL 9
REMARK VINA RESULT:    -6.046      3.884      6.432
REMARK INTER + INTRA:          -9.449
REMARK INTER:                  -8.334
REMARK INTRA:                  -1.115
REMARK UNBOUND:                -0.929
REMARK  Name = 
REMARK  10 active torsions:
REMARK  status: ('A' for Active; 'I' for Inactive)
REMARK    1  A    between atoms: C_1  and  O_2
REMARK    2  A    between atoms: O_2  and  C_3
REMARK    3  A    between atoms: C_5  and  C_6
REMARK    4  A    between atoms: C_6  and  C_7
REMARK    5  A    between atoms: C_7  and  N_8
REMARK    6  A    between atoms: C_12  and  C_13
REMARK    7  A    between atoms: C_19  and  O_20
REMARK    8  A    between atoms: O_20  and  C_21
REMARK    9  A    between atoms: C_22  and  C_23
REMARK   10  A    between atoms: C_27  and  C_28
REMARK                            x       y       z     vdW  Elec       q    Type
REMARK                         _______ _______ _______ _____ _____    ______ ____
ROOT
ATOM      1  C   UNL     1      49.304   8.227  17.515  0.00  0.00    +0.000 A 
ATOM      2  C   UNL     1      49.054   8.886  16.308  0.00  0.00    +0.000 A 
ATOM      3  C   UNL     1      48.674   8.200  15.150  0.00  0.00    +0.000 A 
ATOM      4  C   UNL     1      48.589   6.805  15.212  0.00  0.00    +0.000 A 
ATOM      5  C   UNL     1      48.864   6.114  16.406  0.00  0.00    +0.000 A 
ATOM      6  C   UNL     1      49.171   6.814  17.608  0.00  0.00    +0.000 A 
ENDROOT
BRANCH   6   7
ATOM      7  C   UNL     1      49.298   6.111  18.927  0.00  0.00    +0.000 A 
ATOM      8  C   UNL     1      50.509   5.539  19.360  0.00  0.00    +0.000 A 
ATOM      9  C   UNL     1      50.662   5.008  20.642  0.00  0.00    +0.000 A 
ATOM     10  C   UNL     1      49.585   4.983  21.519  0.00  0.00    +0.000 A 
ATOM     11  C   UNL     1      48.352   5.501  21.122  0.00  0.00    +0.000 A 
ATOM     12  C   UNL     1      47.176   5.500  22.050  0.00  0.00    +0.000 C 
ATOM     13  C   UNL     1      48.224   6.060  19.840  0.00  0.00    +0.000 A 
ENDBRANCH   6   7
BRANCH   1  15
ATOM     14  C   UNL     1      48.678   9.793  19.240  0.00  0.00    +0.000 C 
ATOM     15  O   UNL     1      49.635   8.919  18.657  0.00  0.00    +0.000 OA
ENDBRANCH   1  15
BRANCH   5  16
ATOM     16  O   UNL     1      48.800   4.741  16.470  0.00  0.00    +0.000 OA
ATOM     17  C   UNL     1      47.521   4.140  16.316  0.00  0.00    +0.000 C 
ENDBRANCH   5  16
BRANCH   3  18
ATOM     18  C   UNL     1      48.349   8.911  13.847  0.00  0.00    +0.000 C 
BRANCH  18  19
ATOM     19  C   UNL     1      46.916   8.687  13.356  0.00  0.00    +0.000 C 
BRANCH  19  20
ATOM     20  N   UNL     1      46.858   8.160  11.993  0.00  0.00    +0.000 N 
ATOM     21  C   UNL     1      46.095   6.972  11.946  0.00  0.00    +0.000 A 
ATOM     22  C   UNL     1      45.925   6.329  10.726  0.00  0.00    +0.000 A 
ATOM     23  C   UNL     1      45.170   5.153  10.675  0.00  0.00    +0.000 A 
ATOM     24  C   UNL     1      44.602   4.637  11.840  0.00  0.00    +0.000 A 
ATOM     25  C   UNL     1      44.809   5.350  13.007  0.00  0.00    +0.000 A 
ATOM     26  N   UNL     1      45.530   6.493  13.076  0.00  0.00    +0.000 NA
ATOM     27  H   UNL     1      47.781   7.959  11.616  0.00  0.00    +0.000 HD
BRANCH  24  28
ATOM     28  C   UNL     1      43.824   3.380  11.785  0.00  0.00    +0.000 C 
ATOM     29  N   UNL     1      44.194   2.330  12.586  0.00  0.00    +0.000 N 
ATOM     30  O   UNL     1      42.865   3.260  11.037  0.00  0.00    +0.000 OA
ATOM     31  H   UNL     1      44.966   2.309  13.232  0.00  0.00    +0.000 HD
ATOM     32  H   UNL     1      43.631   1.491  12.507  0.00  0.00    +0.000 HD
ENDBRANCH  24  28
ENDBRANCH  19  20
ENDBRANCH  18  19
ENDBRANCH   3  18
TORSDOF 7
ENDMDL
