MODEL 1
REMARK VINA RESULT:    -8.840      0.000      0.000
REMARK INTER + INTRA:         -13.865
REMARK INTER:                 -12.974
REMARK INTRA:                  -0.891
REMARK UNBOUND:                -0.891
REMARK  Name = 
REMARK  8 active torsions:
REMARK  status: ('A' for Active; 'I' for Inactive)
REMARK    1  A    between atoms: C_2  and  C_3
REMARK    2  A    between atoms: C_3  and  N_4
REMARK    3  A    between atoms: C_3  and  C_12
REMARK    4  A    between atoms: N_4  and  C_5
REMARK    5  A    between atoms: C_5  and  C_6
REMARK    6  A    between atoms: C_15  and  C_16
REMARK    7  A    between atoms: C_16  and  N_17
REMARK    8  A    between atoms: C_18  and  C_20
REMARK                            x       y       z     vdW  Elec       q    Type
REMARK                         _______ _______ _______ _____ _____    ______ ____
ROOT
ATOM      1  C   UNL     1      44.474   5.653  11.290  0.00  0.00    +0.000 A 
ATOM      2  C   UNL     1      45.664   5.114  11.825  0.00  0.00    +0.000 A 
ATOM      3  C   UNL     1      46.582   5.906  12.514  0.00  0.00    +0.000 A 
ATOM      4  C   UNL     1      46.354   7.272  12.677  0.00  0.00    +0.000 A 
ATOM      5  C   UNL     1      45.236   7.844  12.064  0.00  0.00    +0.000 A 
ATOM      6  C   UNL     1      44.310   7.048  11.379  0.00  0.00    +0.000 A 
ENDROOT
BRANCH   1   7
ATOM      7  C   UNL     1      43.424   4.755  10.602  0.00  0.00    +0.000 C 
BRANCH   7   9
ATOM      8  N   UNL     1      43.163   2.420  11.846  0.00  0.00    +0.000 NA
ATOM      9  C   UNL     1      43.267   3.434  11.281  0.00  0.00    +0.000 C 
ENDBRANCH   7   9
BRANCH   7  10
ATOM     10  N   UNL     1      43.748   4.606   9.161  0.00  0.00    +0.000 NA
ATOM     11  H   UNL     1      43.390   3.703   8.864  0.00  0.00    +0.000 HD
BRANCH  10  12
ATOM     12  C   UNL     1      45.173   4.628   8.845  0.00  0.00    +0.000 C 
BRANCH  12  13
ATOM     13  C   UNL     1      45.543   3.389   7.999  0.00  0.00    +0.000 C 
ATOM     14  C   UNL     1      45.775   2.119   8.840  0.00  0.00    +0.000 C 
ATOM     15  C   UNL     1      46.192   0.933   7.974  0.00  0.00    +0.000 C 
ATOM     16  C   UNL     1      47.416   1.259   7.127  0.00  0.00    +0.000 C 
ATOM     17  C   UNL     1      47.198   2.515   6.291  0.00  0.00    +0.000 C 
ATOM     18  C   UNL     1      46.790   3.702   7.157  0.00  0.00    +0.000 C 
ENDBRANCH  12  13
ENDBRANCH  10  12
ENDBRANCH   7  10
ENDBRANCH   1   7
BRANCH   4  19
ATOM     19  C   UNL     1      47.305   8.108  13.487  0.00  0.00    +0.000 C 
BRANCH  19  20
ATOM     20  N   UNL     1      47.644   7.465  14.727  0.00  0.00    +0.000 N 
ATOM     21  C   UNL     1      48.875   6.886  14.894  0.00  0.00    +0.000 C 
ATOM     22  O   UNL     1      49.747   6.951  14.031  0.00  0.00    +0.000 OA
ATOM     23  H   UNL     1      46.880   7.222  15.351  0.00  0.00    +0.000 HD
BRANCH  21  24
ATOM     24  C   UNL     1      49.122   6.232  16.182  0.00  0.00    +0.000 A 
ATOM     25  C   UNL     1      50.105   6.733  17.026  0.00  0.00    +0.000 A 
ATOM     26  S   UNL     1      50.247   5.877  18.492  0.00  0.00    +0.000 S 
ATOM     27  C   UNL     1      49.031   4.780  18.033  0.00  0.00    +0.000 A 
ATOM     28  N   UNL     1      48.674   3.751  18.847  0.00  0.00    +0.000 NA
ATOM     29  C   UNL     1      47.761   2.977  18.361  0.00  0.00    +0.000 A 
ATOM     30  N   UNL     1      47.166   3.146  17.139  0.00  0.00    +0.000 N 
ATOM     31  C   UNL     1      47.467   4.191  16.298  0.00  0.00    +0.000 A 
ATOM     32  O   UNL     1      46.870   4.345  15.237  0.00  0.00    +0.000 OA
ATOM     33  C   UNL     1      48.506   5.077  16.788  0.00  0.00    +0.000 A 
ATOM     34  H   UNL     1      46.448   2.511  16.824  0.00  0.00    +0.000 HD
ENDBRANCH  21  24
ENDBRANCH  19  20
ENDBRANCH   4  19
TORSDOF 8
ENDMDL
MODEL 2
REMARK VINA RESULT:    -8.334      1.807      2.192
REMARK INTER + INTRA:         -13.123
REMARK INTER:                 -12.101
REMARK INTRA:                  -1.022
REMARK UNBOUND:                -0.891
REMARK  Name = 
REMARK  8 active torsions:
REMARK  status: ('A' for Active; 'I' for Inactive)
REMARK    1  A    between atoms: C_2  and  C_3
REMARK    2  A    between atoms: C_3  and  N_4
REMARK    3  A    between atoms: C_3  and  C_12
REMARK    4  A    between atoms: N_4  and  C_5
REMARK    5  A    between atoms: C_5  and  C_6
REMARK    6  A    between atoms: C_15  and  C_16
REMARK    7  A    between atoms: C_16  and  N_17
REMARK    8  A    between atoms: C_18  and  C_20
REMARK                            x       y       z     vdW  Elec       q    Type
REMARK                         _______ _______ _______ _____ _____    ______ ____
ROOT
ATOM      1  C   UNL     1      44.715   5.471  11.471  0.00  0.00    +0.000 A 
ATOM      2  C   UNL     1      45.649   4.785  12.277  0.00  0.00    +0.000 A 
ATOM      3  C   UNL     1      46.654   5.461  12.970  0.00  0.00    +0.000 A 
ATOM      4  C   UNL     1      46.773   6.847  12.869  0.00  0.00    +0.000 A 
ATOM      5  C   UNL     1      45.925   7.531  11.993  0.00  0.00    +0.000 A 
ATOM      6  C   UNL     1      44.912   6.854  11.303  0.00  0.00    +0.000 A 
ENDROOT
BRANCH   1   7
ATOM      7  C   UNL     1      43.557   4.726  10.774  0.00  0.00    +0.000 C 
BRANCH   7   9
ATOM      8  N   UNL     1      43.094   2.310  11.782  0.00  0.00    +0.000 NA
ATOM      9  C   UNL     1      43.312   3.373  11.358  0.00  0.00    +0.000 C 
ENDBRANCH   7   9
BRANCH   7  10
ATOM     10  N   UNL     1      43.799   4.665   9.310  0.00  0.00    +0.000 NA
ATOM     11  H   UNL     1      43.380   3.805   8.971  0.00  0.00    +0.000 HD
BRANCH  10  12
ATOM     12  C   UNL     1      45.206   4.640   8.920  0.00  0.00    +0.000 C 
BRANCH  12  13
ATOM     13  C   UNL     1      45.493   3.381   8.073  0.00  0.00    +0.000 C 
ATOM     14  C   UNL     1      45.763   2.121   8.918  0.00  0.00    +0.000 C 
ATOM     15  C   UNL     1      46.097   0.913   8.046  0.00  0.00    +0.000 C 
ATOM     16  C   UNL     1      47.263   1.202   7.108  0.00  0.00    +0.000 C 
ATOM     17  C   UNL     1      47.007   2.447   6.267  0.00  0.00    +0.000 C 
ATOM     18  C   UNL     1      46.681   3.656   7.138  0.00  0.00    +0.000 C 
ENDBRANCH  12  13
ENDBRANCH  10  12
ENDBRANCH   7  10
ENDBRANCH   1   7
BRANCH   4  19
ATOM     19  C   UNL     1      47.805   7.580  13.678  0.00  0.00    +0.000 C 
BRANCH  19  20
ATOM     20  N   UNL     1      47.803   7.147  15.048  0.00  0.00    +0.000 N 
ATOM     21  C   UNL     1      48.954   6.684  15.630  0.00  0.00    +0.000 C 
ATOM     22  O   UNL     1      50.029   6.684  15.036  0.00  0.00    +0.000 OA
ATOM     23  H   UNL     1      46.903   6.943  15.472  0.00  0.00    +0.000 HD
BRANCH  21  24
ATOM     24  C   UNL     1      48.851   6.240  17.024  0.00  0.00    +0.000 A 
ATOM     25  C   UNL     1      49.188   4.933  17.351  0.00  0.00    +0.000 A 
ATOM     26  S   UNL     1      49.040   4.586  19.012  0.00  0.00    +0.000 S 
ATOM     27  C   UNL     1      48.477   6.156  19.346  0.00  0.00    +0.000 A 
ATOM     28  N   UNL     1      48.130   6.521  20.610  0.00  0.00    +0.000 NA
ATOM     29  C   UNL     1      47.690   7.730  20.715  0.00  0.00    +0.000 A 
ATOM     30  N   UNL     1      47.575   8.611  19.673  0.00  0.00    +0.000 N 
ATOM     31  C   UNL     1      47.947   8.300  18.385  0.00  0.00    +0.000 A 
ATOM     32  O   UNL     1      47.887   9.134  17.488  0.00  0.00    +0.000 OA
ATOM     33  C   UNL     1      48.426   6.943  18.210  0.00  0.00    +0.000 A 
ATOM     34  H   UNL     1      47.235   9.549  19.826  0.00  0.00    +0.000 HD
ENDBRANCH  21  24
ENDBRANCH  19  20
ENDBRANCH   4  19
TORSDOF 8
ENDMDL
MODEL 3
REMARK VINA RESULT:    -8.299      1.459      1.896
REMARK INTER + INTRA:         -13.071
REMARK INTER:                 -12.064
REMARK INTRA:                  -1.007
REMARK UNBOUND:                -0.891
REMARK  Name = 
REMARK  8 active torsions:
REMARK  status: ('A' for Active; 'I' for Inactive)
REMARK    1  A    between atoms: C_2  and  C_3
REMARK    2  A    between atoms: C_3  and  N_4
REMARK    3  A    between atoms: C_3  and  C_12
REMARK    4  A    between atoms: N_4  and  C_5
REMARK    5  A    between atoms: C_5  and  C_6
REMARK    6  A    between atoms: C_15  and  C_16
REMARK    7  A    between atoms: C_16  and  N_17
REMARK    8  A    between atoms: C_18  and  C_20
REMARK                            x       y       z     vdW  Elec       q    Type
REMARK                         _______ _______ _______ _____ _____    ______ ____
ROOT
ATOM      1  C   UNL     1      45.100   5.076  11.668  0.00  0.00    +0.000 A 
ATOM      2  C   UNL     1      45.807   4.607  12.796  0.00  0.00    +0.000 A 
ATOM      3  C   UNL     1      46.832   5.352  13.379  0.00  0.00    +0.000 A 
ATOM      4  C   UNL     1      47.201   6.586  12.844  0.00  0.00    +0.000 A 
ATOM      5  C   UNL     1      46.587   7.018  11.666  0.00  0.00    +0.000 A 
ATOM      6  C   UNL     1      45.552   6.274  11.085  0.00  0.00    +0.000 A 
ENDROOT
BRANCH   1   7
ATOM      7  C   UNL     1      43.913   4.284  11.079  0.00  0.00    +0.000 C 
BRANCH   7   9
ATOM      8  N   UNL     1      43.264   2.155  12.533  0.00  0.00    +0.000 NA
ATOM      9  C   UNL     1      43.570   3.078  11.891  0.00  0.00    +0.000 C 
ENDBRANCH   7   9
BRANCH   7  10
ATOM     10  N   UNL     1      44.183   3.942   9.660  0.00  0.00    +0.000 NA
ATOM     11  H   UNL     1      43.309   4.047   9.154  0.00  0.00    +0.000 HD
BRANCH  10  12
ATOM     12  C   UNL     1      44.649   2.577   9.434  0.00  0.00    +0.000 C 
BRANCH  12  13
ATOM     13  C   UNL     1      45.873   2.588   8.493  0.00  0.00    +0.000 C 
ATOM     14  C   UNL     1      45.681   3.475   7.246  0.00  0.00    +0.000 C 
ATOM     15  C   UNL     1      46.889   3.415   6.316  0.00  0.00    +0.000 C 
ATOM     16  C   UNL     1      47.224   1.982   5.921  0.00  0.00    +0.000 C 
ATOM     17  C   UNL     1      47.416   1.096   7.146  0.00  0.00    +0.000 C 
ATOM     18  C   UNL     1      46.206   1.148   8.072  0.00  0.00    +0.000 C 
ENDBRANCH  12  13
ENDBRANCH  10  12
ENDBRANCH   7  10
ENDBRANCH   1   7
BRANCH   4  19
ATOM     19  C   UNL     1      48.251   7.423  13.521  0.00  0.00    +0.000 C 
BRANCH  19  20
ATOM     20  N   UNL     1      48.082   7.425  14.947  0.00  0.00    +0.000 N 
ATOM     21  C   UNL     1      49.079   6.959  15.765  0.00  0.00    +0.000 C 
ATOM     22  O   UNL     1      50.164   6.590  15.322  0.00  0.00    +0.000 OA
ATOM     23  H   UNL     1      47.137   7.521  15.305  0.00  0.00    +0.000 HD
BRANCH  21  24
ATOM     24  C   UNL     1      48.807   6.976  17.205  0.00  0.00    +0.000 A 
ATOM     25  C   UNL     1      48.465   8.172  17.822  0.00  0.00    +0.000 A 
ATOM     26  S   UNL     1      48.154   8.016  19.490  0.00  0.00    +0.000 S 
ATOM     27  C   UNL     1      48.512   6.353  19.456  0.00  0.00    +0.000 A 
ATOM     28  N   UNL     1      48.464   5.604  20.591  0.00  0.00    +0.000 NA
ATOM     29  C   UNL     1      48.789   4.365  20.427  0.00  0.00    +0.000 A 
ATOM     30  N   UNL     1      49.146   3.804  19.229  0.00  0.00    +0.000 N 
ATOM     31  C   UNL     1      49.172   4.512  18.050  0.00  0.00    +0.000 A 
ATOM     32  O   UNL     1      49.438   3.963  16.986  0.00  0.00    +0.000 OA
ATOM     33  C   UNL     1      48.838   5.917  18.184  0.00  0.00    +0.000 A 
ATOM     34  H   UNL     1      49.376   2.824  19.167  0.00  0.00    +0.000 HD
ENDBRANCH  21  24
ENDBRANCH  19  20
ENDBRANCH   4  19
TORSDOF 8
ENDMDL
MODEL 4
REMARK VINA RESULT:    -7.995      2.166      2.562
REMARK INTER + INTRA:         -12.625
REMARK INTER:                 -11.503
REMARK INTRA:                  -1.122
REMARK UNBOUND:                -0.891
REMARK  Name = 
REMARK  8 active torsions:
REMARK  status: ('A' for Active; 'I' for Inactive)
REMARK    1  A    between atoms: C_2  and  C_3
REMARK    2  A    between atoms: C_3  and  N_4
REMARK    3  A    between atoms: C_3  and  C_12
REMARK    4  A    between atoms: N_4  and  C_5
REMARK    5  A    between atoms: C_5  and  C_6
REMARK    6  A    between atoms: C_15  and  C_16
REMARK    7  A    between atoms: C_16  and  N_17
REMARK    8  A    between atoms: C_18  and  C_20
REMARK                            x       y       z     vdW  Elec       q    Type
REMARK                         _______ _______ _______ _____ _____    ______ ____
ROOT
ATOM      1  C   UNL     1      45.589   5.345  11.772  0.00  0.00    +0.000 A 
ATOM      2  C   UNL     1      46.262   6.582  11.676  0.00  0.00    +0.000 A 
ATOM      3  C   UNL     1      47.260   6.945  12.580  0.00  0.00    +0.000 A 
ATOM      4  C   UNL     1      47.610   6.091  13.626  0.00  0.00    +0.000 A 
ATOM      5  C   UNL     1      46.883   4.911  13.802  0.00  0.00    +0.000 A 
ATOM      6  C   UNL     1      45.886   4.543  12.890  0.00  0.00    +0.000 A 
ENDROOT
BRANCH   1   7
ATOM      7  C   UNL     1      44.544   4.915  10.720  0.00  0.00    +0.000 C 
BRANCH   7   9
ATOM      8  N   UNL     1      43.184   2.772  11.509  0.00  0.00    +0.000 NA
ATOM      9  C   UNL     1      43.765   3.714  11.145  0.00  0.00    +0.000 C 
ENDBRANCH   7   9
BRANCH   7  10
ATOM     10  N   UNL     1      45.199   4.717   9.403  0.00  0.00    +0.000 NA
ATOM     11  H   UNL     1      45.405   5.638   9.028  0.00  0.00    +0.000 HD
BRANCH  10  12
ATOM     12  C   UNL     1      44.386   4.022   8.410  0.00  0.00    +0.000 C 
BRANCH  12  13
ATOM     13  C   UNL     1      45.256   3.007   7.636  0.00  0.00    +0.000 C 
ATOM     14  C   UNL     1      45.777   1.851   8.513  0.00  0.00    +0.000 C 
ATOM     15  C   UNL     1      46.675   0.902   7.725  0.00  0.00    +0.000 C 
ATOM     16  C   UNL     1      47.827   1.643   7.057  0.00  0.00    +0.000 C 
ATOM     17  C   UNL     1      47.324   2.789   6.188  0.00  0.00    +0.000 C 
ATOM     18  C   UNL     1      46.432   3.742   6.976  0.00  0.00    +0.000 C 
ENDBRANCH  12  13
ENDBRANCH  10  12
ENDBRANCH   7  10
ENDBRANCH   1   7
BRANCH   4  19
ATOM     19  C   UNL     1      48.740   6.449  14.551  0.00  0.00    +0.000 C 
BRANCH  19  20
ATOM     20  N   UNL     1      48.260   6.762  15.869  0.00  0.00    +0.000 N 
ATOM     21  C   UNL     1      48.848   7.760  16.602  0.00  0.00    +0.000 C 
ATOM     22  O   UNL     1      49.749   8.459  16.145  0.00  0.00    +0.000 OA
ATOM     23  H   UNL     1      47.677   6.071  16.330  0.00  0.00    +0.000 HD
BRANCH  21  24
ATOM     24  C   UNL     1      48.309   7.991  17.945  0.00  0.00    +0.000 A 
ATOM     25  C   UNL     1      47.947   9.277  18.324  0.00  0.00    +0.000 A 
ATOM     26  S   UNL     1      47.312   9.371  19.903  0.00  0.00    +0.000 S 
ATOM     27  C   UNL     1      47.542   7.704  20.152  0.00  0.00    +0.000 A 
ATOM     28  N   UNL     1      47.222   7.124  21.341  0.00  0.00    +0.000 NA
ATOM     29  C   UNL     1      47.476   5.860  21.404  0.00  0.00    +0.000 A 
ATOM     30  N   UNL     1      48.012   5.120  20.382  0.00  0.00    +0.000 N 
ATOM     31  C   UNL     1      48.317   5.654  19.152  0.00  0.00    +0.000 A 
ATOM     32  O   UNL     1      48.738   4.949  18.241  0.00  0.00    +0.000 OA
ATOM     33  C   UNL     1      48.072   7.079  19.038  0.00  0.00    +0.000 A 
ATOM     34  H   UNL     1      48.174   4.131  20.493  0.00  0.00    +0.000 HD
ENDBRANCH  21  24
ENDBRANCH  19  20
ENDBRANCH   4  19
TORSDOF 8
ENDMDL
MODEL 5
REMARK VINA RESULT:    -7.307      3.292      9.069
REMARK INTER + INTRA:         -11.615
REMARK INTER:                  -9.718
REMARK INTRA:                  -1.897
REMARK UNBOUND:                -0.891
REMARK  Name = 
REMARK  8 active torsions:
REMARK  status: ('A' for Active; 'I' for Inactive)
REMARK    1  A    between atoms: C_2  and  C_3
REMARK    2  A    between atoms: C_3  and  N_4
REMARK    3  A    between atoms: C_3  and  C_12
REMARK    4  A    between atoms: N_4  and  C_5
REMARK    5  A    between atoms: C_5  and  C_6
REMARK    6  A    between atoms: C_15  and  C_16
REMARK    7  A    between atoms: C_16  and  N_17
REMARK    8  A    between atoms: C_18  and  C_20
REMARK                            x       y       z     vdW  Elec       q    Type
REMARK                         _______ _______ _______ _____ _____    ______ ____
ROOT
ATOM      1  C   UNL     1      50.624   5.045  17.254  0.00  0.00    +0.000 A 
ATOM      2  C   UNL     1      49.218   5.081  17.134  0.00  0.00    +0.000 A 
ATOM      3  C   UNL     1      48.570   6.075  16.400  0.00  0.00    +0.000 A 
ATOM      4  C   UNL     1      49.305   7.081  15.774  0.00  0.00    +0.000 A 
ATOM      5  C   UNL     1      50.688   7.124  15.968  0.00  0.00    +0.000 A 
ATOM      6  C   UNL     1      51.339   6.123  16.698  0.00  0.00    +0.000 A 
ENDROOT
BRANCH   1   7
ATOM      7  C   UNL     1      51.337   3.896  17.998  0.00  0.00    +0.000 C 
BRANCH   7   9
ATOM      8  N   UNL     1      50.767   1.497  17.004  0.00  0.00    +0.000 NA
ATOM      9  C   UNL     1      51.023   2.556  17.418  0.00  0.00    +0.000 C 
ENDBRANCH   7   9
BRANCH   7  10
ATOM     10  N   UNL     1      51.029   3.961  19.449  0.00  0.00    +0.000 NA
ATOM     11  H   UNL     1      50.022   3.883  19.547  0.00  0.00    +0.000 HD
BRANCH  10  12
ATOM     12  C   UNL     1      51.429   5.202  20.108  0.00  0.00    +0.000 C 
BRANCH  12  13
ATOM     13  C   UNL     1      50.219   5.820  20.842  0.00  0.00    +0.000 C 
ATOM     14  C   UNL     1      49.000   4.881  20.915  0.00  0.00    +0.000 C 
ATOM     15  C   UNL     1      47.809   5.549  21.598  0.00  0.00    +0.000 C 
ATOM     16  C   UNL     1      47.443   6.868  20.927  0.00  0.00    +0.000 C 
ATOM     17  C   UNL     1      48.643   7.805  20.848  0.00  0.00    +0.000 C 
ATOM     18  C   UNL     1      49.830   7.141  20.159  0.00  0.00    +0.000 C 
ENDBRANCH  12  13
ENDBRANCH  10  12
ENDBRANCH   7  10
ENDBRANCH   1   7
BRANCH   4  19
ATOM     19  C   UNL     1      48.611   8.105  14.918  0.00  0.00    +0.000 C 
BRANCH  19  20
ATOM     20  N   UNL     1      47.427   7.565  14.309  0.00  0.00    +0.000 N 
ATOM     21  C   UNL     1      47.502   6.910  13.108  0.00  0.00    +0.000 C 
ATOM     22  O   UNL     1      48.575   6.703  12.546  0.00  0.00    +0.000 OA
ATOM     23  H   UNL     1      46.532   7.907  14.645  0.00  0.00    +0.000 HD
BRANCH  21  24
ATOM     24  C   UNL     1      46.240   6.415  12.551  0.00  0.00    +0.000 A 
ATOM     25  C   UNL     1      45.349   7.311  11.975  0.00  0.00    +0.000 A 
ATOM     26  S   UNL     1      43.945   6.573  11.352  0.00  0.00    +0.000 S 
ATOM     27  C   UNL     1      44.457   5.035  11.871  0.00  0.00    +0.000 A 
ATOM     28  N   UNL     1      43.683   3.935  11.670  0.00  0.00    +0.000 NA
ATOM     29  C   UNL     1      44.178   2.840  12.141  0.00  0.00    +0.000 A 
ATOM     30  N   UNL     1      45.383   2.743  12.786  0.00  0.00    +0.000 N 
ATOM     31  C   UNL     1      46.217   3.820  12.979  0.00  0.00    +0.000 A 
ATOM     32  O   UNL     1      47.316   3.684  13.506  0.00  0.00    +0.000 OA
ATOM     33  C   UNL     1      45.695   5.080  12.489  0.00  0.00    +0.000 A 
ATOM     34  H   UNL     1      45.719   1.852  13.119  0.00  0.00    +0.000 HD
ENDBRANCH  21  24
ENDBRANCH  19  20
ENDBRANCH   4  19
TORSDOF 8
ENDMDL
MODEL 6
REMARK VINA RESULT:    -7.305      2.966      8.502
REMARK INTER + INTRA:         -11.612
REMARK INTER:                  -9.815
REMARK INTRA:                  -1.797
REMARK UNBOUND:                -0.891
REMARK  Name = 
REMARK  8 active torsions:
REMARK  status: ('A' for Active; 'I' for Inactive)
REMARK    1  A    between atoms: C_2  and  C_3
REMARK    2  A    between atoms: C_3  and  N_4
REMARK    3  A    between atoms: C_3  and  C_12
REMARK    4  A    between atoms: N_4  and  C_5
REMARK    5  A    between atoms: C_5  and  C_6
REMARK    6  A    between atoms: C_15  and  C_16
REMARK    7  A    between atoms: C_16  and  N_17
REMARK    8  A    between atoms: C_18  and  C_20
REMARK                            x       y       z     vdW  Elec       q    Type
REMARK                         _______ _______ _______ _____ _____    ______ ____
ROOT
ATOM      1  C   UNL     1      48.902   8.017  16.230  0.00  0.00    +0.000 A 
ATOM      2  C   UNL     1      48.373   9.141  15.559  0.00  0.00    +0.000 A 
ATOM      3  C   UNL     1      47.988   9.081  14.220  0.00  0.00    +0.000 A 
ATOM      4  C   UNL     1      48.136   7.898  13.496  0.00  0.00    +0.000 A 
ATOM      5  C   UNL     1      48.755   6.807  14.110  0.00  0.00    +0.000 A 
ATOM      6  C   UNL     1      49.135   6.865  15.457  0.00  0.00    +0.000 A 
ENDROOT
BRANCH   1   7
ATOM      7  C   UNL     1      49.248   8.069  17.733  0.00  0.00    +0.000 C 
BRANCH   7   9
ATOM      8  N   UNL     1      50.710  10.187  18.402  0.00  0.00    +0.000 NA
ATOM      9  C   UNL     1      50.057   9.272  18.093  0.00  0.00    +0.000 C 
ENDBRANCH   7   9
BRANCH   7  10
ATOM     10  N   UNL     1      49.912   6.807  18.147  0.00  0.00    +0.000 NA
ATOM     11  H   UNL     1      49.955   6.208  17.328  0.00  0.00    +0.000 HD
BRANCH  10  12
ATOM     12  C   UNL     1      49.215   6.059  19.189  0.00  0.00    +0.000 C 
BRANCH  12  13
ATOM     13  C   UNL     1      48.946   4.616  18.709  0.00  0.00    +0.000 C 
ATOM     14  C   UNL     1      50.087   4.030  17.854  0.00  0.00    +0.000 C 
ATOM     15  C   UNL     1      49.758   2.626  17.354  0.00  0.00    +0.000 C 
ATOM     16  C   UNL     1      48.437   2.594  16.596  0.00  0.00    +0.000 C 
ATOM     17  C   UNL     1      47.300   3.171  17.433  0.00  0.00    +0.000 C 
ATOM     18  C   UNL     1      47.624   4.577  17.925  0.00  0.00    +0.000 C 
ENDBRANCH  12  13
ENDBRANCH  10  12
ENDBRANCH   7  10
ENDBRANCH   1   7
BRANCH   4  19
ATOM     19  C   UNL     1      47.647   7.813  12.076  0.00  0.00    +0.000 C 
BRANCH  19  20
ATOM     20  N   UNL     1      46.955   6.577  11.833  0.00  0.00    +0.000 N 
ATOM     21  C   UNL     1      45.585   6.536  11.847  0.00  0.00    +0.000 C 
ATOM     22  O   UNL     1      44.905   7.548  11.999  0.00  0.00    +0.000 OA
ATOM     23  H   UNL     1      47.489   5.718  11.919  0.00  0.00    +0.000 HD
BRANCH  21  24
ATOM     24  C   UNL     1      44.966   5.228  11.614  0.00  0.00    +0.000 A 
ATOM     25  C   UNL     1      44.275   4.605  12.645  0.00  0.00    +0.000 A 
ATOM     26  S   UNL     1      43.594   3.107  12.203  0.00  0.00    +0.000 S 
ATOM     27  C   UNL     1      44.238   3.216  10.632  0.00  0.00    +0.000 A 
ATOM     28  N   UNL     1      44.045   2.219   9.727  0.00  0.00    +0.000 NA
ATOM     29  C   UNL     1      44.614   2.418   8.585  0.00  0.00    +0.000 A 
ATOM     30  N   UNL     1      45.350   3.527   8.263  0.00  0.00    +0.000 N 
ATOM     31  C   UNL     1      45.542   4.576   9.132  0.00  0.00    +0.000 A 
ATOM     32  O   UNL     1      46.155   5.581   8.788  0.00  0.00    +0.000 OA
ATOM     33  C   UNL     1      44.941   4.391  10.439  0.00  0.00    +0.000 A 
ATOM     34  H   UNL     1      45.758   3.626   7.345  0.00  0.00    +0.000 HD
ENDBRANCH  21  24
ENDBRANCH  19  20
ENDBRANCH   4  19
TORSDOF 8
ENDMDL
MODEL 7
REMARK VINA RESULT:    -7.235      2.106      2.516
REMARK INTER + INTRA:         -11.509
REMARK INTER:                 -10.378
REMARK INTRA:                  -1.131
REMARK UNBOUND:                -0.891
REMARK  Name = 
REMARK  8 active torsions:
REMARK  status: ('A' for Active; 'I' for Inactive)
REMARK    1  A    between atoms: C_2  and  C_3
REMARK    2  A    between atoms: C_3  and  N_4
REMARK    3  A    between atoms: C_3  and  C_12
REMARK    4  A    between atoms: N_4  and  C_5
REMARK    5  A    between atoms: C_5  and  C_6
REMARK    6  A    between atoms: C_15  and  C_16
REMARK    7  A    between atoms: C_16  and  N_17
REMARK    8  A    between atoms: C_18  and  C_20
REMARK                            x       y       z     vdW  Elec       q    Type
REMARK                         _______ _______ _______ _____ _____    ______ ____
ROOT
ATOM      1  C   UNL     1      46.085   6.033  11.981  0.00  0.00    +0.000 A 
ATOM      2  C   UNL     1      46.955   5.379  12.879  0.00  0.00    +0.000 A 
ATOM      3  C   UNL     1      47.971   6.065  13.545  0.00  0.00    +0.000 A 
ATOM      4  C   UNL     1      48.167   7.427  13.323  0.00  0.00    +0.000 A 
ATOM      5  C   UNL     1      47.386   8.070  12.358  0.00  0.00    +0.000 A 
ATOM      6  C   UNL     1      46.361   7.383  11.695  0.00  0.00    +0.000 A 
ENDROOT
BRANCH   1   7
ATOM      7  C   UNL     1      44.912   5.286  11.311  0.00  0.00    +0.000 C 
BRANCH   7   9
ATOM      8  N   UNL     1      44.186   3.089  12.621  0.00  0.00    +0.000 NA
ATOM      9  C   UNL     1      44.506   4.063  12.068  0.00  0.00    +0.000 C 
ENDBRANCH   7   9
BRANCH   7  10
ATOM     10  N   UNL     1      45.244   4.981   9.897  0.00  0.00    +0.000 NA
ATOM     11  H   UNL     1      45.311   5.867   9.406  0.00  0.00    +0.000 HD
BRANCH  10  12
ATOM     12  C   UNL     1      44.252   4.174   9.192  0.00  0.00    +0.000 C 
BRANCH  12  13
ATOM     13  C   UNL     1      44.959   3.185   8.240  0.00  0.00    +0.000 C 
ATOM     14  C   UNL     1      45.546   1.954   8.958  0.00  0.00    +0.000 C 
ATOM     15  C   UNL     1      46.283   1.031   7.991  0.00  0.00    +0.000 C 
ATOM     16  C   UNL     1      47.362   1.776   7.214  0.00  0.00    +0.000 C 
ATOM     17  C   UNL     1      46.792   2.997   6.500  0.00  0.00    +0.000 C 
ATOM     18  C   UNL     1      46.063   3.923   7.466  0.00  0.00    +0.000 C 
ENDBRANCH  12  13
ENDBRANCH  10  12
ENDBRANCH   7  10
ENDBRANCH   1   7
BRANCH   4  19
ATOM     19  C   UNL     1      49.210   8.181  14.100  0.00  0.00    +0.000 C 
BRANCH  19  20
ATOM     20  N   UNL     1      50.167   7.289  14.695  0.00  0.00    +0.000 N 
ATOM     21  C   UNL     1      50.912   7.690  15.773  0.00  0.00    +0.000 C 
ATOM     22  O   UNL     1      50.748   8.785  16.306  0.00  0.00    +0.000 OA
ATOM     23  H   UNL     1      50.459   6.485  14.149  0.00  0.00    +0.000 HD
BRANCH  21  24
ATOM     24  C   UNL     1      51.881   6.723  16.297  0.00  0.00    +0.000 A 
ATOM     25  C   UNL     1      53.238   6.938  16.099  0.00  0.00    +0.000 A 
ATOM     26  S   UNL     1      54.228   5.737  16.793  0.00  0.00    +0.000 S 
ATOM     27  C   UNL     1      52.876   4.863  17.343  0.00  0.00    +0.000 A 
ATOM     28  N   UNL     1      53.027   3.687  18.010  0.00  0.00    +0.000 NA
ATOM     29  C   UNL     1      51.919   3.115  18.342  0.00  0.00    +0.000 A 
ATOM     30  N   UNL     1      50.672   3.618  18.078  0.00  0.00    +0.000 N 
ATOM     31  C   UNL     1      50.470   4.820  17.441  0.00  0.00    +0.000 A 
ATOM     32  O   UNL     1      49.340   5.269  17.275  0.00  0.00    +0.000 OA
ATOM     33  C   UNL     1      51.685   5.492  17.025  0.00  0.00    +0.000 A 
ATOM     34  H   UNL     1      49.844   3.126  18.378  0.00  0.00    +0.000 HD
ENDBRANCH  21  24
ENDBRANCH  19  20
ENDBRANCH   4  19
TORSDOF 8
ENDMDL
MODEL 8
REMARK VINA RESULT:    -7.233      3.661      9.378
REMARK INTER + INTRA:         -11.506
REMARK INTER:                  -9.457
REMARK INTRA:                  -2.050
REMARK UNBOUND:                -0.891
REMARK  Name = 
REMARK  8 active torsions:
REMARK  status: ('A' for Active; 'I' for Inactive)
REMARK    1  A    between atoms: C_2  and  C_3
REMARK    2  A    between atoms: C_3  and  N_4
REMARK    3  A    between atoms: C_3  and  C_12
REMARK    4  A    between atoms: N_4  and  C_5
REMARK    5  A    between atoms: C_5  and  C_6
REMARK    6  A    between atoms: C_15  and  C_16
REMARK    7  A    between atoms: C_16  and  N_17
REMARK    8  A    between atoms: C_18  and  C_20
REMARK                            x       y       z     vdW  Elec       q    Type
REMARK                         _______ _______ _______ _____ _____    ______ ____
ROOT
ATOM      1  C   UNL     1      48.315   5.535  20.367  0.00  0.00    +0.000 A 
ATOM      2  C   UNL     1      48.868   4.285  20.016  0.00  0.00    +0.000 A 
ATOM      3  C   UNL     1      48.536   3.647  18.821  0.00  0.00    +0.000 A 
ATOM      4  C   UNL     1      47.622   4.227  17.941  0.00  0.00    +0.000 A 
ATOM      5  C   UNL     1      46.983   5.410  18.320  0.00  0.00    +0.000 A 
ATOM      6  C   UNL     1      47.323   6.055  19.516  0.00  0.00    +0.000 A 
ENDROOT
BRANCH   1   7
ATOM      7  C   UNL     1      48.750   6.273  21.651  0.00  0.00    +0.000 C 
BRANCH   7   9
ATOM      8  N   UNL     1      47.204   8.373  22.169  0.00  0.00    +0.000 NA
ATOM      9  C   UNL     1      47.901   7.467  21.941  0.00  0.00    +0.000 C 
ENDBRANCH   7   9
BRANCH   7  10
ATOM     10  N   UNL     1      50.192   6.620  21.575  0.00  0.00    +0.000 NA
ATOM     11  H   UNL     1      50.485   6.892  22.508  0.00  0.00    +0.000 HD
BRANCH  10  12
ATOM     12  C   UNL     1      50.511   7.732  20.684  0.00  0.00    +0.000 C 
BRANCH  12  13
ATOM     13  C   UNL     1      51.308   7.216  19.465  0.00  0.00    +0.000 C 
ATOM     14  C   UNL     1      50.460   7.094  18.184  0.00  0.00    +0.000 C 
ATOM     15  C   UNL     1      51.269   6.529  17.020  0.00  0.00    +0.000 C 
ATOM     16  C   UNL     1      51.914   5.196  17.377  0.00  0.00    +0.000 C 
ATOM     17  C   UNL     1      52.755   5.305  18.644  0.00  0.00    +0.000 C 
ATOM     18  C   UNL     1      51.945   5.861  19.810  0.00  0.00    +0.000 C 
ENDBRANCH  12  13
ENDBRANCH  10  12
ENDBRANCH   7  10
ENDBRANCH   1   7
BRANCH   4  19
ATOM     19  C   UNL     1      47.325   3.576  16.619  0.00  0.00    +0.000 C 
BRANCH  19  20
ATOM     20  N   UNL     1      46.733   4.506  15.698  0.00  0.00    +0.000 N 
ATOM     21  C   UNL     1      46.778   4.270  14.348  0.00  0.00    +0.000 C 
ATOM     22  O   UNL     1      47.258   3.238  13.884  0.00  0.00    +0.000 OA
ATOM     23  H   UNL     1      46.530   5.440  16.042  0.00  0.00    +0.000 HD
BRANCH  21  24
ATOM     24  C   UNL     1      46.169   5.286  13.484  0.00  0.00    +0.000 A 
ATOM     25  C   UNL     1      46.854   6.467  13.232  0.00  0.00    +0.000 A 
ATOM     26  S   UNL     1      46.024   7.528  12.189  0.00  0.00    +0.000 S 
ATOM     27  C   UNL     1      44.699   6.466  12.075  0.00  0.00    +0.000 A 
ATOM     28  N   UNL     1      43.604   6.792  11.337  0.00  0.00    +0.000 NA
ATOM     29  C   UNL     1      42.661   5.910  11.363  0.00  0.00    +0.000 A 
ATOM     30  N   UNL     1      42.720   4.726  12.050  0.00  0.00    +0.000 N 
ATOM     31  C   UNL     1      43.820   4.338  12.779  0.00  0.00    +0.000 A 
ATOM     32  O   UNL     1      43.860   3.243  13.332  0.00  0.00    +0.000 OA
ATOM     33  C   UNL     1      44.898   5.306  12.801  0.00  0.00    +0.000 A 
ATOM     34  H   UNL     1      41.951   4.073  12.018  0.00  0.00    +0.000 HD
ENDBRANCH  21  24
ENDBRANCH  19  20
ENDBRANCH   4  19
TORSDOF 8
ENDMDL
MODEL 9
REMARK VINA RESULT:    -7.086      2.018      2.900
REMARK INTER + INTRA:         -11.291
REMARK INTER:                 -10.297
REMARK INTRA:                  -0.994
REMARK UNBOUND:                -0.891
REMARK  Name = 
REMARK  8 active torsions:
REMARK  status: ('A' for Active; 'I' for Inactive)
REMARK    1  A    between atoms: C_2  and  C_3
REMARK    2  A    between atoms: C_3  and  N_4
REMARK    3  A    between atoms: C_3  and  C_12
REMARK    4  A    between atoms: N_4  and  C_5
REMARK    5  A    between atoms: C_5  and  C_6
REMARK    6  A    between atoms: C_15  and  C_16
REMARK    7  A    between atoms: C_16  and  N_17
REMARK    8  A    between atoms: C_18  and  C_20
REMARK                            x       y       z     vdW  Elec       q    Type
REMARK                         _______ _______ _______ _____ _____    ______ ____
ROOT
ATOM      1  C   UNL     1      45.581   5.816  11.815  0.00  0.00    +0.000 A 
ATOM      2  C   UNL     1      46.567   5.127  12.553  0.00  0.00    +0.000 A 
ATOM      3  C   UNL     1      47.469   5.800  13.378  0.00  0.00    +0.000 A 
ATOM      4  C   UNL     1      47.430   7.191  13.479  0.00  0.00    +0.000 A 
ATOM      5  C   UNL     1      46.532   7.898  12.675  0.00  0.00    +0.000 A 
ATOM      6  C   UNL     1      45.622   7.222  11.854  0.00  0.00    +0.000 A 
ENDROOT
BRANCH   1   7
ATOM      7  C   UNL     1      44.535   5.058  10.970  0.00  0.00    +0.000 C 
BRANCH   7   9
ATOM      8  N   UNL     1      42.049   5.609  11.733  0.00  0.00    +0.000 NA
ATOM      9  C   UNL     1      43.133   5.375  11.376  0.00  0.00    +0.000 C 
ENDBRANCH   7   9
BRANCH   7  10
ATOM     10  N   UNL     1      44.810   3.599  11.008  0.00  0.00    +0.000 NA
ATOM     11  H   UNL     1      45.810   3.485  11.141  0.00  0.00    +0.000 HD
BRANCH  10  12
ATOM     12  C   UNL     1      44.454   2.874   9.791  0.00  0.00    +0.000 C 
BRANCH  12  13
ATOM     13  C   UNL     1      45.683   2.772   8.862  0.00  0.00    +0.000 C 
ATOM     14  C   UNL     1      45.630   3.742   7.665  0.00  0.00    +0.000 C 
ATOM     15  C   UNL     1      46.834   3.571   6.743  0.00  0.00    +0.000 C 
ATOM     16  C   UNL     1      46.981   2.129   6.271  0.00  0.00    +0.000 C 
ATOM     17  C   UNL     1      47.033   1.161   7.447  0.00  0.00    +0.000 C 
ATOM     18  C   UNL     1      45.827   1.325   8.365  0.00  0.00    +0.000 C 
ENDBRANCH  12  13
ENDBRANCH  10  12
ENDBRANCH   7  10
ENDBRANCH   1   7
BRANCH   4  19
ATOM     19  C   UNL     1      48.350   7.908  14.428  0.00  0.00    +0.000 C 
BRANCH  19  20
ATOM     20  N   UNL     1      48.381   7.266  15.713  0.00  0.00    +0.000 N 
ATOM     21  C   UNL     1      49.527   6.659  16.157  0.00  0.00    +0.000 C 
ATOM     22  O   UNL     1      50.574   6.696  15.515  0.00  0.00    +0.000 OA
ATOM     23  H   UNL     1      47.491   7.046  16.148  0.00  0.00    +0.000 HD
BRANCH  21  24
ATOM     24  C   UNL     1      49.459   6.009  17.469  0.00  0.00    +0.000 A 
ATOM     25  C   UNL     1      48.751   4.822  17.608  0.00  0.00    +0.000 A 
ATOM     26  S   UNL     1      48.792   4.183  19.187  0.00  0.00    +0.000 S 
ATOM     27  C   UNL     1      49.718   5.494  19.752  0.00  0.00    +0.000 A 
ATOM     28  N   UNL     1      50.083   5.580  21.059  0.00  0.00    +0.000 NA
ATOM     29  C   UNL     1      50.756   6.641  21.357  0.00  0.00    +0.000 A 
ATOM     30  N   UNL     1      51.106   7.619  20.463  0.00  0.00    +0.000 N 
ATOM     31  C   UNL     1      50.791   7.557  19.126  0.00  0.00    +0.000 A 
ATOM     32  O   UNL     1      51.174   8.421  18.343  0.00  0.00    +0.000 OA
ATOM     33  C   UNL     1      50.014   6.395  18.744  0.00  0.00    +0.000 A 
ATOM     34  H   UNL     1      51.645   8.418  20.759  0.00  0.00    +0.000 HD
ENDBRANCH  21  24
ENDBRANCH  19  20
ENDBRANCH   4  19
TORSDOF 8
ENDMDL
