MODEL 1
REMARK VINA RESULT:    -7.637      0.000      0.000
REMARK INTER + INTRA:         -11.703
REMARK INTER:                 -10.762
REMARK INTRA:                  -0.941
REMARK UNBOUND:                -0.941
REMARK  Name = 
REMARK  8 active torsions:
REMARK  status: ('A' for Active; 'I' for Inactive)
REMARK    1  A    between atoms: C_1  and  O_2
REMARK    2  A    between atoms: O_2  and  C_3
REMARK    3  A    between atoms: C_8  and  C_9
REMARK    4  A    between atoms: C_9  and  N_10
REMARK    5  A    between atoms: N_10  and  C_11
REMARK    6  A    between atoms: C_14  and  C_15
REMARK    7  A    between atoms: C_15  and  N_16
REMARK    8  A    between atoms: C_17  and  C_19
REMARK                            x       y       z     vdW  Elec       q    Type
REMARK                         _______ _______ _______ _____ _____    ______ ____
ROOT
ATOM      1  C   UNL     1      45.265   7.145  11.420  0.00  0.00    +0.000 A 
ATOM      2  C   UNL     1      46.482   6.499  11.687  0.00  0.00    +0.000 A 
ATOM      3  C   UNL     1      47.375   6.993  12.650  0.00  0.00    +0.000 A 
ATOM      4  C   UNL     1      47.078   8.163  13.356  0.00  0.00    +0.000 A 
ATOM      5  C   UNL     1      45.921   8.868  13.017  0.00  0.00    +0.000 A 
ATOM      6  C   UNL     1      45.037   8.369  12.055  0.00  0.00    +0.000 A 
ENDROOT
BRANCH   1   7
ATOM      7  N   UNL     1      44.404   6.623  10.442  0.00  0.00    +0.000 N 
ATOM      8  H   UNL     1      44.852   6.607   9.528  0.00  0.00    +0.000 HD
BRANCH   7   9
ATOM      9  C   UNL     1      43.772   5.326  10.722  0.00  0.00    +0.000 C 
BRANCH   9  15
ATOM     10  C   UNL     1      44.153   2.879  10.074  0.00  0.00    +0.000 A 
ATOM     11  C   UNL     1      44.793   1.933   9.266  0.00  0.00    +0.000 A 
ATOM     12  C   UNL     1      45.658   2.336   8.244  0.00  0.00    +0.000 A 
ATOM     13  C   UNL     1      45.883   3.689   8.013  0.00  0.00    +0.000 A 
ATOM     14  C   UNL     1      45.264   4.637   8.822  0.00  0.00    +0.000 A 
ATOM     15  C   UNL     1      44.408   4.248   9.870  0.00  0.00    +0.000 A 
BRANCH  10  17
ATOM     16  C   UNL     1      43.664   2.653  12.399  0.00  0.00    +0.000 C 
ATOM     17  O   UNL     1      43.237   2.569  11.045  0.00  0.00    +0.000 OA
ENDBRANCH  10  17
ENDBRANCH   9  15
ENDBRANCH   7   9
ENDBRANCH   1   7
BRANCH   4  18
ATOM     18  C   UNL     1      47.983   8.685  14.440  0.00  0.00    +0.000 C 
BRANCH  18  19
ATOM     19  N   UNL     1      48.195   7.709  15.476  0.00  0.00    +0.000 N 
ATOM     20  C   UNL     1      49.386   7.037  15.574  0.00  0.00    +0.000 C 
ATOM     21  O   UNL     1      50.330   7.274  14.823  0.00  0.00    +0.000 OA
ATOM     22  H   UNL     1      47.370   7.336  15.937  0.00  0.00    +0.000 HD
BRANCH  20  23
ATOM     23  C   UNL     1      49.505   6.060  16.663  0.00  0.00    +0.000 A 
ATOM     24  C   UNL     1      50.534   6.182  17.585  0.00  0.00    +0.000 A 
ATOM     25  S   UNL     1      50.492   5.004  18.818  0.00  0.00    +0.000 S 
ATOM     26  C   UNL     1      49.129   4.255  18.128  0.00  0.00    +0.000 A 
ATOM     27  N   UNL     1      48.578   3.147  18.695  0.00  0.00    +0.000 NA
ATOM     28  C   UNL     1      47.565   2.669  18.055  0.00  0.00    +0.000 A 
ATOM     29  N   UNL     1      47.049   3.197  16.901  0.00  0.00    +0.000 N 
ATOM     30  C   UNL     1      47.554   4.328  16.305  0.00  0.00    +0.000 A 
ATOM     31  O   UNL     1      47.053   4.794  15.289  0.00  0.00    +0.000 OA
ATOM     32  C   UNL     1      48.700   4.905  16.985  0.00  0.00    +0.000 A 
ATOM     33  H   UNL     1      46.251   2.777  16.448  0.00  0.00    +0.000 HD
ENDBRANCH  20  23
ENDBRANCH  18  19
ENDBRANCH   4  18
TORSDOF 7
ENDMDL
MODEL 2
REMARK VINA RESULT:    -7.334      3.161      7.643
REMARK INTER + INTRA:         -11.276
REMARK INTER:                 -10.051
REMARK INTRA:                  -1.225
REMARK UNBOUND:                -0.941
REMARK  Name = 
REMARK  8 active torsions:
REMARK  status: ('A' for Active; 'I' for Inactive)
REMARK    1  A    between atoms: C_1  and  O_2
REMARK    2  A    between atoms: O_2  and  C_3
REMARK    3  A    between atoms: C_8  and  C_9
REMARK    4  A    between atoms: C_9  and  N_10
REMARK    5  A    between atoms: N_10  and  C_11
REMARK    6  A    between atoms: C_14  and  C_15
REMARK    7  A    between atoms: C_15  and  N_16
REMARK    8  A    between atoms: C_17  and  C_19
REMARK                            x       y       z     vdW  Elec       q    Type
REMARK                         _______ _______ _______ _____ _____    ______ ____
ROOT
ATOM      1  C   UNL     1      50.195   6.891  15.876  0.00  0.00    +0.000 A 
ATOM      2  C   UNL     1      48.856   6.587  15.590  0.00  0.00    +0.000 A 
ATOM      3  C   UNL     1      48.268   6.957  14.371  0.00  0.00    +0.000 A 
ATOM      4  C   UNL     1      49.005   7.662  13.415  0.00  0.00    +0.000 A 
ATOM      5  C   UNL     1      50.303   8.062  13.739  0.00  0.00    +0.000 A 
ATOM      6  C   UNL     1      50.881   7.690  14.957  0.00  0.00    +0.000 A 
ENDROOT
BRANCH   1   7
ATOM      7  N   UNL     1      50.744   6.509  17.111  0.00  0.00    +0.000 N 
ATOM      8  H   UNL     1      51.004   7.324  17.664  0.00  0.00    +0.000 HD
BRANCH   7   9
ATOM      9  C   UNL     1      49.973   5.563  17.929  0.00  0.00    +0.000 C 
BRANCH   9  15
ATOM     10  C   UNL     1      49.753   3.131  17.158  0.00  0.00    +0.000 A 
ATOM     11  C   UNL     1      50.306   1.851  17.038  0.00  0.00    +0.000 A 
ATOM     12  C   UNL     1      51.612   1.596  17.465  0.00  0.00    +0.000 A 
ATOM     13  C   UNL     1      52.382   2.619  18.007  0.00  0.00    +0.000 A 
ATOM     14  C   UNL     1      51.836   3.892  18.146  0.00  0.00    +0.000 A 
ATOM     15  C   UNL     1      50.514   4.161  17.742  0.00  0.00    +0.000 A 
BRANCH  10  17
ATOM     16  C   UNL     1      47.385   3.015  17.432  0.00  0.00    +0.000 C 
ATOM     17  O   UNL     1      48.510   3.480  16.697  0.00  0.00    +0.000 OA
ENDBRANCH  10  17
ENDBRANCH   9  15
ENDBRANCH   7   9
ENDBRANCH   1   7
BRANCH   4  18
ATOM     18  C   UNL     1      48.424   8.019  12.073  0.00  0.00    +0.000 C 
BRANCH  18  19
ATOM     19  N   UNL     1      47.708   6.916  11.489  0.00  0.00    +0.000 N 
ATOM     20  C   UNL     1      46.339   6.930  11.414  0.00  0.00    +0.000 C 
ATOM     21  O   UNL     1      45.677   7.894  11.789  0.00  0.00    +0.000 OA
ATOM     22  H   UNL     1      48.206   6.035  11.402  0.00  0.00    +0.000 HD
BRANCH  20  23
ATOM     23  C   UNL     1      45.701   5.757  10.803  0.00  0.00    +0.000 A 
ATOM     24  C   UNL     1      45.846   5.528   9.442  0.00  0.00    +0.000 A 
ATOM     25  S   UNL     1      45.095   4.094   8.905  0.00  0.00    +0.000 S 
ATOM     26  C   UNL     1      44.501   3.759  10.464  0.00  0.00    +0.000 A 
ATOM     27  N   UNL     1      43.742   2.654  10.702  0.00  0.00    +0.000 NA
ATOM     28  C   UNL     1      43.338   2.537  11.921  0.00  0.00    +0.000 A 
ATOM     29  N   UNL     1      43.625   3.421  12.928  0.00  0.00    +0.000 N 
ATOM     30  C   UNL     1      44.408   4.536  12.744  0.00  0.00    +0.000 A 
ATOM     31  O   UNL     1      44.671   5.292  13.671  0.00  0.00    +0.000 OA
ATOM     32  C   UNL     1      44.885   4.717  11.386  0.00  0.00    +0.000 A 
ATOM     33  H   UNL     1      43.281   3.272  13.865  0.00  0.00    +0.000 HD
ENDBRANCH  20  23
ENDBRANCH  18  19
ENDBRANCH   4  18
TORSDOF 7
ENDMDL
MODEL 3
REMARK VINA RESULT:    -7.282      1.984      2.283
REMARK INTER + INTRA:         -11.203
REMARK INTER:                  -9.990
REMARK INTRA:                  -1.213
REMARK UNBOUND:                -0.941
REMARK  Name = 
REMARK  8 active torsions:
REMARK  status: ('A' for Active; 'I' for Inactive)
REMARK    1  A    between atoms: C_1  and  O_2
REMARK    2  A    between atoms: O_2  and  C_3
REMARK    3  A    between atoms: C_8  and  C_9
REMARK    4  A    between atoms: C_9  and  N_10
REMARK    5  A    between atoms: N_10  and  C_11
REMARK    6  A    between atoms: C_14  and  C_15
REMARK    7  A    between atoms: C_15  and  N_16
REMARK    8  A    between atoms: C_17  and  C_19
REMARK                            x       y       z     vdW  Elec       q    Type
REMARK                         _______ _______ _______ _____ _____    ______ ____
ROOT
ATOM      1  C   UNL     1      45.089   5.787  12.468  0.00  0.00    +0.000 A 
ATOM      2  C   UNL     1      45.749   4.905  13.338  0.00  0.00    +0.000 A 
ATOM      3  C   UNL     1      46.963   5.254  13.948  0.00  0.00    +0.000 A 
ATOM      4  C   UNL     1      47.558   6.491  13.684  0.00  0.00    +0.000 A 
ATOM      5  C   UNL     1      46.962   7.326  12.736  0.00  0.00    +0.000 A 
ATOM      6  C   UNL     1      45.752   6.970  12.132  0.00  0.00    +0.000 A 
ENDROOT
BRANCH   1   7
ATOM      7  N   UNL     1      43.880   5.396  11.871  0.00  0.00    +0.000 N 
ATOM      8  H   UNL     1      43.084   5.831  12.335  0.00  0.00    +0.000 HD
BRANCH   7   9
ATOM      9  C   UNL     1      43.766   5.546  10.414  0.00  0.00    +0.000 C 
BRANCH   9  15
ATOM     10  C   UNL     1      44.143   3.041  10.042  0.00  0.00    +0.000 A 
ATOM     11  C   UNL     1      44.820   2.011   9.380  0.00  0.00    +0.000 A 
ATOM     12  C   UNL     1      45.761   2.298   8.388  0.00  0.00    +0.000 A 
ATOM     13  C   UNL     1      46.029   3.618   8.040  0.00  0.00    +0.000 A 
ATOM     14  C   UNL     1      45.373   4.651   8.703  0.00  0.00    +0.000 A 
ATOM     15  C   UNL     1      44.439   4.380   9.721  0.00  0.00    +0.000 A 
BRANCH  10  17
ATOM     16  C   UNL     1      43.518   2.186  12.180  0.00  0.00    +0.000 C 
ATOM     17  O   UNL     1      43.157   2.842  10.971  0.00  0.00    +0.000 OA
ENDBRANCH  10  17
ENDBRANCH   9  15
ENDBRANCH   7   9
ENDBRANCH   1   7
BRANCH   4  18
ATOM     18  C   UNL     1      48.826   6.922  14.370  0.00  0.00    +0.000 C 
BRANCH  18  19
ATOM     19  N   UNL     1      48.626   7.141  15.778  0.00  0.00    +0.000 N 
ATOM     20  C   UNL     1      49.481   6.596  16.701  0.00  0.00    +0.000 C 
ATOM     21  O   UNL     1      50.472   5.951  16.368  0.00  0.00    +0.000 OA
ATOM     22  H   UNL     1      47.705   7.454  16.072  0.00  0.00    +0.000 HD
BRANCH  20  23
ATOM     23  C   UNL     1      49.191   6.874  18.113  0.00  0.00    +0.000 A 
ATOM     24  C   UNL     1      49.159   8.187  18.561  0.00  0.00    +0.000 A 
ATOM     25  S   UNL     1      48.749   8.338  20.209  0.00  0.00    +0.000 S 
ATOM     26  C   UNL     1      48.657   6.649  20.396  0.00  0.00    +0.000 A 
ATOM     27  N   UNL     1      48.355   6.093  21.601  0.00  0.00    +0.000 NA
ATOM     28  C   UNL     1      48.343   4.803  21.605  0.00  0.00    +0.000 A 
ATOM     29  N   UNL     1      48.603   4.015  20.514  0.00  0.00    +0.000 N 
ATOM     30  C   UNL     1      48.887   4.530  19.272  0.00  0.00    +0.000 A 
ATOM     31  O   UNL     1      49.085   3.799  18.308  0.00  0.00    +0.000 OA
ATOM     32  C   UNL     1      48.916   5.979  19.213  0.00  0.00    +0.000 A 
ATOM     33  H   UNL     1      48.575   3.009  20.581  0.00  0.00    +0.000 HD
ENDBRANCH  20  23
ENDBRANCH  18  19
ENDBRANCH   4  18
TORSDOF 7
ENDMDL
MODEL 4
REMARK VINA RESULT:    -7.235      1.898      2.174
REMARK INTER + INTRA:         -11.137
REMARK INTER:                 -10.434
REMARK INTRA:                  -0.703
REMARK UNBOUND:                -0.941
REMARK  Name = 
REMARK  8 active torsions:
REMARK  status: ('A' for Active; 'I' for Inactive)
REMARK    1  A    between atoms: C_1  and  O_2
REMARK    2  A    between atoms: O_2  and  C_3
REMARK    3  A    between atoms: C_8  and  C_9
REMARK    4  A    between atoms: C_9  and  N_10
REMARK    5  A    between atoms: N_10  and  C_11
REMARK    6  A    between atoms: C_14  and  C_15
REMARK    7  A    between atoms: C_15  and  N_16
REMARK    8  A    between atoms: C_17  and  C_19
REMARK                            x       y       z     vdW  Elec       q    Type
REMARK                         _______ _______ _______ _____ _____    ______ ____
ROOT
ATOM      1  C   UNL     1      45.600   7.163  11.612  0.00  0.00    +0.000 A 
ATOM      2  C   UNL     1      46.781   6.460  11.895  0.00  0.00    +0.000 A 
ATOM      3  C   UNL     1      47.672   6.898  12.886  0.00  0.00    +0.000 A 
ATOM      4  C   UNL     1      47.412   8.069  13.604  0.00  0.00    +0.000 A 
ATOM      5  C   UNL     1      46.296   8.831  13.250  0.00  0.00    +0.000 A 
ATOM      6  C   UNL     1      45.413   8.387  12.262  0.00  0.00    +0.000 A 
ENDROOT
BRANCH   1   7
ATOM      7  N   UNL     1      44.738   6.695  10.608  0.00  0.00    +0.000 N 
ATOM      8  H   UNL     1      45.212   6.654   9.708  0.00  0.00    +0.000 HD
BRANCH   7   9
ATOM      9  C   UNL     1      44.021   5.438  10.865  0.00  0.00    +0.000 C 
BRANCH   9  15
ATOM     10  C   UNL     1      44.173   3.001  10.096  0.00  0.00    +0.000 A 
ATOM     11  C   UNL     1      44.711   2.042   9.230  0.00  0.00    +0.000 A 
ATOM     12  C   UNL     1      45.587   2.418   8.208  0.00  0.00    +0.000 A 
ATOM     13  C   UNL     1      45.925   3.755   8.033  0.00  0.00    +0.000 A 
ATOM     14  C   UNL     1      45.408   4.714   8.899  0.00  0.00    +0.000 A 
ATOM     15  C   UNL     1      44.543   4.351   9.949  0.00  0.00    +0.000 A 
BRANCH  10  17
ATOM     16  C   UNL     1      43.714   2.710  12.420  0.00  0.00    +0.000 C 
ATOM     17  O   UNL     1      43.254   2.725  11.074  0.00  0.00    +0.000 OA
ENDBRANCH  10  17
ENDBRANCH   9  15
ENDBRANCH   7   9
ENDBRANCH   1   7
BRANCH   4  18
ATOM     18  C   UNL     1      48.316   8.534  14.715  0.00  0.00    +0.000 C 
BRANCH  18  19
ATOM     19  N   UNL     1      48.159   7.735  15.901  0.00  0.00    +0.000 N 
ATOM     20  C   UNL     1      49.083   6.774  16.227  0.00  0.00    +0.000 C 
ATOM     21  O   UNL     1      50.097   6.594  15.557  0.00  0.00    +0.000 OA
ATOM     22  H   UNL     1      47.234   7.702  16.319  0.00  0.00    +0.000 HD
BRANCH  20  23
ATOM     23  C   UNL     1      48.833   6.010  17.455  0.00  0.00    +0.000 A 
ATOM     24  C   UNL     1      49.075   4.643  17.474  0.00  0.00    +0.000 A 
ATOM     25  S   UNL     1      48.792   3.919  18.991  0.00  0.00    +0.000 S 
ATOM     26  C   UNL     1      48.281   5.397  19.661  0.00  0.00    +0.000 A 
ATOM     27  N   UNL     1      47.874   5.474  20.957  0.00  0.00    +0.000 NA
ATOM     28  C   UNL     1      47.490   6.650  21.326  0.00  0.00    +0.000 A 
ATOM     29  N   UNL     1      47.479   7.757  20.520  0.00  0.00    +0.000 N 
ATOM     30  C   UNL     1      47.905   7.735  19.213  0.00  0.00    +0.000 A 
ATOM     31  O   UNL     1      47.910   8.749  18.526  0.00  0.00    +0.000 OA
ATOM     32  C   UNL     1      48.344   6.433  18.746  0.00  0.00    +0.000 A 
ATOM     33  H   UNL     1      47.169   8.652  20.870  0.00  0.00    +0.000 HD
ENDBRANCH  20  23
ENDBRANCH  18  19
ENDBRANCH   4  18
TORSDOF 7
ENDMDL
MODEL 5
REMARK VINA RESULT:    -7.046      2.958      7.900
REMARK INTER + INTRA:         -10.870
REMARK INTER:                  -9.019
REMARK INTRA:                  -1.851
REMARK UNBOUND:                -0.941
REMARK  Name = 
REMARK  8 active torsions:
REMARK  status: ('A' for Active; 'I' for Inactive)
REMARK    1  A    between atoms: C_1  and  O_2
REMARK    2  A    between atoms: O_2  and  C_3
REMARK    3  A    between atoms: C_8  and  C_9
REMARK    4  A    between atoms: C_9  and  N_10
REMARK    5  A    between atoms: N_10  and  C_11
REMARK    6  A    between atoms: C_14  and  C_15
REMARK    7  A    between atoms: C_15  and  N_16
REMARK    8  A    between atoms: C_17  and  C_19
REMARK                            x       y       z     vdW  Elec       q    Type
REMARK                         _______ _______ _______ _____ _____    ______ ____
ROOT
ATOM      1  C   UNL     1      49.471   7.947  16.076  0.00  0.00    +0.000 A 
ATOM      2  C   UNL     1      48.375   8.764  15.758  0.00  0.00    +0.000 A 
ATOM      3  C   UNL     1      47.833   8.789  14.464  0.00  0.00    +0.000 A 
ATOM      4  C   UNL     1      48.392   8.008  13.448  0.00  0.00    +0.000 A 
ATOM      5  C   UNL     1      49.549   7.278  13.732  0.00  0.00    +0.000 A 
ATOM      6  C   UNL     1      50.083   7.260  15.024  0.00  0.00    +0.000 A 
ENDROOT
BRANCH   1   7
ATOM      7  N   UNL     1      49.988   7.958  17.381  0.00  0.00    +0.000 N 
ATOM      8  H   UNL     1      50.261   8.899  17.659  0.00  0.00    +0.000 HD
BRANCH   7   9
ATOM      9  C   UNL     1      49.179   7.329  18.433  0.00  0.00    +0.000 C 
BRANCH   9  15
ATOM     10  C   UNL     1      50.051   4.960  18.008  0.00  0.00    +0.000 A 
ATOM     11  C   UNL     1      49.795   3.621  17.692  0.00  0.00    +0.000 A 
ATOM     12  C   UNL     1      48.484   3.168  17.515  0.00  0.00    +0.000 A 
ATOM     13  C   UNL     1      47.416   4.046  17.662  0.00  0.00    +0.000 A 
ATOM     14  C   UNL     1      47.661   5.384  17.961  0.00  0.00    +0.000 A 
ATOM     15  C   UNL     1      48.976   5.861  18.119  0.00  0.00    +0.000 A 
BRANCH  10  17
ATOM     16  C   UNL     1      52.365   5.039  17.431  0.00  0.00    +0.000 C 
ATOM     17  O   UNL     1      51.298   5.464  18.269  0.00  0.00    +0.000 OA
ENDBRANCH  10  17
ENDBRANCH   9  15
ENDBRANCH   7   9
ENDBRANCH   1   7
BRANCH   4  18
ATOM     18  C   UNL     1      47.797   7.964  12.066  0.00  0.00    +0.000 C 
BRANCH  18  19
ATOM     19  N   UNL     1      47.072   6.742  11.835  0.00  0.00    +0.000 N 
ATOM     20  C   UNL     1      45.744   6.642  12.165  0.00  0.00    +0.000 C 
ATOM     21  O   UNL     1      45.113   7.595  12.616  0.00  0.00    +0.000 OA
ATOM     22  H   UNL     1      47.619   5.898  11.697  0.00  0.00    +0.000 HD
BRANCH  20  23
ATOM     23  C   UNL     1      45.093   5.355  11.893  0.00  0.00    +0.000 A 
ATOM     24  C   UNL     1      44.431   4.692  12.917  0.00  0.00    +0.000 A 
ATOM     25  S   UNL     1      43.680   3.244  12.420  0.00  0.00    +0.000 S 
ATOM     26  C   UNL     1      44.263   3.424  10.832  0.00  0.00    +0.000 A 
ATOM     27  N   UNL     1      43.988   2.494   9.876  0.00  0.00    +0.000 NA
ATOM     28  C   UNL     1      44.513   2.744   8.724  0.00  0.00    +0.000 A 
ATOM     29  N   UNL     1      45.285   3.838   8.437  0.00  0.00    +0.000 N 
ATOM     30  C   UNL     1      45.568   4.816   9.360  0.00  0.00    +0.000 A 
ATOM     31  O   UNL     1      46.237   5.799   9.065  0.00  0.00    +0.000 OA
ATOM     32  C   UNL     1      45.004   4.582  10.676  0.00  0.00    +0.000 A 
ATOM     33  H   UNL     1      45.665   3.979   7.512  0.00  0.00    +0.000 HD
ENDBRANCH  20  23
ENDBRANCH  18  19
ENDBRANCH   4  18
TORSDOF 7
ENDMDL
MODEL 6
REMARK VINA RESULT:    -6.991      3.062      7.413
REMARK INTER + INTRA:         -10.793
REMARK INTER:                  -8.905
REMARK INTRA:                  -1.888
REMARK UNBOUND:                -0.941
REMARK  Name = 
REMARK  8 active torsions:
REMARK  status: ('A' for Active; 'I' for Inactive)
REMARK    1  A    between atoms: C_1  and  O_2
REMARK    2  A    between atoms: O_2  and  C_3
REMARK    3  A    between atoms: C_8  and  C_9
REMARK    4  A    between atoms: C_9  and  N_10
REMARK    5  A    between atoms: N_10  and  C_11
REMARK    6  A    between atoms: C_14  and  C_15
REMARK    7  A    between atoms: C_15  and  N_16
REMARK    8  A    between atoms: C_17  and  C_19
REMARK                            x       y       z     vdW  Elec       q    Type
REMARK                         _______ _______ _______ _____ _____    ______ ____
ROOT
ATOM      1  C   UNL     1      50.233   6.656  17.547  0.00  0.00    +0.000 A 
ATOM      2  C   UNL     1      49.230   7.577  17.885  0.00  0.00    +0.000 A 
ATOM      3  C   UNL     1      48.573   8.334  16.903  0.00  0.00    +0.000 A 
ATOM      4  C   UNL     1      48.922   8.201  15.556  0.00  0.00    +0.000 A 
ATOM      5  C   UNL     1      49.993   7.367  15.226  0.00  0.00    +0.000 A 
ATOM      6  C   UNL     1      50.642   6.617  16.211  0.00  0.00    +0.000 A 
ENDROOT
BRANCH   1   7
ATOM      7  N   UNL     1      50.871   5.924  18.561  0.00  0.00    +0.000 N 
ATOM      8  H   UNL     1      51.356   6.542  19.209  0.00  0.00    +0.000 HD
BRANCH   7   9
ATOM      9  C   UNL     1      50.062   4.944  19.298  0.00  0.00    +0.000 C 
BRANCH   9  15
ATOM     10  C   UNL     1      50.174   3.048  17.580  0.00  0.00    +0.000 A 
ATOM     11  C   UNL     1      49.520   2.195  16.684  0.00  0.00    +0.000 A 
ATOM     12  C   UNL     1      48.129   2.233  16.549  0.00  0.00    +0.000 A 
ATOM     13  C   UNL     1      47.377   3.116  17.315  0.00  0.00    +0.000 A 
ATOM     14  C   UNL     1      48.019   3.981  18.198  0.00  0.00    +0.000 A 
ATOM     15  C   UNL     1      49.421   3.972  18.329  0.00  0.00    +0.000 A 
BRANCH  10  17
ATOM     16  C   UNL     1      52.186   1.772  17.699  0.00  0.00    +0.000 C 
ATOM     17  O   UNL     1      51.522   3.023  17.824  0.00  0.00    +0.000 OA
ENDBRANCH  10  17
ENDBRANCH   9  15
ENDBRANCH   7   9
ENDBRANCH   1   7
BRANCH   4  18
ATOM     18  C   UNL     1      48.194   8.951  14.472  0.00  0.00    +0.000 C 
BRANCH  18  19
ATOM     19  N   UNL     1      47.056   8.217  13.984  0.00  0.00    +0.000 N 
ATOM     20  C   UNL     1      47.140   7.479  12.831  0.00  0.00    +0.000 C 
ATOM     21  O   UNL     1      48.191   7.372  12.203  0.00  0.00    +0.000 OA
ATOM     22  H   UNL     1      46.145   8.483  14.344  0.00  0.00    +0.000 HD
BRANCH  20  23
ATOM     23  C   UNL     1      45.925   6.768  12.414  0.00  0.00    +0.000 A 
ATOM     24  C   UNL     1      44.881   7.476  11.834  0.00  0.00    +0.000 A 
ATOM     25  S   UNL     1      43.573   6.494  11.354  0.00  0.00    +0.000 S 
ATOM     26  C   UNL     1      44.332   5.095  11.957  0.00  0.00    +0.000 A 
ATOM     27  N   UNL     1      43.725   3.880  11.876  0.00  0.00    +0.000 NA
ATOM     28  C   UNL     1      44.402   2.911  12.395  0.00  0.00    +0.000 A 
ATOM     29  N   UNL     1      45.631   3.044  12.984  0.00  0.00    +0.000 N 
ATOM     30  C   UNL     1      46.295   4.244  13.066  0.00  0.00    +0.000 A 
ATOM     31  O   UNL     1      47.408   4.326  13.572  0.00  0.00    +0.000 OA
ATOM     32  C   UNL     1      45.575   5.370  12.500  0.00  0.00    +0.000 A 
ATOM     33  H   UNL     1      46.113   2.245  13.369  0.00  0.00    +0.000 HD
ENDBRANCH  20  23
ENDBRANCH  18  19
ENDBRANCH   4  18
TORSDOF 7
ENDMDL
MODEL 7
REMARK VINA RESULT:    -6.937      2.325      3.276
REMARK INTER + INTRA:         -10.717
REMARK INTER:                  -9.274
REMARK INTRA:                  -1.444
REMARK UNBOUND:                -0.941
REMARK  Name = 
REMARK  8 active torsions:
REMARK  status: ('A' for Active; 'I' for Inactive)
REMARK    1  A    between atoms: C_1  and  O_2
REMARK    2  A    between atoms: O_2  and  C_3
REMARK    3  A    between atoms: C_8  and  C_9
REMARK    4  A    between atoms: C_9  and  N_10
REMARK    5  A    between atoms: N_10  and  C_11
REMARK    6  A    between atoms: C_14  and  C_15
REMARK    7  A    between atoms: C_15  and  N_16
REMARK    8  A    between atoms: C_17  and  C_19
REMARK                            x       y       z     vdW  Elec       q    Type
REMARK                         _______ _______ _______ _____ _____    ______ ____
ROOT
ATOM      1  C   UNL     1      47.238   6.884  12.522  0.00  0.00    +0.000 A 
ATOM      2  C   UNL     1      47.562   5.774  13.317  0.00  0.00    +0.000 A 
ATOM      3  C   UNL     1      48.166   5.928  14.574  0.00  0.00    +0.000 A 
ATOM      4  C   UNL     1      48.481   7.202  15.057  0.00  0.00    +0.000 A 
ATOM      5  C   UNL     1      48.261   8.301  14.223  0.00  0.00    +0.000 A 
ATOM      6  C   UNL     1      47.659   8.139  12.972  0.00  0.00    +0.000 A 
ENDROOT
BRANCH   1   7
ATOM      7  N   UNL     1      46.641   6.686  11.267  0.00  0.00    +0.000 N 
ATOM      8  H   UNL     1      46.971   5.825  10.836  0.00  0.00    +0.000 HD
BRANCH   7   9
ATOM      9  C   UNL     1      45.175   6.764  11.196  0.00  0.00    +0.000 C 
BRANCH   9  15
ATOM     10  C   UNL     1      44.662   4.356  10.493  0.00  0.00    +0.000 A 
ATOM     11  C   UNL     1      44.064   3.122  10.770  0.00  0.00    +0.000 A 
ATOM     12  C   UNL     1      43.408   2.905  11.986  0.00  0.00    +0.000 A 
ATOM     13  C   UNL     1      43.353   3.915  12.940  0.00  0.00    +0.000 A 
ATOM     14  C   UNL     1      43.931   5.152  12.667  0.00  0.00    +0.000 A 
ATOM     15  C   UNL     1      44.575   5.395  11.439  0.00  0.00    +0.000 A 
BRANCH  10  17
ATOM     16  C   UNL     1      45.081   3.868   8.195  0.00  0.00    +0.000 C 
ATOM     17  O   UNL     1      45.385   4.624   9.360  0.00  0.00    +0.000 OA
ENDBRANCH  10  17
ENDBRANCH   9  15
ENDBRANCH   7   9
ENDBRANCH   1   7
BRANCH   4  18
ATOM     18  C   UNL     1      49.072   7.406  16.426  0.00  0.00    +0.000 C 
BRANCH  18  19
ATOM     19  N   UNL     1      50.061   6.407  16.736  0.00  0.00    +0.000 N 
ATOM     20  C   UNL     1      50.262   5.999  18.030  0.00  0.00    +0.000 C 
ATOM     21  O   UNL     1      49.580   6.424  18.960  0.00  0.00    +0.000 OA
ATOM     22  H   UNL     1      50.777   6.232  16.038  0.00  0.00    +0.000 HD
BRANCH  20  23
ATOM     23  C   UNL     1      51.295   4.979  18.246  0.00  0.00    +0.000 A 
ATOM     24  C   UNL     1      52.485   5.328  18.870  0.00  0.00    +0.000 A 
ATOM     25  S   UNL     1      53.550   4.015  19.097  0.00  0.00    +0.000 S 
ATOM     26  C   UNL     1      52.481   2.945  18.316  0.00  0.00    +0.000 A 
ATOM     27  N   UNL     1      52.800   1.632  18.154  0.00  0.00    +0.000 NA
ATOM     28  C   UNL     1      51.911   0.942  17.523  0.00  0.00    +0.000 A 
ATOM     29  N   UNL     1      50.729   1.441  17.043  0.00  0.00    +0.000 N 
ATOM     30  C   UNL     1      50.351   2.753  17.205  0.00  0.00    +0.000 A 
ATOM     31  O   UNL     1      49.274   3.163  16.789  0.00  0.00    +0.000 OA
ATOM     32  C   UNL     1      51.320   3.576  17.905  0.00  0.00    +0.000 A 
ATOM     33  H   UNL     1      50.072   0.847  16.559  0.00  0.00    +0.000 HD
ENDBRANCH  20  23
ENDBRANCH  18  19
ENDBRANCH   4  18
TORSDOF 7
ENDMDL
MODEL 8
REMARK VINA RESULT:    -6.904      3.587      9.234
REMARK INTER + INTRA:         -10.670
REMARK INTER:                  -9.466
REMARK INTRA:                  -1.205
REMARK UNBOUND:                -0.941
REMARK  Name = 
REMARK  8 active torsions:
REMARK  status: ('A' for Active; 'I' for Inactive)
REMARK    1  A    between atoms: C_1  and  O_2
REMARK    2  A    between atoms: O_2  and  C_3
REMARK    3  A    between atoms: C_8  and  C_9
REMARK    4  A    between atoms: C_9  and  N_10
REMARK    5  A    between atoms: N_10  and  C_11
REMARK    6  A    between atoms: C_14  and  C_15
REMARK    7  A    between atoms: C_15  and  N_16
REMARK    8  A    between atoms: C_17  and  C_19
REMARK                            x       y       z     vdW  Elec       q    Type
REMARK                         _______ _______ _______ _____ _____    ______ ____
ROOT
ATOM      1  C   UNL     1      49.015   5.727  19.989  0.00  0.00    +0.000 A 
ATOM      2  C   UNL     1      49.882   4.918  19.240  0.00  0.00    +0.000 A 
ATOM      3  C   UNL     1      49.439   4.237  18.095  0.00  0.00    +0.000 A 
ATOM      4  C   UNL     1      48.106   4.334  17.686  0.00  0.00    +0.000 A 
ATOM      5  C   UNL     1      47.215   5.049  18.490  0.00  0.00    +0.000 A 
ATOM      6  C   UNL     1      47.664   5.723  19.629  0.00  0.00    +0.000 A 
ENDROOT
BRANCH   1   7
ATOM      7  N   UNL     1      49.495   6.385  21.133  0.00  0.00    +0.000 N 
ATOM      8  H   UNL     1      50.246   5.855  21.572  0.00  0.00    +0.000 HD
BRANCH   7   9
ATOM      9  C   UNL     1      49.882   7.795  20.988  0.00  0.00    +0.000 C 
BRANCH   9  15
ATOM     10  C   UNL     1      48.376   9.361  19.634  0.00  0.00    +0.000 A 
ATOM     11  C   UNL     1      47.227  10.156  19.555  0.00  0.00    +0.000 A 
ATOM     12  C   UNL     1      46.335  10.230  20.629  0.00  0.00    +0.000 A 
ATOM     13  C   UNL     1      46.577   9.502  21.789  0.00  0.00    +0.000 A 
ATOM     14  C   UNL     1      47.726   8.721  21.884  0.00  0.00    +0.000 A 
ATOM     15  C   UNL     1      48.646   8.654  20.821  0.00  0.00    +0.000 A 
BRANCH  10  17
ATOM     16  C   UNL     1      48.787   8.489  17.451  0.00  0.00    +0.000 C 
ATOM     17  O   UNL     1      49.259   9.178  18.602  0.00  0.00    +0.000 OA
ENDBRANCH  10  17
ENDBRANCH   9  15
ENDBRANCH   7   9
ENDBRANCH   1   7
BRANCH   4  18
ATOM     18  C   UNL     1      47.614   3.668  16.429  0.00  0.00    +0.000 C 
BRANCH  18  19
ATOM     19  N   UNL     1      46.983   4.606  15.538  0.00  0.00    +0.000 N 
ATOM     20  C   UNL     1      46.801   4.300  14.213  0.00  0.00    +0.000 C 
ATOM     21  O   UNL     1      47.116   3.207  13.749  0.00  0.00    +0.000 OA
ATOM     22  H   UNL     1      46.941   5.575  15.839  0.00  0.00    +0.000 HD
BRANCH  20  23
ATOM     23  C   UNL     1      46.150   5.323  13.385  0.00  0.00    +0.000 A 
ATOM     24  C   UNL     1      46.817   6.508  13.109  0.00  0.00    +0.000 A 
ATOM     25  S   UNL     1      45.949   7.560  12.086  0.00  0.00    +0.000 S 
ATOM     26  C   UNL     1      44.626   6.492  12.022  0.00  0.00    +0.000 A 
ATOM     27  N   UNL     1      43.510   6.802  11.309  0.00  0.00    +0.000 NA
ATOM     28  C   UNL     1      42.575   5.914  11.368  0.00  0.00    +0.000 A 
ATOM     29  N   UNL     1      42.655   4.741  12.072  0.00  0.00    +0.000 N 
ATOM     30  C   UNL     1      43.770   4.372  12.785  0.00  0.00    +0.000 A 
ATOM     31  O   UNL     1      43.822   3.303  13.381  0.00  0.00    +0.000 OA
ATOM     32  C   UNL     1      44.851   5.340  12.755  0.00  0.00    +0.000 A 
ATOM     33  H   UNL     1      41.889   4.084  12.076  0.00  0.00    +0.000 HD
ENDBRANCH  20  23
ENDBRANCH  18  19
ENDBRANCH   4  18
TORSDOF 7
ENDMDL
MODEL 9
REMARK VINA RESULT:    -6.810      3.124      5.190
REMARK INTER + INTRA:         -10.537
REMARK INTER:                  -9.444
REMARK INTRA:                  -1.093
REMARK UNBOUND:                -0.941
REMARK  Name = 
REMARK  8 active torsions:
REMARK  status: ('A' for Active; 'I' for Inactive)
REMARK    1  A    between atoms: C_1  and  O_2
REMARK    2  A    between atoms: O_2  and  C_3
REMARK    3  A    between atoms: C_8  and  C_9
REMARK    4  A    between atoms: C_9  and  N_10
REMARK    5  A    between atoms: N_10  and  C_11
REMARK    6  A    between atoms: C_14  and  C_15
REMARK    7  A    between atoms: C_15  and  N_16
REMARK    8  A    between atoms: C_17  and  C_19
REMARK                            x       y       z     vdW  Elec       q    Type
REMARK                         _______ _______ _______ _____ _____    ______ ____
ROOT
ATOM      1  C   UNL     1      44.806   7.136  11.885  0.00  0.00    +0.000 A 
ATOM      2  C   UNL     1      46.051   7.265  12.520  0.00  0.00    +0.000 A 
ATOM      3  C   UNL     1      46.616   6.202  13.241  0.00  0.00    +0.000 A 
ATOM      4  C   UNL     1      45.934   4.988  13.363  0.00  0.00    +0.000 A 
ATOM      5  C   UNL     1      44.648   4.892  12.826  0.00  0.00    +0.000 A 
ATOM      6  C   UNL     1      44.092   5.956  12.109  0.00  0.00    +0.000 A 
ENDROOT
BRANCH   1   7
ATOM      7  N   UNL     1      44.272   8.227  11.180  0.00  0.00    +0.000 N 
ATOM      8  H   UNL     1      43.265   8.132  11.066  0.00  0.00    +0.000 HD
BRANCH   7   9
ATOM      9  C   UNL     1      44.607   9.573  11.663  0.00  0.00    +0.000 C 
BRANCH   9  15
ATOM     10  C   UNL     1      43.033  10.666   9.965  0.00  0.00    +0.000 A 
ATOM     11  C   UNL     1      42.814  11.622   8.967  0.00  0.00    +0.000 A 
ATOM     12  C   UNL     1      43.820  12.525   8.613  0.00  0.00    +0.000 A 
ATOM     13  C   UNL     1      45.051  12.488   9.258  0.00  0.00    +0.000 A 
ATOM     14  C   UNL     1      45.285  11.530  10.241  0.00  0.00    +0.000 A 
ATOM     15  C   UNL     1      44.290  10.598  10.594  0.00  0.00    +0.000 A 
BRANCH  10  17
ATOM     16  C   UNL     1      40.952  10.351  11.090  0.00  0.00    +0.000 C 
ATOM     17  O   UNL     1      42.077   9.796  10.421  0.00  0.00    +0.000 OA
ENDBRANCH  10  17
ENDBRANCH   9  15
ENDBRANCH   7   9
ENDBRANCH   1   7
BRANCH   4  18
ATOM     18  C   UNL     1      46.539   3.808  14.076  0.00  0.00    +0.000 C 
BRANCH  18  19
ATOM     19  N   UNL     1      47.587   4.208  14.977  0.00  0.00    +0.000 N 
ATOM     20  C   UNL     1      47.468   3.996  16.327  0.00  0.00    +0.000 C 
ATOM     21  O   UNL     1      46.499   3.416  16.812  0.00  0.00    +0.000 OA
ATOM     22  H   UNL     1      48.260   4.886  14.634  0.00  0.00    +0.000 HD
BRANCH  20  23
ATOM     23  C   UNL     1      48.589   4.441  17.165  0.00  0.00    +0.000 A 
ATOM     24  C   UNL     1      48.535   5.685  17.779  0.00  0.00    +0.000 A 
ATOM     25  S   UNL     1      49.886   6.021  18.762  0.00  0.00    +0.000 S 
ATOM     26  C   UNL     1      50.618   4.540  18.356  0.00  0.00    +0.000 A 
ATOM     27  N   UNL     1      51.836   4.199  18.859  0.00  0.00    +0.000 NA
ATOM     28  C   UNL     1      52.282   3.060  18.449  0.00  0.00    +0.000 A 
ATOM     29  N   UNL     1      51.623   2.227  17.584  0.00  0.00    +0.000 N 
ATOM     30  C   UNL     1      50.381   2.515  17.070  0.00  0.00    +0.000 A 
ATOM     31  O   UNL     1      49.804   1.736  16.322  0.00  0.00    +0.000 OA
ATOM     32  C   UNL     1      49.834   3.789  17.497  0.00  0.00    +0.000 A 
ATOM     33  H   UNL     1      52.025   1.346  17.303  0.00  0.00    +0.000 HD
ENDBRANCH  20  23
ENDBRANCH  18  19
ENDBRANCH   4  18
TORSDOF 7
ENDMDL
