MODEL 1
REMARK VINA RESULT:    -8.183      0.000      0.000
REMARK INTER + INTRA:         -12.256
REMARK INTER:                 -11.053
REMARK INTRA:                  -1.203
REMARK UNBOUND:                -1.203
REMARK  Name = 
REMARK  6 active torsions:
REMARK  status: ('A' for Active; 'I' for Inactive)
REMARK    1  A    between atoms: C_2  and  C_25
REMARK    2  A    between atoms: N_3  and  C_4
REMARK    3  A    between atoms: C_4  and  C_5
REMARK    4  A    between atoms: C_8  and  C_9
REMARK    5  A    between atoms: C_9  and  N_10
REMARK    6  A    between atoms: C_11  and  C_13
REMARK                            x       y       z     vdW  Elec       q    Type
REMARK                         _______ _______ _______ _____ _____    ______ ____
ROOT
ATOM      1  C   UNL     1      44.901   5.690  10.806  0.00  0.00    +0.000 A 
ATOM      2  C   UNL     1      44.350   6.128  12.019  0.00  0.00    +0.000 A 
ATOM      3  C   UNL     1      45.089   6.937  12.890  0.00  0.00    +0.000 A 
ATOM      4  C   UNL     1      46.389   7.343  12.559  0.00  0.00    +0.000 A 
ATOM      5  C   UNL     1      46.942   6.899  11.350  0.00  0.00    +0.000 A 
ATOM      6  C   UNL     1      46.203   6.092  10.478  0.00  0.00    +0.000 A 
ENDROOT
BRANCH   1   7
ATOM      7  C   UNL     1      44.113   4.792   9.888  0.00  0.00    +0.000 C 
BRANCH   7  10
ATOM      8  O   UNL     1      45.130   2.210   9.759  0.00  0.00    +0.000 OA
ATOM      9  C   UNL     1      45.351   2.974   8.826  0.00  0.00    +0.000 C 
ATOM     10  N   UNL     1      44.908   4.280   8.792  0.00  0.00    +0.000 N 
ATOM     11  H   UNL     1      44.901   4.790   7.919  0.00  0.00    +0.000 HD
BRANCH   9  12
ATOM     12  C   UNL     1      46.105   2.492   7.643  0.00  0.00    +0.000 A 
ATOM     13  C   UNL     1      46.719   1.240   7.706  0.00  0.00    +0.000 A 
ATOM     14  C   UNL     1      47.439   0.814   6.605  0.00  0.00    +0.000 A 
ATOM     15  N   UNL     1      47.589   1.546   5.481  0.00  0.00    +0.000 NA
ATOM     16  C   UNL     1      47.004   2.764   5.458  0.00  0.00    +0.000 A 
ATOM     17  C   UNL     1      46.256   3.279   6.502  0.00  0.00    +0.000 A 
ENDBRANCH   9  12
ENDBRANCH   7  10
ENDBRANCH   1   7
BRANCH   4  18
ATOM     18  C   UNL     1      47.188   8.222  13.489  0.00  0.00    +0.000 C 
BRANCH  18  19
ATOM     19  N   UNL     1      47.594   7.521  14.681  0.00  0.00    +0.000 N 
ATOM     20  C   UNL     1      48.805   6.873  14.736  0.00  0.00    +0.000 C 
ATOM     21  O   UNL     1      49.595   6.899  13.795  0.00  0.00    +0.000 OA
ATOM     22  H   UNL     1      46.874   7.294  15.361  0.00  0.00    +0.000 HD
BRANCH  20  23
ATOM     23  C   UNL     1      49.139   6.194  15.994  0.00  0.00    +0.000 A 
ATOM     24  C   UNL     1      50.211   6.648  16.753  0.00  0.00    +0.000 A 
ATOM     25  S   UNL     1      50.434   5.788  18.208  0.00  0.00    +0.000 S 
ATOM     26  C   UNL     1      49.140   4.743  17.850  0.00  0.00    +0.000 A 
ATOM     27  N   UNL     1      48.804   3.732  18.696  0.00  0.00    +0.000 NA
ATOM     28  C   UNL     1      47.828   2.995  18.285  0.00  0.00    +0.000 A 
ATOM     29  N   UNL     1      47.152   3.180  17.106  0.00  0.00    +0.000 N 
ATOM     30  C   UNL     1      47.436   4.205  16.234  0.00  0.00    +0.000 A 
ATOM     31  O   UNL     1      46.787   4.367  15.206  0.00  0.00    +0.000 OA
ATOM     32  C   UNL     1      48.535   5.056  16.646  0.00  0.00    +0.000 A 
ATOM     33  H   UNL     1      46.391   2.570  16.845  0.00  0.00    +0.000 HD
ENDBRANCH  20  23
ENDBRANCH  18  19
ENDBRANCH   4  18
TORSDOF 6
ENDMDL
MODEL 2
REMARK VINA RESULT:    -7.839      2.459      2.817
REMARK INTER + INTRA:         -11.791
REMARK INTER:                 -10.780
REMARK INTRA:                  -1.011
REMARK UNBOUND:                -1.203
REMARK  Name = 
REMARK  6 active torsions:
REMARK  status: ('A' for Active; 'I' for Inactive)
REMARK    1  A    between atoms: C_2  and  C_25
REMARK    2  A    between atoms: N_3  and  C_4
REMARK    3  A    between atoms: C_4  and  C_5
REMARK    4  A    between atoms: C_8  and  C_9
REMARK    5  A    between atoms: C_9  and  N_10
REMARK    6  A    between atoms: C_11  and  C_13
REMARK                            x       y       z     vdW  Elec       q    Type
REMARK                         _______ _______ _______ _____ _____    ______ ____
ROOT
ATOM      1  C   UNL     1      45.430   4.602  11.788  0.00  0.00    +0.000 A 
ATOM      2  C   UNL     1      45.947   4.081  12.983  0.00  0.00    +0.000 A 
ATOM      3  C   UNL     1      46.855   4.819  13.752  0.00  0.00    +0.000 A 
ATOM      4  C   UNL     1      47.250   6.103  13.353  0.00  0.00    +0.000 A 
ATOM      5  C   UNL     1      46.737   6.620  12.156  0.00  0.00    +0.000 A 
ATOM      6  C   UNL     1      45.829   5.884  11.388  0.00  0.00    +0.000 A 
ENDROOT
BRANCH   1   7
ATOM      7  C   UNL     1      44.479   3.789  10.947  0.00  0.00    +0.000 C 
BRANCH   7  10
ATOM      8  O   UNL     1      44.979   4.614   8.343  0.00  0.00    +0.000 OA
ATOM      9  C   UNL     1      45.366   3.504   8.690  0.00  0.00    +0.000 C 
ATOM     10  N   UNL     1      45.159   2.988   9.953  0.00  0.00    +0.000 N 
ATOM     11  H   UNL     1      45.693   2.189  10.268  0.00  0.00    +0.000 HD
BRANCH   9  12
ATOM     12  C   UNL     1      46.127   2.657   7.738  0.00  0.00    +0.000 A 
ATOM     13  C   UNL     1      46.364   1.323   8.071  0.00  0.00    +0.000 A 
ATOM     14  C   UNL     1      47.096   0.553   7.187  0.00  0.00    +0.000 A 
ATOM     15  N   UNL     1      47.600   1.025   6.026  0.00  0.00    +0.000 NA
ATOM     16  C   UNL     1      47.375   2.326   5.742  0.00  0.00    +0.000 A 
ATOM     17  C   UNL     1      46.649   3.178   6.555  0.00  0.00    +0.000 A 
ENDBRANCH   9  12
ENDBRANCH   7  10
ENDBRANCH   1   7
BRANCH   4  18
ATOM     18  C   UNL     1      48.220   6.907  14.182  0.00  0.00    +0.000 C 
BRANCH  18  19
ATOM     19  N   UNL     1      48.020   6.709  15.596  0.00  0.00    +0.000 N 
ATOM     20  C   UNL     1      49.064   6.336  16.406  0.00  0.00    +0.000 C 
ATOM     21  O   UNL     1      50.205   6.196  15.969  0.00  0.00    +0.000 OA
ATOM     22  H   UNL     1      47.065   6.590  15.921  0.00  0.00    +0.000 HD
BRANCH  20  23
ATOM     23  C   UNL     1      48.769   6.166  17.835  0.00  0.00    +0.000 A 
ATOM     24  C   UNL     1      49.024   4.945  18.447  0.00  0.00    +0.000 A 
ATOM     25  S   UNL     1      48.679   4.930  20.116  0.00  0.00    +0.000 S 
ATOM     26  C   UNL     1      48.123   6.537  20.070  0.00  0.00    +0.000 A 
ATOM     27  N   UNL     1      47.648   7.144  21.191  0.00  0.00    +0.000 NA
ATOM     28  C   UNL     1      47.227   8.350  21.006  0.00  0.00    +0.000 A 
ATOM     29  N   UNL     1      47.244   9.008  19.802  0.00  0.00    +0.000 N 
ATOM     30  C   UNL     1      47.742   8.445  18.650  0.00  0.00    +0.000 A 
ATOM     31  O   UNL     1      47.778   9.074  17.597  0.00  0.00    +0.000 OA
ATOM     32  C   UNL     1      48.217   7.084  18.802  0.00  0.00    +0.000 A 
ATOM     33  H   UNL     1      46.904   9.955  19.726  0.00  0.00    +0.000 HD
ENDBRANCH  20  23
ENDBRANCH  18  19
ENDBRANCH   4  18
TORSDOF 6
ENDMDL
MODEL 3
REMARK VINA RESULT:    -7.697      1.977      2.166
REMARK INTER + INTRA:         -11.600
REMARK INTER:                 -10.628
REMARK INTRA:                  -0.972
REMARK UNBOUND:                -1.203
REMARK  Name = 
REMARK  6 active torsions:
REMARK  status: ('A' for Active; 'I' for Inactive)
REMARK    1  A    between atoms: C_2  and  C_25
REMARK    2  A    between atoms: N_3  and  C_4
REMARK    3  A    between atoms: C_4  and  C_5
REMARK    4  A    between atoms: C_8  and  C_9
REMARK    5  A    between atoms: C_9  and  N_10
REMARK    6  A    between atoms: C_11  and  C_13
REMARK                            x       y       z     vdW  Elec       q    Type
REMARK                         _______ _______ _______ _____ _____    ______ ____
ROOT
ATOM      1  C   UNL     1      45.456   4.643  11.750  0.00  0.00    +0.000 A 
ATOM      2  C   UNL     1      46.032   4.126  12.919  0.00  0.00    +0.000 A 
ATOM      3  C   UNL     1      46.952   4.879  13.658  0.00  0.00    +0.000 A 
ATOM      4  C   UNL     1      47.301   6.175  13.255  0.00  0.00    +0.000 A 
ATOM      5  C   UNL     1      46.730   6.689  12.083  0.00  0.00    +0.000 A 
ATOM      6  C   UNL     1      45.810   5.937  11.345  0.00  0.00    +0.000 A 
ENDROOT
BRANCH   1   7
ATOM      7  C   UNL     1      44.492   3.814  10.940  0.00  0.00    +0.000 C 
BRANCH   7  10
ATOM      8  O   UNL     1      44.964   4.603   8.320  0.00  0.00    +0.000 OA
ATOM      9  C   UNL     1      45.350   3.495   8.676  0.00  0.00    +0.000 C 
ATOM     10  N   UNL     1      45.157   2.997   9.948  0.00  0.00    +0.000 N 
ATOM     11  H   UNL     1      45.691   2.200  10.266  0.00  0.00    +0.000 HD
BRANCH   9  12
ATOM     12  C   UNL     1      46.095   2.634   7.725  0.00  0.00    +0.000 A 
ATOM     13  C   UNL     1      46.357   1.311   8.086  0.00  0.00    +0.000 A 
ATOM     14  C   UNL     1      47.074   0.527   7.202  0.00  0.00    +0.000 A 
ATOM     15  N   UNL     1      47.541   0.974   6.017  0.00  0.00    +0.000 NA
ATOM     16  C   UNL     1      47.294   2.264   5.705  0.00  0.00    +0.000 A 
ATOM     17  C   UNL     1      46.580   3.129   6.516  0.00  0.00    +0.000 A 
ENDBRANCH   9  12
ENDBRANCH   7  10
ENDBRANCH   1   7
BRANCH   4  18
ATOM     18  C   UNL     1      48.285   6.996  14.051  0.00  0.00    +0.000 C 
BRANCH  18  19
ATOM     19  N   UNL     1      48.125   6.805  15.472  0.00  0.00    +0.000 N 
ATOM     20  C   UNL     1      48.756   7.635  16.366  0.00  0.00    +0.000 C 
ATOM     21  O   UNL     1      49.441   8.585  15.994  0.00  0.00    +0.000 OA
ATOM     22  H   UNL     1      47.767   5.908  15.786  0.00  0.00    +0.000 HD
BRANCH  20  23
ATOM     23  C   UNL     1      48.527   7.371  17.792  0.00  0.00    +0.000 A 
ATOM     24  C   UNL     1      48.066   8.393  18.612  0.00  0.00    +0.000 A 
ATOM     25  S   UNL     1      47.801   7.911  20.226  0.00  0.00    +0.000 S 
ATOM     26  C   UNL     1      48.346   6.333  19.900  0.00  0.00    +0.000 A 
ATOM     27  N   UNL     1      48.399   5.395  20.884  0.00  0.00    +0.000 NA
ATOM     28  C   UNL     1      48.866   4.252  20.506  0.00  0.00    +0.000 A 
ATOM     29  N   UNL     1      49.278   3.959  19.231  0.00  0.00    +0.000 N 
ATOM     30  C   UNL     1      49.214   4.866  18.198  0.00  0.00    +0.000 A 
ATOM     31  O   UNL     1      49.555   4.560  17.060  0.00  0.00    +0.000 OA
ATOM     32  C   UNL     1      48.708   6.171  18.574  0.00  0.00    +0.000 A 
ATOM     33  H   UNL     1      49.628   3.041  18.999  0.00  0.00    +0.000 HD
ENDBRANCH  20  23
ENDBRANCH  18  19
ENDBRANCH   4  18
TORSDOF 6
ENDMDL
MODEL 4
REMARK VINA RESULT:    -7.007      3.132      4.941
REMARK INTER + INTRA:         -10.668
REMARK INTER:                  -9.871
REMARK INTRA:                  -0.797
REMARK UNBOUND:                -1.203
REMARK  Name = 
REMARK  6 active torsions:
REMARK  status: ('A' for Active; 'I' for Inactive)
REMARK    1  A    between atoms: C_2  and  C_25
REMARK    2  A    between atoms: N_3  and  C_4
REMARK    3  A    between atoms: C_4  and  C_5
REMARK    4  A    between atoms: C_8  and  C_9
REMARK    5  A    between atoms: C_9  and  N_10
REMARK    6  A    between atoms: C_11  and  C_13
REMARK                            x       y       z     vdW  Elec       q    Type
REMARK                         _______ _______ _______ _____ _____    ______ ____
ROOT
ATOM      1  C   UNL     1      45.006   4.756  11.344  0.00  0.00    +0.000 A 
ATOM      2  C   UNL     1      45.341   3.921  12.419  0.00  0.00    +0.000 A 
ATOM      3  C   UNL     1      46.243   4.345  13.402  0.00  0.00    +0.000 A 
ATOM      4  C   UNL     1      46.814   5.624  13.342  0.00  0.00    +0.000 A 
ATOM      5  C   UNL     1      46.483   6.456  12.265  0.00  0.00    +0.000 A 
ATOM      6  C   UNL     1      45.581   6.032  11.283  0.00  0.00    +0.000 A 
ENDROOT
BRANCH   1   7
ATOM      7  C   UNL     1      44.061   4.281  10.271  0.00  0.00    +0.000 C 
BRANCH   7  10
ATOM      8  O   UNL     1      45.761   5.013   8.201  0.00  0.00    +0.000 OA
ATOM      9  C   UNL     1      45.521   3.823   8.368  0.00  0.00    +0.000 C 
ATOM     10  N   UNL     1      44.681   3.348   9.355  0.00  0.00    +0.000 N 
ATOM     11  H   UNL     1      44.700   2.371   9.609  0.00  0.00    +0.000 HD
BRANCH   9  12
ATOM     12  C   UNL     1      46.176   2.810   7.503  0.00  0.00    +0.000 A 
ATOM     13  C   UNL     1      46.409   1.537   8.024  0.00  0.00    +0.000 A 
ATOM     14  C   UNL     1      47.043   0.611   7.216  0.00  0.00    +0.000 A 
ATOM     15  N   UNL     1      47.456   0.876   5.958  0.00  0.00    +0.000 NA
ATOM     16  C   UNL     1      47.239   2.124   5.490  0.00  0.00    +0.000 A 
ATOM     17  C   UNL     1      46.607   3.120   6.214  0.00  0.00    +0.000 A 
ENDBRANCH   9  12
ENDBRANCH   7  10
ENDBRANCH   1   7
BRANCH   4  18
ATOM     18  C   UNL     1      47.779   6.092  14.403  0.00  0.00    +0.000 C 
BRANCH  18  19
ATOM     19  N   UNL     1      48.872   6.849  13.845  0.00  0.00    +0.000 N 
ATOM     20  C   UNL     1      48.946   8.209  14.025  0.00  0.00    +0.000 C 
ATOM     21  O   UNL     1      48.115   8.819  14.694  0.00  0.00    +0.000 OA
ATOM     22  H   UNL     1      49.420   6.410  13.112  0.00  0.00    +0.000 HD
BRANCH  20  23
ATOM     23  C   UNL     1      50.099   8.897  13.430  0.00  0.00    +0.000 A 
ATOM     24  C   UNL     1      51.362   8.718  13.981  0.00  0.00    +0.000 A 
ATOM     25  S   UNL     1      52.598   9.540  13.143  0.00  0.00    +0.000 S 
ATOM     26  C   UNL     1      51.483  10.209  12.046  0.00  0.00    +0.000 A 
ATOM     27  N   UNL     1      51.892  11.051  11.059  0.00  0.00    +0.000 NA
ATOM     28  C   UNL     1      50.938  11.512  10.322  0.00  0.00    +0.000 A 
ATOM     29  N   UNL     1      49.611  11.202  10.478  0.00  0.00    +0.000 N 
ATOM     30  C   UNL     1      49.154  10.333  11.441  0.00  0.00    +0.000 A 
ATOM     31  O   UNL     1      47.964  10.047  11.529  0.00  0.00    +0.000 OA
ATOM     32  C   UNL     1      50.187   9.796  12.305  0.00  0.00    +0.000 A 
ATOM     33  H   UNL     1      48.913  11.593   9.861  0.00  0.00    +0.000 HD
ENDBRANCH  20  23
ENDBRANCH  18  19
ENDBRANCH   4  18
TORSDOF 6
ENDMDL
MODEL 5
REMARK VINA RESULT:    -6.828      4.365      7.097
REMARK INTER + INTRA:         -10.425
REMARK INTER:                  -9.447
REMARK INTRA:                  -0.978
REMARK UNBOUND:                -1.203
REMARK  Name = 
REMARK  6 active torsions:
REMARK  status: ('A' for Active; 'I' for Inactive)
REMARK    1  A    between atoms: C_2  and  C_25
REMARK    2  A    between atoms: N_3  and  C_4
REMARK    3  A    between atoms: C_4  and  C_5
REMARK    4  A    between atoms: C_8  and  C_9
REMARK    5  A    between atoms: C_9  and  N_10
REMARK    6  A    between atoms: C_11  and  C_13
REMARK                            x       y       z     vdW  Elec       q    Type
REMARK                         _______ _______ _______ _____ _____    ______ ____
ROOT
ATOM      1  C   UNL     1      44.961   9.261  11.872  0.00  0.00    +0.000 A 
ATOM      2  C   UNL     1      46.050   9.132  12.746  0.00  0.00    +0.000 A 
ATOM      3  C   UNL     1      46.499   7.869  13.148  0.00  0.00    +0.000 A 
ATOM      4  C   UNL     1      45.883   6.705  12.668  0.00  0.00    +0.000 A 
ATOM      5  C   UNL     1      44.792   6.835  11.798  0.00  0.00    +0.000 A 
ATOM      6  C   UNL     1      44.343   8.097  11.395  0.00  0.00    +0.000 A 
ENDROOT
BRANCH   1   7
ATOM      7  C   UNL     1      44.461  10.625  11.469  0.00  0.00    +0.000 C 
BRANCH   7  10
ATOM      8  O   UNL     1      42.160  10.526   9.917  0.00  0.00    +0.000 OA
ATOM      9  C   UNL     1      42.053  10.807  11.106  0.00  0.00    +0.000 C 
ATOM     10  N   UNL     1      43.129  10.898  11.965  0.00  0.00    +0.000 N 
ATOM     11  H   UNL     1      42.981  10.891  12.964  0.00  0.00    +0.000 HD
BRANCH   9  12
ATOM     12  C   UNL     1      40.708  11.035  11.691  0.00  0.00    +0.000 A 
ATOM     13  C   UNL     1      40.580  11.956  12.731  0.00  0.00    +0.000 A 
ATOM     14  C   UNL     1      39.326  12.141  13.284  0.00  0.00    +0.000 A 
ATOM     15  N   UNL     1      38.226  11.472  12.879  0.00  0.00    +0.000 NA
ATOM     16  C   UNL     1      38.385  10.569  11.888  0.00  0.00    +0.000 A 
ATOM     17  C   UNL     1      39.594  10.316  11.263  0.00  0.00    +0.000 A 
ENDBRANCH   9  12
ENDBRANCH   7  10
ENDBRANCH   1   7
BRANCH   4  18
ATOM     18  C   UNL     1      46.368   5.340  13.089  0.00  0.00    +0.000 C 
BRANCH  18  19
ATOM     19  N   UNL     1      46.910   5.346  14.425  0.00  0.00    +0.000 N 
ATOM     20  C   UNL     1      47.376   4.188  14.998  0.00  0.00    +0.000 C 
ATOM     21  O   UNL     1      47.384   3.122  14.387  0.00  0.00    +0.000 OA
ATOM     22  H   UNL     1      46.697   6.147  15.014  0.00  0.00    +0.000 HD
BRANCH  20  23
ATOM     23  C   UNL     1      47.919   4.292  16.359  0.00  0.00    +0.000 A 
ATOM     24  C   UNL     1      47.476   3.415  17.341  0.00  0.00    +0.000 A 
ATOM     25  S   UNL     1      48.243   3.631  18.849  0.00  0.00    +0.000 S 
ATOM     26  C   UNL     1      49.154   4.940  18.257  0.00  0.00    +0.000 A 
ATOM     27  N   UNL     1      50.017   5.613  19.066  0.00  0.00    +0.000 NA
ATOM     28  C   UNL     1      50.616   6.605  18.498  0.00  0.00    +0.000 A 
ATOM     29  N   UNL     1      50.437   6.982  17.192  0.00  0.00    +0.000 N 
ATOM     30  C   UNL     1      49.598   6.315  16.329  0.00  0.00    +0.000 A 
ATOM     31  O   UNL     1      49.489   6.654  15.156  0.00  0.00    +0.000 OA
ATOM     32  C   UNL     1      48.891   5.198  16.923  0.00  0.00    +0.000 A 
ATOM     33  H   UNL     1      50.942   7.766  16.806  0.00  0.00    +0.000 HD
ENDBRANCH  20  23
ENDBRANCH  18  19
ENDBRANCH   4  18
TORSDOF 6
ENDMDL
MODEL 6
REMARK VINA RESULT:    -6.781      3.271      8.836
REMARK INTER + INTRA:         -10.362
REMARK INTER:                  -9.389
REMARK INTRA:                  -0.973
REMARK UNBOUND:                -1.203
REMARK  Name = 
REMARK  6 active torsions:
REMARK  status: ('A' for Active; 'I' for Inactive)
REMARK    1  A    between atoms: C_2  and  C_25
REMARK    2  A    between atoms: N_3  and  C_4
REMARK    3  A    between atoms: C_4  and  C_5
REMARK    4  A    between atoms: C_8  and  C_9
REMARK    5  A    between atoms: C_9  and  N_10
REMARK    6  A    between atoms: C_11  and  C_13
REMARK                            x       y       z     vdW  Elec       q    Type
REMARK                         _______ _______ _______ _____ _____    ______ ____
ROOT
ATOM      1  C   UNL     1      50.519   7.317  15.446  0.00  0.00    +0.000 A 
ATOM      2  C   UNL     1      49.230   6.769  15.503  0.00  0.00    +0.000 A 
ATOM      3  C   UNL     1      48.340   6.916  14.433  0.00  0.00    +0.000 A 
ATOM      4  C   UNL     1      48.727   7.599  13.272  0.00  0.00    +0.000 A 
ATOM      5  C   UNL     1      50.014   8.152  13.217  0.00  0.00    +0.000 A 
ATOM      6  C   UNL     1      50.904   8.004  14.287  0.00  0.00    +0.000 A 
ENDROOT
BRANCH   1   7
ATOM      7  C   UNL     1      51.460   7.184  16.616  0.00  0.00    +0.000 C 
BRANCH   7  10
ATOM      8  O   UNL     1      50.396   5.393  18.451  0.00  0.00    +0.000 OA
ATOM      9  C   UNL     1      51.318   5.019  17.736  0.00  0.00    +0.000 C 
ATOM     10  N   UNL     1      51.930   5.828  16.801  0.00  0.00    +0.000 N 
ATOM     11  H   UNL     1      52.507   5.420  16.078  0.00  0.00    +0.000 HD
BRANCH   9  12
ATOM     12  C   UNL     1      51.804   3.620  17.831  0.00  0.00    +0.000 A 
ATOM     13  C   UNL     1      50.953   2.588  17.430  0.00  0.00    +0.000 A 
ATOM     14  C   UNL     1      51.409   1.289  17.548  0.00  0.00    +0.000 A 
ATOM     15  N   UNL     1      52.625   0.965  18.039  0.00  0.00    +0.000 NA
ATOM     16  C   UNL     1      53.416   1.982  18.441  0.00  0.00    +0.000 A 
ATOM     17  C   UNL     1      53.058   3.317  18.358  0.00  0.00    +0.000 A 
ENDBRANCH   9  12
ENDBRANCH   7  10
ENDBRANCH   1   7
BRANCH   4  18
ATOM     18  C   UNL     1      47.778   7.754  12.110  0.00  0.00    +0.000 C 
BRANCH  18  19
ATOM     19  N   UNL     1      47.059   6.536  11.831  0.00  0.00    +0.000 N 
ATOM     20  C   UNL     1      45.701   6.463  12.023  0.00  0.00    +0.000 C 
ATOM     21  O   UNL     1      45.048   7.434  12.398  0.00  0.00    +0.000 OA
ATOM     22  H   UNL     1      47.601   5.680  11.752  0.00  0.00    +0.000 HD
BRANCH  20  23
ATOM     23  C   UNL     1      45.052   5.185  11.704  0.00  0.00    +0.000 A 
ATOM     24  C   UNL     1      44.350   4.507  12.692  0.00  0.00    +0.000 A 
ATOM     25  S   UNL     1      43.612   3.070  12.147  0.00  0.00    +0.000 S 
ATOM     26  C   UNL     1      44.251   3.273  10.583  0.00  0.00    +0.000 A 
ATOM     27  N   UNL     1      44.013   2.356   9.607  0.00  0.00    +0.000 NA
ATOM     28  C   UNL     1      44.587   2.616   8.481  0.00  0.00    +0.000 A 
ATOM     29  N   UNL     1      45.371   3.715   8.238  0.00  0.00    +0.000 N 
ATOM     30  C   UNL     1      45.615   4.683   9.185  0.00  0.00    +0.000 A 
ATOM     31  O   UNL     1      46.290   5.674   8.925  0.00  0.00    +0.000 OA
ATOM     32  C   UNL     1      45.001   4.431  10.474  0.00  0.00    +0.000 A 
ATOM     33  H   UNL     1      45.787   3.863   7.330  0.00  0.00    +0.000 HD
ENDBRANCH  20  23
ENDBRANCH  18  19
ENDBRANCH   4  18
TORSDOF 6
ENDMDL
MODEL 7
REMARK VINA RESULT:    -6.749      4.400      6.795
REMARK INTER + INTRA:         -10.319
REMARK INTER:                  -9.565
REMARK INTRA:                  -0.755
REMARK UNBOUND:                -1.203
REMARK  Name = 
REMARK  6 active torsions:
REMARK  status: ('A' for Active; 'I' for Inactive)
REMARK    1  A    between atoms: C_2  and  C_25
REMARK    2  A    between atoms: N_3  and  C_4
REMARK    3  A    between atoms: C_4  and  C_5
REMARK    4  A    between atoms: C_8  and  C_9
REMARK    5  A    between atoms: C_9  and  N_10
REMARK    6  A    between atoms: C_11  and  C_13
REMARK                            x       y       z     vdW  Elec       q    Type
REMARK                         _______ _______ _______ _____ _____    ______ ____
ROOT
ATOM      1  C   UNL     1      45.031   8.113  11.854  0.00  0.00    +0.000 A 
ATOM      2  C   UNL     1      46.225   8.110  12.589  0.00  0.00    +0.000 A 
ATOM      3  C   UNL     1      46.614   6.981  13.318  0.00  0.00    +0.000 A 
ATOM      4  C   UNL     1      45.827   5.821  13.313  0.00  0.00    +0.000 A 
ATOM      5  C   UNL     1      44.631   5.827  12.583  0.00  0.00    +0.000 A 
ATOM      6  C   UNL     1      44.242   6.955  11.853  0.00  0.00    +0.000 A 
ENDROOT
BRANCH   1   7
ATOM      7  C   UNL     1      44.600   9.344  11.098  0.00  0.00    +0.000 C 
BRANCH   7  10
ATOM      8  O   UNL     1      43.440  11.809  11.636  0.00  0.00    +0.000 OA
ATOM      9  C   UNL     1      42.707  10.847  11.438  0.00  0.00    +0.000 C 
ATOM     10  N   UNL     1      43.174   9.576  11.176  0.00  0.00    +0.000 N 
ATOM     11  H   UNL     1      42.555   8.879  10.786  0.00  0.00    +0.000 HD
BRANCH   9  12
ATOM     12  C   UNL     1      41.234  11.031  11.441  0.00  0.00    +0.000 A 
ATOM     13  C   UNL     1      40.619  11.480  12.610  0.00  0.00    +0.000 A 
ATOM     14  C   UNL     1      39.244  11.623  12.607  0.00  0.00    +0.000 A 
ATOM     15  N   UNL     1      38.466  11.342  11.539  0.00  0.00    +0.000 NA
ATOM     16  C   UNL     1      39.087  10.886  10.430  0.00  0.00    +0.000 A 
ATOM     17  C   UNL     1      40.457  10.716  10.328  0.00  0.00    +0.000 A 
ENDBRANCH   9  12
ENDBRANCH   7  10
ENDBRANCH   1   7
BRANCH   4  18
ATOM     18  C   UNL     1      46.245   4.597  14.089  0.00  0.00    +0.000 C 
BRANCH  18  19
ATOM     19  N   UNL     1      47.343   4.871  14.982  0.00  0.00    +0.000 N 
ATOM     20  C   UNL     1      47.387   4.306  16.234  0.00  0.00    +0.000 C 
ATOM     21  O   UNL     1      46.521   3.524  16.621  0.00  0.00    +0.000 OA
ATOM     22  H   UNL     1      47.926   5.677  14.776  0.00  0.00    +0.000 HD
BRANCH  20  23
ATOM     23  C   UNL     1      48.548   4.634  17.071  0.00  0.00    +0.000 A 
ATOM     24  C   UNL     1      48.627   5.882  17.675  0.00  0.00    +0.000 A 
ATOM     25  S   UNL     1      50.007   6.084  18.655  0.00  0.00    +0.000 S 
ATOM     26  C   UNL     1      50.579   4.530  18.262  0.00  0.00    +0.000 A 
ATOM     27  N   UNL     1      51.758   4.073  18.761  0.00  0.00    +0.000 NA
ATOM     28  C   UNL     1      52.088   2.894  18.354  0.00  0.00    +0.000 A 
ATOM     29  N   UNL     1      51.341   2.126  17.497  0.00  0.00    +0.000 N 
ATOM     30  C   UNL     1      50.129   2.534  16.991  0.00  0.00    +0.000 A 
ATOM     31  O   UNL     1      49.467   1.808  16.257  0.00  0.00    +0.000 OA
ATOM     32  C   UNL     1      49.719   3.860  17.410  0.00  0.00    +0.000 A 
ATOM     33  H   UNL     1      51.654   1.206  17.221  0.00  0.00    +0.000 HD
ENDBRANCH  20  23
ENDBRANCH  18  19
ENDBRANCH   4  18
TORSDOF 6
ENDMDL
MODEL 8
REMARK VINA RESULT:    -6.605      3.650      8.650
REMARK INTER + INTRA:         -10.124
REMARK INTER:                  -9.104
REMARK INTRA:                  -1.020
REMARK UNBOUND:                -1.203
REMARK  Name = 
REMARK  6 active torsions:
REMARK  status: ('A' for Active; 'I' for Inactive)
REMARK    1  A    between atoms: C_2  and  C_25
REMARK    2  A    between atoms: N_3  and  C_4
REMARK    3  A    between atoms: C_4  and  C_5
REMARK    4  A    between atoms: C_8  and  C_9
REMARK    5  A    between atoms: C_9  and  N_10
REMARK    6  A    between atoms: C_11  and  C_13
REMARK                            x       y       z     vdW  Elec       q    Type
REMARK                         _______ _______ _______ _____ _____    ______ ____
ROOT
ATOM      1  C   UNL     1      49.694   6.276  16.668  0.00  0.00    +0.000 A 
ATOM      2  C   UNL     1      50.536   7.111  15.921  0.00  0.00    +0.000 A 
ATOM      3  C   UNL     1      50.180   7.516  14.629  0.00  0.00    +0.000 A 
ATOM      4  C   UNL     1      48.963   7.112  14.064  0.00  0.00    +0.000 A 
ATOM      5  C   UNL     1      48.124   6.272  14.809  0.00  0.00    +0.000 A 
ATOM      6  C   UNL     1      48.479   5.868  16.100  0.00  0.00    +0.000 A 
ENDROOT
BRANCH   1   7
ATOM      7  C   UNL     1      50.098   5.815  18.045  0.00  0.00    +0.000 C 
BRANCH   7  10
ATOM      8  O   UNL     1      49.849   3.060  17.806  0.00  0.00    +0.000 OA
ATOM      9  C   UNL     1      50.973   3.541  17.884  0.00  0.00    +0.000 C 
ATOM     10  N   UNL     1      51.213   4.893  18.019  0.00  0.00    +0.000 N 
ATOM     11  H   UNL     1      52.135   5.265  17.839  0.00  0.00    +0.000 HD
BRANCH   9  12
ATOM     12  C   UNL     1      52.161   2.656  17.799  0.00  0.00    +0.000 A 
ATOM     13  C   UNL     1      53.430   3.232  17.867  0.00  0.00    +0.000 A 
ATOM     14  C   UNL     1      54.528   2.399  17.762  0.00  0.00    +0.000 A 
ATOM     15  N   UNL     1      54.438   1.063  17.585  0.00  0.00    +0.000 NA
ATOM     16  C   UNL     1      53.197   0.537  17.497  0.00  0.00    +0.000 A 
ATOM     17  C   UNL     1      52.035   1.282  17.599  0.00  0.00    +0.000 A 
ENDBRANCH   9  12
ENDBRANCH   7  10
ENDBRANCH   1   7
BRANCH   4  18
ATOM     18  C   UNL     1      48.569   7.553  12.676  0.00  0.00    +0.000 C 
BRANCH  18  19
ATOM     19  N   UNL     1      47.802   6.546  11.985  0.00  0.00    +0.000 N 
ATOM     20  C   UNL     1      46.490   6.771  11.648  0.00  0.00    +0.000 C 
ATOM     21  O   UNL     1      45.936   7.842  11.885  0.00  0.00    +0.000 OA
ATOM     22  H   UNL     1      48.162   5.595  11.995  0.00  0.00    +0.000 HD
BRANCH  20  23
ATOM     23  C   UNL     1      45.792   5.693  10.937  0.00  0.00    +0.000 A 
ATOM     24  C   UNL     1      45.886   5.612   9.553  0.00  0.00    +0.000 A 
ATOM     25  S   UNL     1      45.064   4.275   8.887  0.00  0.00    +0.000 S 
ATOM     26  C   UNL     1      44.506   3.787  10.418  0.00  0.00    +0.000 A 
ATOM     27  N   UNL     1      43.707   2.695  10.555  0.00  0.00    +0.000 NA
ATOM     28  C   UNL     1      43.328   2.461  11.767  0.00  0.00    +0.000 A 
ATOM     29  N   UNL     1      43.682   3.215  12.856  0.00  0.00    +0.000 N 
ATOM     30  C   UNL     1      44.512   4.309  12.770  0.00  0.00    +0.000 A 
ATOM     31  O   UNL     1      44.841   4.940  13.769  0.00  0.00    +0.000 OA
ATOM     32  C   UNL     1      44.956   4.622  11.426  0.00  0.00    +0.000 A 
ATOM     33  H   UNL     1      43.356   2.973  13.781  0.00  0.00    +0.000 HD
ENDBRANCH  20  23
ENDBRANCH  18  19
ENDBRANCH   4  18
TORSDOF 6
ENDMDL
MODEL 9
REMARK VINA RESULT:    -6.382      4.534     10.941
REMARK INTER + INTRA:          -9.823
REMARK INTER:                  -8.978
REMARK INTRA:                  -0.845
REMARK UNBOUND:                -1.203
REMARK  Name = 
REMARK  6 active torsions:
REMARK  status: ('A' for Active; 'I' for Inactive)
REMARK    1  A    between atoms: C_2  and  C_25
REMARK    2  A    between atoms: N_3  and  C_4
REMARK    3  A    between atoms: C_4  and  C_5
REMARK    4  A    between atoms: C_8  and  C_9
REMARK    5  A    between atoms: C_9  and  N_10
REMARK    6  A    between atoms: C_11  and  C_13
REMARK                            x       y       z     vdW  Elec       q    Type
REMARK                         _______ _______ _______ _____ _____    ______ ____
ROOT
ATOM      1  C   UNL     1      48.529   5.562  20.296  0.00  0.00    +0.000 A 
ATOM      2  C   UNL     1      49.322   4.544  19.747  0.00  0.00    +0.000 A 
ATOM      3  C   UNL     1      48.943   3.898  18.565  0.00  0.00    +0.000 A 
ATOM      4  C   UNL     1      47.770   4.269  17.893  0.00  0.00    +0.000 A 
ATOM      5  C   UNL     1      46.974   5.282  18.445  0.00  0.00    +0.000 A 
ATOM      6  C   UNL     1      47.354   5.930  19.626  0.00  0.00    +0.000 A 
ENDROOT
BRANCH   1   7
ATOM      7  C   UNL     1      48.926   6.231  21.587  0.00  0.00    +0.000 C 
BRANCH   7  10
ATOM      8  O   UNL     1      49.803   8.765  20.863  0.00  0.00    +0.000 OA
ATOM      9  C   UNL     1      48.715   8.657  21.417  0.00  0.00    +0.000 C 
ATOM     10  N   UNL     1      48.188   7.451  21.832  0.00  0.00    +0.000 N 
ATOM     11  H   UNL     1      47.206   7.378  22.057  0.00  0.00    +0.000 HD
BRANCH   9  12
ATOM     12  C   UNL     1      47.880   9.864  21.640  0.00  0.00    +0.000 A 
ATOM     13  C   UNL     1      46.499   9.762  21.469  0.00  0.00    +0.000 A 
ATOM     14  C   UNL     1      45.735  10.899  21.655  0.00  0.00    +0.000 A 
ATOM     15  N   UNL     1      46.255  12.102  21.981  0.00  0.00    +0.000 NA
ATOM     16  C   UNL     1      47.597  12.176  22.116  0.00  0.00    +0.000 A 
ATOM     17  C   UNL     1      48.448  11.096  21.959  0.00  0.00    +0.000 A 
ENDBRANCH   9  12
ENDBRANCH   7  10
ENDBRANCH   1   7
BRANCH   4  18
ATOM     18  C   UNL     1      47.360   3.584  16.614  0.00  0.00    +0.000 C 
BRANCH  18  19
ATOM     19  N   UNL     1      46.765   4.502  15.674  0.00  0.00    +0.000 N 
ATOM     20  C   UNL     1      46.787   4.238  14.326  0.00  0.00    +0.000 C 
ATOM     21  O   UNL     1      47.274   3.202  13.878  0.00  0.00    +0.000 OA
ATOM     22  H   UNL     1      46.577   5.447  15.997  0.00  0.00    +0.000 HD
BRANCH  20  23
ATOM     23  C   UNL     1      46.149   5.224  13.445  0.00  0.00    +0.000 A 
ATOM     24  C   UNL     1      46.788   6.431  13.192  0.00  0.00    +0.000 A 
ATOM     25  S   UNL     1      45.943   7.441  12.109  0.00  0.00    +0.000 S 
ATOM     26  C   UNL     1      44.665   6.324  11.983  0.00  0.00    +0.000 A 
ATOM     27  N   UNL     1      43.578   6.592  11.210  0.00  0.00    +0.000 NA
ATOM     28  C   UNL     1      42.669   5.675  11.234  0.00  0.00    +0.000 A 
ATOM     29  N   UNL     1      42.752   4.511  11.954  0.00  0.00    +0.000 N 
ATOM     30  C   UNL     1      43.844   4.185  12.725  0.00  0.00    +0.000 A 
ATOM     31  O   UNL     1      43.903   3.118  13.327  0.00  0.00    +0.000 OA
ATOM     32  C   UNL     1      44.889   5.189  12.742  0.00  0.00    +0.000 A 
ATOM     33  H   UNL     1      42.007   3.831  11.924  0.00  0.00    +0.000 HD
ENDBRANCH  20  23
ENDBRANCH  18  19
ENDBRANCH   4  18
TORSDOF 6
ENDMDL
