MODEL 1
REMARK VINA RESULT:    -8.080      0.000      0.000
REMARK INTER + INTRA:         -14.094
REMARK INTER:                 -12.567
REMARK INTRA:                  -1.527
REMARK UNBOUND:                -1.527
REMARK  Name = 
REMARK  10 active torsions:
REMARK  status: ('A' for Active; 'I' for Inactive)
REMARK    1  A    between atoms: C_2  and  C_23
REMARK    2  A    between atoms: N_3  and  C_4
REMARK    3  A    between atoms: C_4  and  C_5
REMARK    4  A    between atoms: C_8  and  C_9
REMARK    5  A    between atoms: C_9  and  N_10
REMARK    6  A    between atoms: N_10  and  C_11
REMARK    7  A    between atoms: N_10  and  C_14
REMARK    8  A    between atoms: C_11  and  C_12
REMARK    9  A    between atoms: C_12  and  O_13
REMARK   10  A    between atoms: C_14  and  C_15
REMARK                            x       y       z     vdW  Elec       q    Type
REMARK                         _______ _______ _______ _____ _____    ______ ____
ROOT
ATOM      1  C   UNL     1      46.790   7.911  12.829  0.00  0.00    +0.000 A 
ATOM      2  C   UNL     1      47.479   7.154  11.880  0.00  0.00    +0.000 A 
ATOM      3  C   UNL     1      46.759   6.350  11.000  0.00  0.00    +0.000 A 
ATOM      4  C   UNL     1      45.370   6.278  11.106  0.00  0.00    +0.000 A 
ATOM      5  C   UNL     1      44.761   7.093  12.056  0.00  0.00    +0.000 A 
ATOM      6  N   UNL     1      45.434   7.891  12.917  0.00  0.00    +0.000 NA
ENDROOT
BRANCH   1   7
ATOM      7  C   UNL     1      47.547   8.699  13.871  0.00  0.00    +0.000 C 
BRANCH   7  10
ATOM      8  O   UNL     1      50.059   7.510  14.361  0.00  0.00    +0.000 OA
ATOM      9  C   UNL     1      49.127   7.280  15.132  0.00  0.00    +0.000 C 
ATOM     10  N   UNL     1      47.900   7.877  15.009  0.00  0.00    +0.000 N 
ATOM     11  H   UNL     1      47.150   7.641  15.642  0.00  0.00    +0.000 HD
BRANCH   9  12
ATOM     12  C   UNL     1      49.276   6.403  16.291  0.00  0.00    +0.000 A 
ATOM     13  C   UNL     1      50.198   6.675  17.288  0.00  0.00    +0.000 A 
ATOM     14  S   UNL     1      50.121   5.575  18.596  0.00  0.00    +0.000 S 
ATOM     15  C   UNL     1      48.885   4.680  17.843  0.00  0.00    +0.000 A 
ATOM     16  N   UNL     1      48.323   3.599  18.447  0.00  0.00    +0.000 NA
ATOM     17  C   UNL     1      47.410   3.015  17.744  0.00  0.00    +0.000 A 
ATOM     18  N   UNL     1      47.020   3.395  16.487  0.00  0.00    +0.000 N 
ATOM     19  C   UNL     1      47.591   4.452  15.819  0.00  0.00    +0.000 A 
ATOM     20  O   UNL     1      47.270   4.728  14.669  0.00  0.00    +0.000 OA
ATOM     21  C   UNL     1      48.567   5.187  16.597  0.00  0.00    +0.000 A 
ATOM     22  H   UNL     1      46.315   2.880  15.977  0.00  0.00    +0.000 HD
ENDBRANCH   9  12
ENDBRANCH   7  10
ENDBRANCH   1   7
BRANCH   4  23
ATOM     23  C   UNL     1      44.569   5.295  10.284  0.00  0.00    +0.000 C 
BRANCH  23  24
ATOM     24  N   UNL     1      45.145   3.918  10.289  0.00  0.00    +0.000 NA
BRANCH  24  25
ATOM     25  C   UNL     1      44.795   3.228  11.563  0.00  0.00    +0.000 C 
BRANCH  25  26
ATOM     26  C   UNL     1      43.291   3.010  11.825  0.00  0.00    +0.000 C 
BRANCH  26  27
ATOM     27  O   UNL     1      42.927   1.638  11.721  0.00  0.00    +0.000 OA
ATOM     28  H   UNL     1      42.730   1.481  10.781  0.00  0.00    +0.000 HD
ENDBRANCH  26  27
ENDBRANCH  25  26
ENDBRANCH  24  25
BRANCH  24  29
ATOM     29  C   UNL     1      44.605   3.159   9.135  0.00  0.00    +0.000 C 
BRANCH  29  30
ATOM     30  C   UNL     1      45.634   2.592   8.171  0.00  0.00    +0.000 A 
ATOM     31  C   UNL     1      46.226   3.400   7.203  0.00  0.00    +0.000 A 
ATOM     32  C   UNL     1      47.254   2.871   6.427  0.00  0.00    +0.000 A 
ATOM     33  C   UNL     1      47.655   1.556   6.631  0.00  0.00    +0.000 A 
ATOM     34  C   UNL     1      46.996   0.814   7.595  0.00  0.00    +0.000 A 
ATOM     35  N   UNL     1      46.000   1.299   8.367  0.00  0.00    +0.000 NA
ENDBRANCH  29  30
ENDBRANCH  24  29
ENDBRANCH  23  24
ENDBRANCH   4  23
TORSDOF 10
ENDMDL
MODEL 2
REMARK VINA RESULT:    -7.089      2.162      2.642
REMARK INTER + INTRA:         -12.554
REMARK INTER:                 -11.370
REMARK INTRA:                  -1.183
REMARK UNBOUND:                -1.527
REMARK  Name = 
REMARK  10 active torsions:
REMARK  status: ('A' for Active; 'I' for Inactive)
REMARK    1  A    between atoms: C_2  and  C_23
REMARK    2  A    between atoms: N_3  and  C_4
REMARK    3  A    between atoms: C_4  and  C_5
REMARK    4  A    between atoms: C_8  and  C_9
REMARK    5  A    between atoms: C_9  and  N_10
REMARK    6  A    between atoms: N_10  and  C_11
REMARK    7  A    between atoms: N_10  and  C_14
REMARK    8  A    between atoms: C_11  and  C_12
REMARK    9  A    between atoms: C_12  and  O_13
REMARK   10  A    between atoms: C_14  and  C_15
REMARK                            x       y       z     vdW  Elec       q    Type
REMARK                         _______ _______ _______ _____ _____    ______ ____
ROOT
ATOM      1  C   UNL     1      47.782   6.696  13.889  0.00  0.00    +0.000 A 
ATOM      2  C   UNL     1      46.994   7.774  13.483  0.00  0.00    +0.000 A 
ATOM      3  C   UNL     1      45.964   7.556  12.571  0.00  0.00    +0.000 A 
ATOM      4  C   UNL     1      45.761   6.279  12.047  0.00  0.00    +0.000 A 
ATOM      5  C   UNL     1      46.568   5.256  12.534  0.00  0.00    +0.000 A 
ATOM      6  N   UNL     1      47.570   5.436  13.426  0.00  0.00    +0.000 NA
ENDROOT
BRANCH   1   7
ATOM      7  C   UNL     1      48.979   6.921  14.783  0.00  0.00    +0.000 C 
BRANCH   7  10
ATOM      8  O   UNL     1      49.746   8.849  16.694  0.00  0.00    +0.000 OA
ATOM      9  C   UNL     1      49.079   7.879  17.057  0.00  0.00    +0.000 C 
ATOM     10  N   UNL     1      48.603   6.940  16.181  0.00  0.00    +0.000 N 
ATOM     11  H   UNL     1      48.086   6.141  16.518  0.00  0.00    +0.000 HD
BRANCH   9  12
ATOM     12  C   UNL     1      48.679   7.688  18.449  0.00  0.00    +0.000 A 
ATOM     13  C   UNL     1      48.076   8.703  19.173  0.00  0.00    +0.000 A 
ATOM     14  S   UNL     1      47.597   8.219  20.741  0.00  0.00    +0.000 S 
ATOM     15  C   UNL     1      48.224   6.654  20.512  0.00  0.00    +0.000 A 
ATOM     16  N   UNL     1      48.118   5.699  21.474  0.00  0.00    +0.000 NA
ATOM     17  C   UNL     1      48.655   4.568  21.157  0.00  0.00    +0.000 A 
ATOM     18  N   UNL     1      49.307   4.306  19.982  0.00  0.00    +0.000 N 
ATOM     19  C   UNL     1      49.479   5.253  19.000  0.00  0.00    +0.000 A 
ATOM     20  O   UNL     1      50.125   5.012  17.987  0.00  0.00    +0.000 OA
ATOM     21  C   UNL     1      48.825   6.516  19.275  0.00  0.00    +0.000 A 
ATOM     22  H   UNL     1      49.730   3.405  19.804  0.00  0.00    +0.000 HD
ENDBRANCH   9  12
ENDBRANCH   7  10
ENDBRANCH   1   7
BRANCH   4  23
ATOM     23  C   UNL     1      44.766   6.035  10.936  0.00  0.00    +0.000 C 
BRANCH  23  24
ATOM     24  N   UNL     1      44.510   4.585  10.684  0.00  0.00    +0.000 NA
BRANCH  24  25
ATOM     25  C   UNL     1      43.300   4.149  11.437  0.00  0.00    +0.000 C 
BRANCH  25  26
ATOM     26  C   UNL     1      43.454   2.871  12.288  0.00  0.00    +0.000 C 
BRANCH  26  27
ATOM     27  O   UNL     1      43.034   1.709  11.581  0.00  0.00    +0.000 OA
ATOM     28  H   UNL     1      43.768   1.475  10.986  0.00  0.00    +0.000 HD
ENDBRANCH  26  27
ENDBRANCH  25  26
ENDBRANCH  24  25
BRANCH  24  29
ATOM     29  C   UNL     1      44.310   4.371   9.231  0.00  0.00    +0.000 C 
BRANCH  29  30
ATOM     30  C   UNL     1      45.346   3.503   8.538  0.00  0.00    +0.000 A 
ATOM     31  C   UNL     1      45.430   2.138   8.809  0.00  0.00    +0.000 A 
ATOM     32  C   UNL     1      46.307   1.359   8.059  0.00  0.00    +0.000 A 
ATOM     33  C   UNL     1      47.076   1.959   7.069  0.00  0.00    +0.000 A 
ATOM     34  C   UNL     1      46.951   3.325   6.882  0.00  0.00    +0.000 A 
ATOM     35  N   UNL     1      46.107   4.106   7.589  0.00  0.00    +0.000 NA
ENDBRANCH  29  30
ENDBRANCH  24  29
ENDBRANCH  23  24
ENDBRANCH   4  23
TORSDOF 10
ENDMDL
MODEL 3
REMARK VINA RESULT:    -7.083      1.664      2.289
REMARK INTER + INTRA:         -12.544
REMARK INTER:                 -11.225
REMARK INTRA:                  -1.319
REMARK UNBOUND:                -1.527
REMARK  Name = 
REMARK  10 active torsions:
REMARK  status: ('A' for Active; 'I' for Inactive)
REMARK    1  A    between atoms: C_2  and  C_23
REMARK    2  A    between atoms: N_3  and  C_4
REMARK    3  A    between atoms: C_4  and  C_5
REMARK    4  A    between atoms: C_8  and  C_9
REMARK    5  A    between atoms: C_9  and  N_10
REMARK    6  A    between atoms: N_10  and  C_11
REMARK    7  A    between atoms: N_10  and  C_14
REMARK    8  A    between atoms: C_11  and  C_12
REMARK    9  A    between atoms: C_12  and  O_13
REMARK   10  A    between atoms: C_14  and  C_15
REMARK                            x       y       z     vdW  Elec       q    Type
REMARK                         _______ _______ _______ _____ _____    ______ ____
ROOT
ATOM      1  C   UNL     1      47.202   8.038  13.146  0.00  0.00    +0.000 A 
ATOM      2  C   UNL     1      47.790   7.226  12.175  0.00  0.00    +0.000 A 
ATOM      3  C   UNL     1      46.974   6.520  11.296  0.00  0.00    +0.000 A 
ATOM      4  C   UNL     1      45.586   6.600  11.422  0.00  0.00    +0.000 A 
ATOM      5  C   UNL     1      45.084   7.461  12.393  0.00  0.00    +0.000 A 
ATOM      6  N   UNL     1      45.853   8.166  13.256  0.00  0.00    +0.000 NA
ENDROOT
BRANCH   1   7
ATOM      7  C   UNL     1      48.056   8.721  14.188  0.00  0.00    +0.000 C 
BRANCH   7  10
ATOM      8  O   UNL     1      49.951   6.764  14.926  0.00  0.00    +0.000 OA
ATOM      9  C   UNL     1      49.001   6.991  15.676  0.00  0.00    +0.000 C 
ATOM     10  N   UNL     1      48.081   7.975  15.429  0.00  0.00    +0.000 N 
ATOM     11  H   UNL     1      47.298   8.112  16.051  0.00  0.00    +0.000 HD
BRANCH   9  12
ATOM     12  C   UNL     1      48.817   6.272  16.935  0.00  0.00    +0.000 A 
ATOM     13  C   UNL     1      48.455   4.935  16.956  0.00  0.00    +0.000 A 
ATOM     14  S   UNL     1      48.404   4.277  18.534  0.00  0.00    +0.000 S 
ATOM     15  C   UNL     1      48.817   5.772  19.233  0.00  0.00    +0.000 A 
ATOM     16  N   UNL     1      48.976   5.907  20.577  0.00  0.00    +0.000 NA
ATOM     17  C   UNL     1      49.275   7.106  20.956  0.00  0.00    +0.000 A 
ATOM     18  N   UNL     1      49.408   8.185  20.124  0.00  0.00    +0.000 N 
ATOM     19  C   UNL     1      49.212   8.106  18.766  0.00  0.00    +0.000 A 
ATOM     20  O   UNL     1      49.271   9.101  18.053  0.00  0.00    +0.000 OA
ATOM     21  C   UNL     1      48.951   6.766  18.282  0.00  0.00    +0.000 A 
ATOM     22  H   UNL     1      49.618   9.106  20.486  0.00  0.00    +0.000 HD
ENDBRANCH   9  12
ENDBRANCH   7  10
ENDBRANCH   1   7
BRANCH   4  23
ATOM     23  C   UNL     1      44.670   5.725  10.598  0.00  0.00    +0.000 C 
BRANCH  23  24
ATOM     24  N   UNL     1      45.129   4.306  10.517  0.00  0.00    +0.000 NA
BRANCH  24  25
ATOM     25  C   UNL     1      44.706   3.568  11.741  0.00  0.00    +0.000 C 
BRANCH  25  26
ATOM     26  C   UNL     1      43.238   3.096  11.776  0.00  0.00    +0.000 C 
BRANCH  26  27
ATOM     27  O   UNL     1      43.135   1.677  11.746  0.00  0.00    +0.000 OA
ATOM     28  H   UNL     1      42.294   1.477  11.298  0.00  0.00    +0.000 HD
ENDBRANCH  26  27
ENDBRANCH  25  26
ENDBRANCH  24  25
BRANCH  24  29
ATOM     29  C   UNL     1      44.541   3.672   9.313  0.00  0.00    +0.000 C 
BRANCH  29  30
ATOM     30  C   UNL     1      45.516   2.951   8.397  0.00  0.00    +0.000 A 
ATOM     31  C   UNL     1      46.282   3.658   7.472  0.00  0.00    +0.000 A 
ATOM     32  C   UNL     1      47.251   2.975   6.744  0.00  0.00    +0.000 A 
ATOM     33  C   UNL     1      47.426   1.611   6.952  0.00  0.00    +0.000 A 
ATOM     34  C   UNL     1      46.606   0.980   7.870  0.00  0.00    +0.000 A 
ATOM     35  N   UNL     1      45.660   1.615   8.595  0.00  0.00    +0.000 NA
ENDBRANCH  29  30
ENDBRANCH  24  29
ENDBRANCH  23  24
ENDBRANCH   4  23
TORSDOF 10
ENDMDL
MODEL 4
REMARK VINA RESULT:    -7.069      2.702      3.801
REMARK INTER + INTRA:         -12.522
REMARK INTER:                 -11.538
REMARK INTRA:                  -0.984
REMARK UNBOUND:                -1.527
REMARK  Name = 
REMARK  10 active torsions:
REMARK  status: ('A' for Active; 'I' for Inactive)
REMARK    1  A    between atoms: C_2  and  C_23
REMARK    2  A    between atoms: N_3  and  C_4
REMARK    3  A    between atoms: C_4  and  C_5
REMARK    4  A    between atoms: C_8  and  C_9
REMARK    5  A    between atoms: C_9  and  N_10
REMARK    6  A    between atoms: N_10  and  C_11
REMARK    7  A    between atoms: N_10  and  C_14
REMARK    8  A    between atoms: C_11  and  C_12
REMARK    9  A    between atoms: C_12  and  O_13
REMARK   10  A    between atoms: C_14  and  C_15
REMARK                            x       y       z     vdW  Elec       q    Type
REMARK                         _______ _______ _______ _____ _____    ______ ____
ROOT
ATOM      1  C   UNL     1      47.146   4.623  14.846  0.00  0.00    +0.000 A 
ATOM      2  C   UNL     1      46.905   5.899  14.335  0.00  0.00    +0.000 A 
ATOM      3  C   UNL     1      46.275   6.027  13.100  0.00  0.00    +0.000 A 
ATOM      4  C   UNL     1      45.933   4.885  12.374  0.00  0.00    +0.000 A 
ATOM      5  C   UNL     1      46.177   3.653  12.974  0.00  0.00    +0.000 A 
ATOM      6  N   UNL     1      46.779   3.499  14.176  0.00  0.00    +0.000 NA
ENDROOT
BRANCH   1   7
ATOM      7  C   UNL     1      47.932   4.450  16.124  0.00  0.00    +0.000 C 
BRANCH   7  10
ATOM      8  O   UNL     1      49.749   6.382  17.089  0.00  0.00    +0.000 OA
ATOM      9  C   UNL     1      48.605   6.358  17.542  0.00  0.00    +0.000 C 
ATOM     10  N   UNL     1      47.642   5.503  17.074  0.00  0.00    +0.000 N 
ATOM     11  H   UNL     1      46.722   5.490  17.491  0.00  0.00    +0.000 HD
BRANCH   9  12
ATOM     12  C   UNL     1      48.157   7.292  18.572  0.00  0.00    +0.000 A 
ATOM     13  C   UNL     1      47.926   6.875  19.873  0.00  0.00    +0.000 A 
ATOM     14  S   UNL     1      47.515   8.157  20.928  0.00  0.00    +0.000 S 
ATOM     15  C   UNL     1      47.589   9.295  19.665  0.00  0.00    +0.000 A 
ATOM     16  N   UNL     1      47.371  10.619  19.890  0.00  0.00    +0.000 NA
ATOM     17  C   UNL     1      47.448  11.354  18.829  0.00  0.00    +0.000 A 
ATOM     18  N   UNL     1      47.699  10.891  17.566  0.00  0.00    +0.000 N 
ATOM     19  C   UNL     1      47.881   9.558  17.284  0.00  0.00    +0.000 A 
ATOM     20  O   UNL     1      48.038   9.164  16.134  0.00  0.00    +0.000 OA
ATOM     21  C   UNL     1      47.882   8.701  18.452  0.00  0.00    +0.000 A 
ATOM     22  H   UNL     1      47.721  11.517  16.771  0.00  0.00    +0.000 HD
ENDBRANCH   9  12
ENDBRANCH   7  10
ENDBRANCH   1   7
BRANCH   4  23
ATOM     23  C   UNL     1      45.401   4.980  10.963  0.00  0.00    +0.000 C 
BRANCH  23  24
ATOM     24  N   UNL     1      44.508   3.843  10.592  0.00  0.00    +0.000 NA
BRANCH  24  25
ATOM     25  C   UNL     1      43.189   3.995  11.270  0.00  0.00    +0.000 C 
BRANCH  25  26
ATOM     26  C   UNL     1      42.697   5.442  11.479  0.00  0.00    +0.000 C 
BRANCH  26  27
ATOM     27  O   UNL     1      42.499   5.742  12.856  0.00  0.00    +0.000 OA
ATOM     28  H   UNL     1      42.799   4.958  13.349  0.00  0.00    +0.000 HD
ENDBRANCH  26  27
ENDBRANCH  25  26
ENDBRANCH  24  25
BRANCH  24  29
ATOM     29  C   UNL     1      44.326   3.825   9.121  0.00  0.00    +0.000 C 
BRANCH  29  30
ATOM     30  C   UNL     1      45.358   3.038   8.332  0.00  0.00    +0.000 A 
ATOM     31  C   UNL     1      46.228   3.683   7.455  0.00  0.00    +0.000 A 
ATOM     32  C   UNL     1      47.240   2.942   6.850  0.00  0.00    +0.000 A 
ATOM     33  C   UNL     1      47.352   1.585   7.129  0.00  0.00    +0.000 A 
ATOM     34  C   UNL     1      46.430   1.017   7.991  0.00  0.00    +0.000 A 
ATOM     35  N   UNL     1      45.441   1.709   8.597  0.00  0.00    +0.000 NA
ENDBRANCH  29  30
ENDBRANCH  24  29
ENDBRANCH  23  24
ENDBRANCH   4  23
TORSDOF 10
ENDMDL
MODEL 5
REMARK VINA RESULT:    -6.842      2.723      3.272
REMARK INTER + INTRA:         -12.170
REMARK INTER:                 -11.710
REMARK INTRA:                  -0.459
REMARK UNBOUND:                -1.527
REMARK  Name = 
REMARK  10 active torsions:
REMARK  status: ('A' for Active; 'I' for Inactive)
REMARK    1  A    between atoms: C_2  and  C_23
REMARK    2  A    between atoms: N_3  and  C_4
REMARK    3  A    between atoms: C_4  and  C_5
REMARK    4  A    between atoms: C_8  and  C_9
REMARK    5  A    between atoms: C_9  and  N_10
REMARK    6  A    between atoms: N_10  and  C_11
REMARK    7  A    between atoms: N_10  and  C_14
REMARK    8  A    between atoms: C_11  and  C_12
REMARK    9  A    between atoms: C_12  and  O_13
REMARK   10  A    between atoms: C_14  and  C_15
REMARK                            x       y       z     vdW  Elec       q    Type
REMARK                         _______ _______ _______ _____ _____    ______ ____
ROOT
ATOM      1  C   UNL     1      48.000   6.297  14.808  0.00  0.00    +0.000 A 
ATOM      2  C   UNL     1      47.690   6.915  13.596  0.00  0.00    +0.000 A 
ATOM      3  C   UNL     1      46.893   6.241  12.675  0.00  0.00    +0.000 A 
ATOM      4  C   UNL     1      46.452   4.947  12.956  0.00  0.00    +0.000 A 
ATOM      5  C   UNL     1      46.776   4.421  14.203  0.00  0.00    +0.000 A 
ATOM      6  N   UNL     1      47.541   5.056  15.121  0.00  0.00    +0.000 NA
ENDROOT
BRANCH   1   7
ATOM      7  C   UNL     1      48.957   6.953  15.775  0.00  0.00    +0.000 C 
BRANCH   7  10
ATOM      8  O   UNL     1      49.366   6.060  18.420  0.00  0.00    +0.000 OA
ATOM      9  C   UNL     1      50.150   5.703  17.541  0.00  0.00    +0.000 C 
ATOM     10  N   UNL     1      49.979   6.030  16.221  0.00  0.00    +0.000 N 
ATOM     11  H   UNL     1      50.660   5.746  15.531  0.00  0.00    +0.000 HD
BRANCH   9  12
ATOM     12  C   UNL     1      51.293   4.839  17.822  0.00  0.00    +0.000 A 
ATOM     13  C   UNL     1      52.489   5.354  18.295  0.00  0.00    +0.000 A 
ATOM     14  S   UNL     1      53.646   4.149  18.656  0.00  0.00    +0.000 S 
ATOM     15  C   UNL     1      52.598   2.909  18.147  0.00  0.00    +0.000 A 
ATOM     16  N   UNL     1      52.958   1.600  18.221  0.00  0.00    +0.000 NA
ATOM     17  C   UNL     1      52.061   0.779  17.784  0.00  0.00    +0.000 A 
ATOM     18  N   UNL     1      50.849   1.142  17.259  0.00  0.00    +0.000 N 
ATOM     19  C   UNL     1      50.461   2.453  17.122  0.00  0.00    +0.000 A 
ATOM     20  O   UNL     1      49.400   2.753  16.588  0.00  0.00    +0.000 OA
ATOM     21  C   UNL     1      51.401   3.410  17.671  0.00  0.00    +0.000 A 
ATOM     22  H   UNL     1      50.200   0.451  16.909  0.00  0.00    +0.000 HD
ENDBRANCH   9  12
ENDBRANCH   7  10
ENDBRANCH   1   7
BRANCH   4  23
ATOM     23  C   UNL     1      45.727   4.121  11.919  0.00  0.00    +0.000 C 
BRANCH  23  24
ATOM     24  N   UNL     1      44.289   3.893  12.248  0.00  0.00    +0.000 NA
BRANCH  24  25
ATOM     25  C   UNL     1      43.640   5.188  12.599  0.00  0.00    +0.000 C 
BRANCH  25  26
ATOM     26  C   UNL     1      42.934   5.928  11.444  0.00  0.00    +0.000 C 
BRANCH  26  27
ATOM     27  O   UNL     1      41.735   6.564  11.875  0.00  0.00    +0.000 OA
ATOM     28  H   UNL     1      41.045   5.878  11.860  0.00  0.00    +0.000 HD
ENDBRANCH  26  27
ENDBRANCH  25  26
ENDBRANCH  24  25
BRANCH  24  29
ATOM     29  C   UNL     1      43.611   3.285  11.079  0.00  0.00    +0.000 C 
BRANCH  29  30
ATOM     30  C   UNL     1      44.453   3.138   9.823  0.00  0.00    +0.000 A 
ATOM     31  C   UNL     1      44.837   4.258   9.087  0.00  0.00    +0.000 A 
ATOM     32  C   UNL     1      45.712   4.089   8.018  0.00  0.00    +0.000 A 
ATOM     33  C   UNL     1      46.173   2.814   7.709  0.00  0.00    +0.000 A 
ATOM     34  C   UNL     1      45.722   1.753   8.474  0.00  0.00    +0.000 A 
ATOM     35  N   UNL     1      44.877   1.885   9.519  0.00  0.00    +0.000 NA
ENDBRANCH  29  30
ENDBRANCH  24  29
ENDBRANCH  23  24
ENDBRANCH   4  23
TORSDOF 10
ENDMDL
MODEL 6
REMARK VINA RESULT:    -6.781      2.527      3.443
REMARK INTER + INTRA:         -12.074
REMARK INTER:                 -11.017
REMARK INTRA:                  -1.057
REMARK UNBOUND:                -1.527
REMARK  Name = 
REMARK  10 active torsions:
REMARK  status: ('A' for Active; 'I' for Inactive)
REMARK    1  A    between atoms: C_2  and  C_23
REMARK    2  A    between atoms: N_3  and  C_4
REMARK    3  A    between atoms: C_4  and  C_5
REMARK    4  A    between atoms: C_8  and  C_9
REMARK    5  A    between atoms: C_9  and  N_10
REMARK    6  A    between atoms: N_10  and  C_11
REMARK    7  A    between atoms: N_10  and  C_14
REMARK    8  A    between atoms: C_11  and  C_12
REMARK    9  A    between atoms: C_12  and  O_13
REMARK   10  A    between atoms: C_14  and  C_15
REMARK                            x       y       z     vdW  Elec       q    Type
REMARK                         _______ _______ _______ _____ _____    ______ ____
ROOT
ATOM      1  C   UNL     1      47.266   4.154  14.895  0.00  0.00    +0.000 A 
ATOM      2  C   UNL     1      47.016   5.498  14.612  0.00  0.00    +0.000 A 
ATOM      3  C   UNL     1      46.337   5.829  13.442  0.00  0.00    +0.000 A 
ATOM      4  C   UNL     1      45.957   4.824  12.553  0.00  0.00    +0.000 A 
ATOM      5  C   UNL     1      46.213   3.509  12.931  0.00  0.00    +0.000 A 
ATOM      6  N   UNL     1      46.862   3.157  14.065  0.00  0.00    +0.000 NA
ENDROOT
BRANCH   1   7
ATOM      7  C   UNL     1      48.102   3.771  16.094  0.00  0.00    +0.000 C 
BRANCH   7  10
ATOM      8  O   UNL     1      50.723   4.092  17.087  0.00  0.00    +0.000 OA
ATOM      9  C   UNL     1      49.895   4.981  17.285  0.00  0.00    +0.000 C 
ATOM     10  N   UNL     1      48.625   4.937  16.773  0.00  0.00    +0.000 N 
ATOM     11  H   UNL     1      47.963   5.670  16.982  0.00  0.00    +0.000 HD
BRANCH   9  12
ATOM     12  C   UNL     1      50.222   6.196  18.028  0.00  0.00    +0.000 A 
ATOM     13  C   UNL     1      51.375   6.915  17.763  0.00  0.00    +0.000 A 
ATOM     14  S   UNL     1      51.495   8.356  18.676  0.00  0.00    +0.000 S 
ATOM     15  C   UNL     1      50.032   8.034  19.483  0.00  0.00    +0.000 A 
ATOM     16  N   UNL     1      49.521   8.900  20.398  0.00  0.00    +0.000 NA
ATOM     17  C   UNL     1      48.412   8.508  20.935  0.00  0.00    +0.000 A 
ATOM     18  N   UNL     1      47.779   7.326  20.662  0.00  0.00    +0.000 N 
ATOM     19  C   UNL     1      48.282   6.399  19.779  0.00  0.00    +0.000 A 
ATOM     20  O   UNL     1      47.730   5.319  19.603  0.00  0.00    +0.000 OA
ATOM     21  C   UNL     1      49.483   6.827  19.092  0.00  0.00    +0.000 A 
ATOM     22  H   UNL     1      46.925   7.065  21.136  0.00  0.00    +0.000 HD
ENDBRANCH   9  12
ENDBRANCH   7  10
ENDBRANCH   1   7
BRANCH   4  23
ATOM     23  C   UNL     1      45.369   5.152  11.200  0.00  0.00    +0.000 C 
BRANCH  23  24
ATOM     24  N   UNL     1      44.553   4.040  10.627  0.00  0.00    +0.000 NA
BRANCH  24  25
ATOM     25  C   UNL     1      43.178   4.075  11.202  0.00  0.00    +0.000 C 
BRANCH  25  26
ATOM     26  C   UNL     1      42.683   5.450  11.693  0.00  0.00    +0.000 C 
BRANCH  26  27
ATOM     27  O   UNL     1      42.461   5.464  13.099  0.00  0.00    +0.000 OA
ATOM     28  H   UNL     1      42.009   4.627  13.309  0.00  0.00    +0.000 HD
ENDBRANCH  26  27
ENDBRANCH  25  26
ENDBRANCH  24  25
BRANCH  24  29
ATOM     29  C   UNL     1      44.492   4.189   9.153  0.00  0.00    +0.000 C 
BRANCH  29  30
ATOM     30  C   UNL     1      45.400   3.270   8.353  0.00  0.00    +0.000 A 
ATOM     31  C   UNL     1      46.206   3.774   7.334  0.00  0.00    +0.000 A 
ATOM     32  C   UNL     1      47.113   2.920   6.714  0.00  0.00    +0.000 A 
ATOM     33  C   UNL     1      47.188   1.593   7.119  0.00  0.00    +0.000 A 
ATOM     34  C   UNL     1      46.333   1.166   8.121  0.00  0.00    +0.000 A 
ATOM     35  N   UNL     1      45.445   1.971   8.745  0.00  0.00    +0.000 NA
ENDBRANCH  29  30
ENDBRANCH  24  29
ENDBRANCH  23  24
ENDBRANCH   4  23
TORSDOF 10
ENDMDL
MODEL 7
REMARK VINA RESULT:    -6.629      1.836      2.437
REMARK INTER + INTRA:         -11.839
REMARK INTER:                  -9.844
REMARK INTRA:                  -1.995
REMARK UNBOUND:                -1.527
REMARK  Name = 
REMARK  10 active torsions:
REMARK  status: ('A' for Active; 'I' for Inactive)
REMARK    1  A    between atoms: C_2  and  C_23
REMARK    2  A    between atoms: N_3  and  C_4
REMARK    3  A    between atoms: C_4  and  C_5
REMARK    4  A    between atoms: C_8  and  C_9
REMARK    5  A    between atoms: C_9  and  N_10
REMARK    6  A    between atoms: N_10  and  C_11
REMARK    7  A    between atoms: N_10  and  C_14
REMARK    8  A    between atoms: C_11  and  C_12
REMARK    9  A    between atoms: C_12  and  O_13
REMARK   10  A    between atoms: C_14  and  C_15
REMARK                            x       y       z     vdW  Elec       q    Type
REMARK                         _______ _______ _______ _____ _____    ______ ____
ROOT
ATOM      1  C   UNL     1      48.986   8.637  13.523  0.00  0.00    +0.000 A 
ATOM      2  C   UNL     1      49.185   7.788  12.433  0.00  0.00    +0.000 A 
ATOM      3  C   UNL     1      48.077   7.271  11.765  0.00  0.00    +0.000 A 
ATOM      4  C   UNL     1      46.792   7.573  12.218  0.00  0.00    +0.000 A 
ATOM      5  C   UNL     1      46.685   8.455  13.288  0.00  0.00    +0.000 A 
ATOM      6  N   UNL     1      47.742   8.980  13.950  0.00  0.00    +0.000 NA
ENDROOT
BRANCH   1   7
ATOM      7  C   UNL     1      50.163   9.117  14.339  0.00  0.00    +0.000 C 
BRANCH   7  10
ATOM      8  O   UNL     1      52.370   7.503  15.040  0.00  0.00    +0.000 OA
ATOM      9  C   UNL     1      51.392   7.537  15.788  0.00  0.00    +0.000 C 
ATOM     10  N   UNL     1      50.314   8.352  15.559  0.00  0.00    +0.000 N 
ATOM     11  H   UNL     1      49.516   8.331  16.177  0.00  0.00    +0.000 HD
BRANCH   9  12
ATOM     12  C   UNL     1      51.330   6.762  17.024  0.00  0.00    +0.000 A 
ATOM     13  C   UNL     1      52.362   6.795  17.948  0.00  0.00    +0.000 A 
ATOM     14  S   UNL     1      52.025   5.897  19.365  0.00  0.00    +0.000 S 
ATOM     15  C   UNL     1      50.513   5.403  18.761  0.00  0.00    +0.000 A 
ATOM     16  N   UNL     1      49.675   4.626  19.498  0.00  0.00    +0.000 NA
ATOM     17  C   UNL     1      48.572   4.322  18.897  0.00  0.00    +0.000 A 
ATOM     18  N   UNL     1      48.236   4.702  17.625  0.00  0.00    +0.000 N 
ATOM     19  C   UNL     1      49.070   5.449  16.828  0.00  0.00    +0.000 A 
ATOM     20  O   UNL     1      48.774   5.718  15.669  0.00  0.00    +0.000 OA
ATOM     21  C   UNL     1      50.287   5.881  17.484  0.00  0.00    +0.000 A 
ATOM     22  H   UNL     1      47.366   4.409  17.201  0.00  0.00    +0.000 HD
ENDBRANCH   9  12
ENDBRANCH   7  10
ENDBRANCH   1   7
BRANCH   4  23
ATOM     23  C   UNL     1      45.573   6.903  11.626  0.00  0.00    +0.000 C 
BRANCH  23  24
ATOM     24  N   UNL     1      45.659   5.412  11.636  0.00  0.00    +0.000 NA
BRANCH  24  25
ATOM     25  C   UNL     1      45.478   4.905  13.026  0.00  0.00    +0.000 C 
BRANCH  25  26
ATOM     26  C   UNL     1      46.597   3.990  13.565  0.00  0.00    +0.000 C 
BRANCH  26  27
ATOM     27  O   UNL     1      46.588   3.921  14.987  0.00  0.00    +0.000 OA
ATOM     28  H   UNL     1      46.027   4.658  15.289  0.00  0.00    +0.000 HD
ENDBRANCH  26  27
ENDBRANCH  25  26
ENDBRANCH  24  25
BRANCH  24  29
ATOM     29  C   UNL     1      44.607   4.858  10.751  0.00  0.00    +0.000 C 
BRANCH  29  30
ATOM     30  C   UNL     1      45.091   3.981   9.610  0.00  0.00    +0.000 A 
ATOM     31  C   UNL     1      45.724   4.538   8.500  0.00  0.00    +0.000 A 
ATOM     32  C   UNL     1      46.264   3.688   7.539  0.00  0.00    +0.000 A 
ATOM     33  C   UNL     1      46.153   2.312   7.706  0.00  0.00    +0.000 A 
ATOM     34  C   UNL     1      45.486   1.841   8.823  0.00  0.00    +0.000 A 
ATOM     35  N   UNL     1      44.955   2.639   9.774  0.00  0.00    +0.000 NA
ENDBRANCH  29  30
ENDBRANCH  24  29
ENDBRANCH  23  24
ENDBRANCH   4  23
TORSDOF 10
ENDMDL
MODEL 8
REMARK VINA RESULT:    -6.316      2.963      4.546
REMARK INTER + INTRA:         -11.352
REMARK INTER:                 -10.645
REMARK INTRA:                  -0.706
REMARK UNBOUND:                -1.527
REMARK  Name = 
REMARK  10 active torsions:
REMARK  status: ('A' for Active; 'I' for Inactive)
REMARK    1  A    between atoms: C_2  and  C_23
REMARK    2  A    between atoms: N_3  and  C_4
REMARK    3  A    between atoms: C_4  and  C_5
REMARK    4  A    between atoms: C_8  and  C_9
REMARK    5  A    between atoms: C_9  and  N_10
REMARK    6  A    between atoms: N_10  and  C_11
REMARK    7  A    between atoms: N_10  and  C_14
REMARK    8  A    between atoms: C_11  and  C_12
REMARK    9  A    between atoms: C_12  and  O_13
REMARK   10  A    between atoms: C_14  and  C_15
REMARK                            x       y       z     vdW  Elec       q    Type
REMARK                         _______ _______ _______ _____ _____    ______ ____
ROOT
ATOM      1  C   UNL     1      48.235   5.419  16.424  0.00  0.00    +0.000 A 
ATOM      2  C   UNL     1      47.355   4.361  16.194  0.00  0.00    +0.000 A 
ATOM      3  C   UNL     1      46.813   4.195  14.922  0.00  0.00    +0.000 A 
ATOM      4  C   UNL     1      47.124   5.107  13.912  0.00  0.00    +0.000 A 
ATOM      5  C   UNL     1      48.038   6.109  14.218  0.00  0.00    +0.000 A 
ATOM      6  N   UNL     1      48.587   6.290  15.442  0.00  0.00    +0.000 NA
ENDROOT
BRANCH   1   7
ATOM      7  C   UNL     1      48.745   5.696  17.820  0.00  0.00    +0.000 C 
BRANCH   7  10
ATOM      8  O   UNL     1      51.408   6.349  17.152  0.00  0.00    +0.000 OA
ATOM      9  C   UNL     1      51.175   5.270  17.698  0.00  0.00    +0.000 C 
ATOM     10  N   UNL     1      49.922   4.910  18.122  0.00  0.00    +0.000 N 
ATOM     11  H   UNL     1      49.763   4.004  18.538  0.00  0.00    +0.000 HD
BRANCH   9  12
ATOM     12  C   UNL     1      52.232   4.309  18.005  0.00  0.00    +0.000 A 
ATOM     13  C   UNL     1      53.459   4.720  18.498  0.00  0.00    +0.000 A 
ATOM     14  S   UNL     1      54.499   3.419  18.886  0.00  0.00    +0.000 S 
ATOM     15  C   UNL     1      53.355   2.274  18.361  0.00  0.00    +0.000 A 
ATOM     16  N   UNL     1      53.598   0.938  18.447  0.00  0.00    +0.000 NA
ATOM     17  C   UNL     1      52.640   0.198  17.995  0.00  0.00    +0.000 A 
ATOM     18  N   UNL     1      51.475   0.663  17.446  0.00  0.00    +0.000 N 
ATOM     19  C   UNL     1      51.207   2.003  17.297  0.00  0.00    +0.000 A 
ATOM     20  O   UNL     1      50.186   2.392  16.741  0.00  0.00    +0.000 OA
ATOM     21  C   UNL     1      52.216   2.876  17.860  0.00  0.00    +0.000 A 
ATOM     22  H   UNL     1      50.774   0.030  17.085  0.00  0.00    +0.000 HD
ENDBRANCH   9  12
ENDBRANCH   7  10
ENDBRANCH   1   7
BRANCH   4  23
ATOM     23  C   UNL     1      46.431   5.058  12.569  0.00  0.00    +0.000 C 
BRANCH  23  24
ATOM     24  N   UNL     1      45.308   6.035  12.451  0.00  0.00    +0.000 NA
BRANCH  24  25
ATOM     25  C   UNL     1      45.796   7.291  11.813  0.00  0.00    +0.000 C 
BRANCH  25  26
ATOM     26  C   UNL     1      45.394   8.607  12.510  0.00  0.00    +0.000 C 
BRANCH  26  27
ATOM     27  O   UNL     1      46.147   8.830  13.697  0.00  0.00    +0.000 OA
ATOM     28  H   UNL     1      46.069   8.016  14.224  0.00  0.00    +0.000 HD
ENDBRANCH  26  27
ENDBRANCH  25  26
ENDBRANCH  24  25
BRANCH  24  29
ATOM     29  C   UNL     1      44.225   5.437  11.634  0.00  0.00    +0.000 C 
BRANCH  29  30
ATOM     30  C   UNL     1      44.667   4.478  10.542  0.00  0.00    +0.000 A 
ATOM     31  C   UNL     1      44.329   3.127  10.599  0.00  0.00    +0.000 A 
ATOM     32  C   UNL     1      44.645   2.312   9.516  0.00  0.00    +0.000 A 
ATOM     33  C   UNL     1      45.293   2.860   8.415  0.00  0.00    +0.000 A 
ATOM     34  C   UNL     1      45.617   4.205   8.451  0.00  0.00    +0.000 A 
ATOM     35  N   UNL     1      45.320   5.023   9.483  0.00  0.00    +0.000 NA
ENDBRANCH  29  30
ENDBRANCH  24  29
ENDBRANCH  23  24
ENDBRANCH   4  23
TORSDOF 10
ENDMDL
MODEL 9
REMARK VINA RESULT:    -6.225      2.865      8.323
REMARK INTER + INTRA:         -11.209
REMARK INTER:                  -9.389
REMARK INTRA:                  -1.820
REMARK UNBOUND:                -1.527
REMARK  Name = 
REMARK  10 active torsions:
REMARK  status: ('A' for Active; 'I' for Inactive)
REMARK    1  A    between atoms: C_2  and  C_23
REMARK    2  A    between atoms: N_3  and  C_4
REMARK    3  A    between atoms: C_4  and  C_5
REMARK    4  A    between atoms: C_8  and  C_9
REMARK    5  A    between atoms: C_9  and  N_10
REMARK    6  A    between atoms: N_10  and  C_11
REMARK    7  A    between atoms: N_10  and  C_14
REMARK    8  A    between atoms: C_11  and  C_12
REMARK    9  A    between atoms: C_12  and  O_13
REMARK   10  A    between atoms: C_14  and  C_15
REMARK                            x       y       z     vdW  Elec       q    Type
REMARK                         _______ _______ _______ _____ _____    ______ ____
ROOT
ATOM      1  C   UNL     1      48.418   8.055  13.335  0.00  0.00    +0.000 A 
ATOM      2  C   UNL     1      48.215   9.253  14.022  0.00  0.00    +0.000 A 
ATOM      3  C   UNL     1      48.567   9.332  15.367  0.00  0.00    +0.000 A 
ATOM      4  C   UNL     1      49.075   8.207  16.018  0.00  0.00    +0.000 A 
ATOM      5  C   UNL     1      49.279   7.065  15.249  0.00  0.00    +0.000 A 
ATOM      6  N   UNL     1      48.955   6.962  13.939  0.00  0.00    +0.000 NA
ENDROOT
BRANCH   1   7
ATOM      7  C   UNL     1      47.938   7.902  11.911  0.00  0.00    +0.000 C 
BRANCH   7  10
ATOM      8  O   UNL     1      45.133   7.684  11.699  0.00  0.00    +0.000 OA
ATOM      9  C   UNL     1      45.814   6.659  11.708  0.00  0.00    +0.000 C 
ATOM     10  N   UNL     1      47.184   6.680  11.732  0.00  0.00    +0.000 N 
ATOM     11  H   UNL     1      47.709   5.818  11.769  0.00  0.00    +0.000 HD
BRANCH   9  12
ATOM     12  C   UNL     1      45.216   5.328  11.621  0.00  0.00    +0.000 A 
ATOM     13  C   UNL     1      44.666   4.710  12.732  0.00  0.00    +0.000 A 
ATOM     14  S   UNL     1      43.930   3.209  12.372  0.00  0.00    +0.000 S 
ATOM     15  C   UNL     1      44.368   3.323  10.732  0.00  0.00    +0.000 A 
ATOM     16  N   UNL     1      44.013   2.364   9.834  0.00  0.00    +0.000 NA
ATOM     17  C   UNL     1      44.432   2.586   8.632  0.00  0.00    +0.000 A 
ATOM     18  N   UNL     1      45.188   3.659   8.246  0.00  0.00    +0.000 N 
ATOM     19  C   UNL     1      45.608   4.628   9.125  0.00  0.00    +0.000 A 
ATOM     20  O   UNL     1      46.341   5.543   8.766  0.00  0.00    +0.000 OA
ATOM     21  C   UNL     1      45.099   4.467  10.472  0.00  0.00    +0.000 A 
ATOM     22  H   UNL     1      45.507   3.762   7.291  0.00  0.00    +0.000 HD
ENDBRANCH   9  12
ENDBRANCH   7  10
ENDBRANCH   1   7
BRANCH   4  23
ATOM     23  C   UNL     1      49.312   8.203  17.510  0.00  0.00    +0.000 C 
BRANCH  23  24
ATOM     24  N   UNL     1      50.062   7.001  17.983  0.00  0.00    +0.000 NA
BRANCH  24  25
ATOM     25  C   UNL     1      51.229   7.427  18.809  0.00  0.00    +0.000 C 
BRANCH  25  26
ATOM     26  C   UNL     1      52.561   6.704  18.524  0.00  0.00    +0.000 C 
BRANCH  26  27
ATOM     27  O   UNL     1      52.414   5.689  17.537  0.00  0.00    +0.000 OA
ATOM     28  H   UNL     1      51.760   6.025  16.899  0.00  0.00    +0.000 HD
ENDBRANCH  26  27
ENDBRANCH  25  26
ENDBRANCH  24  25
BRANCH  24  29
ATOM     29  C   UNL     1      49.156   6.146  18.786  0.00  0.00    +0.000 C 
BRANCH  29  30
ATOM     30  C   UNL     1      48.844   4.778  18.204  0.00  0.00    +0.000 A 
ATOM     31  C   UNL     1      47.532   4.406  17.919  0.00  0.00    +0.000 A 
ATOM     32  C   UNL     1      47.304   3.196  17.270  0.00  0.00    +0.000 A 
ATOM     33  C   UNL     1      48.384   2.389  16.932  0.00  0.00    +0.000 A 
ATOM     34  C   UNL     1      49.654   2.820  17.276  0.00  0.00    +0.000 A 
ATOM     35  N   UNL     1      49.908   3.990  17.900  0.00  0.00    +0.000 NA
ENDBRANCH  29  30
ENDBRANCH  24  29
ENDBRANCH  23  24
ENDBRANCH   4  23
TORSDOF 10
ENDMDL
