MODEL 1
REMARK VINA RESULT:    -7.639      0.000      0.000
REMARK INTER + INTRA:         -11.702
REMARK INTER:                 -10.765
REMARK INTRA:                  -0.936
REMARK UNBOUND:                -0.936
REMARK  Name = 
REMARK  7 active torsions:
REMARK  status: ('A' for Active; 'I' for Inactive)
REMARK    1  A    between atoms: C_2  and  C_20
REMARK    2  A    between atoms: N_3  and  C_4
REMARK    3  A    between atoms: C_4  and  C_5
REMARK    4  A    between atoms: C_8  and  C_9
REMARK    5  A    between atoms: C_9  and  C_10
REMARK    6  A    between atoms: C_10  and  N_11
REMARK    7  A    between atoms: N_11  and  C_12
REMARK                            x       y       z     vdW  Elec       q    Type
REMARK                         _______ _______ _______ _____ _____    ______ ____
ROOT
ATOM      1  C   UNL     1      48.305   7.095  13.652  0.00  0.00    +0.000 C 
ENDROOT
BRANCH   1   2
ATOM      2  C   UNL     1      47.151   6.438  12.947  0.00  0.00    +0.000 A 
ATOM      3  C   UNL     1      46.555   5.301  13.502  0.00  0.00    +0.000 A 
ATOM      4  C   UNL     1      45.453   4.708  12.889  0.00  0.00    +0.000 A 
ATOM      5  C   UNL     1      44.917   5.239  11.711  0.00  0.00    +0.000 A 
ATOM      6  C   UNL     1      45.558   6.337  11.119  0.00  0.00    +0.000 A 
ATOM      7  C   UNL     1      46.665   6.930  11.730  0.00  0.00    +0.000 A 
BRANCH   5   8
ATOM      8  C   UNL     1      43.708   4.641  11.032  0.00  0.00    +0.000 C 
BRANCH   8   9
ATOM      9  C   UNL     1      43.966   3.559   9.970  0.00  0.00    +0.000 C 
BRANCH   9  10
ATOM     10  N   UNL     1      44.342   4.103   8.659  0.00  0.00    +0.000 NA
ATOM     11  H   UNL     1      44.813   5.001   8.769  0.00  0.00    +0.000 HD
BRANCH  10  12
ATOM     12  C   UNL     1      45.162   3.172   7.874  0.00  0.00    +0.000 C 
ATOM     13  C   UNL     1      45.628   1.957   8.686  0.00  0.00    +0.000 C 
ATOM     14  C   UNL     1      46.532   1.076   7.839  0.00  0.00    +0.000 C 
ATOM     15  O   UNL     1      47.649   1.816   7.355  0.00  0.00    +0.000 OA
ATOM     16  C   UNL     1      47.254   2.909   6.524  0.00  0.00    +0.000 C 
ATOM     17  C   UNL     1      46.390   3.896   7.301  0.00  0.00    +0.000 C 
ENDBRANCH  10  12
ENDBRANCH   9  10
ENDBRANCH   8   9
ENDBRANCH   5   8
ENDBRANCH   1   2
BRANCH   1  20
ATOM     18  O   UNL     1      50.306   6.487  15.557  0.00  0.00    +0.000 OA
ATOM     19  C   UNL     1      49.181   6.796  15.941  0.00  0.00    +0.000 C 
ATOM     20  N   UNL     1      48.144   7.046  15.081  0.00  0.00    +0.000 N 
ATOM     21  H   UNL     1      47.308   7.490  15.439  0.00  0.00    +0.000 HD
BRANCH  19  22
ATOM     22  C   UNL     1      48.851   6.859  17.371  0.00  0.00    +0.000 A 
ATOM     23  C   UNL     1      48.535   8.079  17.955  0.00  0.00    +0.000 A 
ATOM     24  S   UNL     1      48.214   7.971  19.626  0.00  0.00    +0.000 S 
ATOM     25  C   UNL     1      48.439   6.283  19.618  0.00  0.00    +0.000 A 
ATOM     26  N   UNL     1      48.281   5.551  20.753  0.00  0.00    +0.000 NA
ATOM     27  C   UNL     1      48.438   4.278  20.595  0.00  0.00    +0.000 A 
ATOM     28  N   UNL     1      48.748   3.672  19.404  0.00  0.00    +0.000 N 
ATOM     29  C   UNL     1      48.999   4.377  18.253  0.00  0.00    +0.000 A 
ATOM     30  O   UNL     1      49.409   3.814  17.244  0.00  0.00    +0.000 OA
ATOM     31  C   UNL     1      48.779   5.810  18.363  0.00  0.00    +0.000 A 
ATOM     32  H   UNL     1      48.892   2.675  19.353  0.00  0.00    +0.000 HD
ENDBRANCH  19  22
ENDBRANCH   1  20
TORSDOF 7
ENDMDL
MODEL 2
REMARK VINA RESULT:    -7.567      1.351      2.199
REMARK INTER + INTRA:         -11.599
REMARK INTER:                 -10.648
REMARK INTRA:                  -0.951
REMARK UNBOUND:                -0.936
REMARK  Name = 
REMARK  7 active torsions:
REMARK  status: ('A' for Active; 'I' for Inactive)
REMARK    1  A    between atoms: C_2  and  C_20
REMARK    2  A    between atoms: N_3  and  C_4
REMARK    3  A    between atoms: C_4  and  C_5
REMARK    4  A    between atoms: C_8  and  C_9
REMARK    5  A    between atoms: C_9  and  C_10
REMARK    6  A    between atoms: C_10  and  N_11
REMARK    7  A    between atoms: N_11  and  C_12
REMARK                            x       y       z     vdW  Elec       q    Type
REMARK                         _______ _______ _______ _____ _____    ______ ____
ROOT
ATOM      1  C   UNL     1      48.059   6.924  13.780  0.00  0.00    +0.000 C 
ENDROOT
BRANCH   1   2
ATOM      2  C   UNL     1      46.936   6.297  13.001  0.00  0.00    +0.000 A 
ATOM      3  C   UNL     1      46.646   6.752  11.711  0.00  0.00    +0.000 A 
ATOM      4  C   UNL     1      45.643   6.150  10.955  0.00  0.00    +0.000 A 
ATOM      5  C   UNL     1      44.908   5.075  11.468  0.00  0.00    +0.000 A 
ATOM      6  C   UNL     1      45.152   4.665  12.786  0.00  0.00    +0.000 A 
ATOM      7  C   UNL     1      46.155   5.271  13.547  0.00  0.00    +0.000 A 
BRANCH   5   8
ATOM      8  C   UNL     1      43.830   4.380  10.670  0.00  0.00    +0.000 C 
BRANCH   8   9
ATOM      9  C   UNL     1      44.287   3.328   9.646  0.00  0.00    +0.000 C 
BRANCH   9  10
ATOM     10  N   UNL     1      44.836   3.909   8.414  0.00  0.00    +0.000 NA
ATOM     11  H   UNL     1      45.397   4.733   8.630  0.00  0.00    +0.000 HD
BRANCH  10  12
ATOM     12  C   UNL     1      45.607   2.940   7.627  0.00  0.00    +0.000 C 
ATOM     13  C   UNL     1      45.959   1.673   8.416  0.00  0.00    +0.000 C 
ATOM     14  C   UNL     1      46.819   0.749   7.570  0.00  0.00    +0.000 C 
ATOM     15  O   UNL     1      48.002   1.416   7.136  0.00  0.00    +0.000 OA
ATOM     16  C   UNL     1      47.712   2.556   6.326  0.00  0.00    +0.000 C 
ATOM     17  C   UNL     1      46.902   3.585   7.107  0.00  0.00    +0.000 C 
ENDBRANCH  10  12
ENDBRANCH   9  10
ENDBRANCH   8   9
ENDBRANCH   5   8
ENDBRANCH   1   2
BRANCH   1  20
ATOM     18  O   UNL     1      50.278   6.549  15.493  0.00  0.00    +0.000 OA
ATOM     19  C   UNL     1      49.142   6.427  15.942  0.00  0.00    +0.000 C 
ATOM     20  N   UNL     1      48.019   6.535  15.164  0.00  0.00    +0.000 N 
ATOM     21  H   UNL     1      47.118   6.630  15.616  0.00  0.00    +0.000 HD
BRANCH  19  22
ATOM     22  C   UNL     1      48.908   6.093  17.353  0.00  0.00    +0.000 A 
ATOM     23  C   UNL     1      49.218   4.824  17.825  0.00  0.00    +0.000 A 
ATOM     24  S   UNL     1      48.850   4.602  19.475  0.00  0.00    +0.000 S 
ATOM     25  C   UNL     1      48.309   6.210  19.629  0.00  0.00    +0.000 A 
ATOM     26  N   UNL     1      47.872   6.689  20.824  0.00  0.00    +0.000 NA
ATOM     27  C   UNL     1      47.533   7.936  20.809  0.00  0.00    +0.000 A 
ATOM     28  N   UNL     1      47.584   8.744  19.703  0.00  0.00    +0.000 N 
ATOM     29  C   UNL     1      47.938   8.284  18.459  0.00  0.00    +0.000 A 
ATOM     30  O   UNL     1      47.838   8.998  17.467  0.00  0.00    +0.000 OA
ATOM     31  C   UNL     1      48.384   6.900  18.433  0.00  0.00    +0.000 A 
ATOM     32  H   UNL     1      47.273   9.703  19.748  0.00  0.00    +0.000 HD
ENDBRANCH  19  22
ENDBRANCH   1  20
TORSDOF 7
ENDMDL
MODEL 3
REMARK VINA RESULT:    -7.429      2.199      3.805
REMARK INTER + INTRA:         -11.405
REMARK INTER:                 -10.190
REMARK INTRA:                  -1.215
REMARK UNBOUND:                -0.936
REMARK  Name = 
REMARK  7 active torsions:
REMARK  status: ('A' for Active; 'I' for Inactive)
REMARK    1  A    between atoms: C_2  and  C_20
REMARK    2  A    between atoms: N_3  and  C_4
REMARK    3  A    between atoms: C_4  and  C_5
REMARK    4  A    between atoms: C_8  and  C_9
REMARK    5  A    between atoms: C_9  and  C_10
REMARK    6  A    between atoms: C_10  and  N_11
REMARK    7  A    between atoms: N_11  and  C_12
REMARK                            x       y       z     vdW  Elec       q    Type
REMARK                         _______ _______ _______ _____ _____    ______ ____
ROOT
ATOM      1  C   UNL     1      46.814   4.297  14.776  0.00  0.00    +0.000 C 
ENDROOT
BRANCH   1   2
ATOM      2  C   UNL     1      46.113   4.407  13.451  0.00  0.00    +0.000 A 
ATOM      3  C   UNL     1      45.864   5.667  12.898  0.00  0.00    +0.000 A 
ATOM      4  C   UNL     1      45.261   5.787  11.648  0.00  0.00    +0.000 A 
ATOM      5  C   UNL     1      44.896   4.651  10.917  0.00  0.00    +0.000 A 
ATOM      6  C   UNL     1      45.083   3.390  11.502  0.00  0.00    +0.000 A 
ATOM      7  C   UNL     1      45.684   3.268  12.757  0.00  0.00    +0.000 A 
BRANCH   5   8
ATOM      8  C   UNL     1      44.264   4.740   9.548  0.00  0.00    +0.000 C 
BRANCH   8   9
ATOM      9  C   UNL     1      44.806   3.794   8.465  0.00  0.00    +0.000 C 
BRANCH   9  10
ATOM     10  N   UNL     1      46.049   4.268   7.842  0.00  0.00    +0.000 NA
ATOM     11  H   UNL     1      46.580   4.838   8.499  0.00  0.00    +0.000 HD
BRANCH  10  12
ATOM     12  C   UNL     1      46.870   3.173   7.313  0.00  0.00    +0.000 C 
ATOM     13  C   UNL     1      46.837   3.087   5.782  0.00  0.00    +0.000 C 
ATOM     14  C   UNL     1      47.643   1.890   5.305  0.00  0.00    +0.000 C 
ATOM     15  O   UNL     1      47.152   0.686   5.887  0.00  0.00    +0.000 OA
ATOM     16  C   UNL     1      47.246   0.698   7.313  0.00  0.00    +0.000 C 
ATOM     17  C   UNL     1      46.412   1.830   7.902  0.00  0.00    +0.000 C 
ENDBRANCH  10  12
ENDBRANCH   9  10
ENDBRANCH   8   9
ENDBRANCH   5   8
ENDBRANCH   1   2
BRANCH   1  20
ATOM     18  O   UNL     1      48.895   4.619  16.664  0.00  0.00    +0.000 OA
ATOM     19  C   UNL     1      48.517   5.588  16.012  0.00  0.00    +0.000 C 
ATOM     20  N   UNL     1      47.476   5.526  15.123  0.00  0.00    +0.000 N 
ATOM     21  H   UNL     1      47.342   6.290  14.472  0.00  0.00    +0.000 HD
BRANCH  19  22
ATOM     22  C   UNL     1      49.124   6.914  16.188  0.00  0.00    +0.000 A 
ATOM     23  C   UNL     1      49.236   7.461  17.460  0.00  0.00    +0.000 A 
ATOM     24  S   UNL     1      49.931   9.018  17.474  0.00  0.00    +0.000 S 
ATOM     25  C   UNL     1      50.152   8.996  15.785  0.00  0.00    +0.000 A 
ATOM     26  N   UNL     1      50.737  10.042  15.143  0.00  0.00    +0.000 NA
ATOM     27  C   UNL     1      50.881   9.874  13.870  0.00  0.00    +0.000 A 
ATOM     28  N   UNL     1      50.484   8.758  13.179  0.00  0.00    +0.000 N 
ATOM     29  C   UNL     1      49.815   7.715  13.771  0.00  0.00    +0.000 A 
ATOM     30  O   UNL     1      49.353   6.799  13.101  0.00  0.00    +0.000 OA
ATOM     31  C   UNL     1      49.678   7.828  15.214  0.00  0.00    +0.000 A 
ATOM     32  H   UNL     1      50.595   8.702  12.178  0.00  0.00    +0.000 HD
ENDBRANCH  19  22
ENDBRANCH   1  20
TORSDOF 7
ENDMDL
MODEL 4
REMARK VINA RESULT:    -7.329      1.464      1.798
REMARK INTER + INTRA:         -11.265
REMARK INTER:                 -10.167
REMARK INTRA:                  -1.098
REMARK UNBOUND:                -0.936
REMARK  Name = 
REMARK  7 active torsions:
REMARK  status: ('A' for Active; 'I' for Inactive)
REMARK    1  A    between atoms: C_2  and  C_20
REMARK    2  A    between atoms: N_3  and  C_4
REMARK    3  A    between atoms: C_4  and  C_5
REMARK    4  A    between atoms: C_8  and  C_9
REMARK    5  A    between atoms: C_9  and  C_10
REMARK    6  A    between atoms: C_10  and  N_11
REMARK    7  A    between atoms: N_11  and  C_12
REMARK                            x       y       z     vdW  Elec       q    Type
REMARK                         _______ _______ _______ _____ _____    ______ ____
ROOT
ATOM      1  C   UNL     1      48.015   7.691  13.762  0.00  0.00    +0.000 C 
ENDROOT
BRANCH   1   2
ATOM      2  C   UNL     1      46.857   6.812  13.377  0.00  0.00    +0.000 A 
ATOM      3  C   UNL     1      46.928   5.433  13.599  0.00  0.00    +0.000 A 
ATOM      4  C   UNL     1      45.846   4.609  13.295  0.00  0.00    +0.000 A 
ATOM      5  C   UNL     1      44.666   5.143  12.767  0.00  0.00    +0.000 A 
ATOM      6  C   UNL     1      44.622   6.515  12.480  0.00  0.00    +0.000 A 
ATOM      7  C   UNL     1      45.707   7.342  12.780  0.00  0.00    +0.000 A 
BRANCH   5   8
ATOM      8  C   UNL     1      43.463   4.287  12.449  0.00  0.00    +0.000 C 
BRANCH   8   9
ATOM      9  C   UNL     1      43.722   2.806  12.133  0.00  0.00    +0.000 C 
BRANCH   9  10
ATOM     10  N   UNL     1      43.540   2.467  10.716  0.00  0.00    +0.000 NA
ATOM     11  H   UNL     1      42.711   2.930  10.345  0.00  0.00    +0.000 HD
BRANCH  10  12
ATOM     12  C   UNL     1      44.722   2.776   9.903  0.00  0.00    +0.000 C 
ATOM     13  C   UNL     1      44.573   4.074   9.101  0.00  0.00    +0.000 C 
ATOM     14  C   UNL     1      45.797   4.295   8.227  0.00  0.00    +0.000 C 
ATOM     15  O   UNL     1      46.002   3.185   7.355  0.00  0.00    +0.000 OA
ATOM     16  C   UNL     1      46.228   1.971   8.073  0.00  0.00    +0.000 C 
ATOM     17  C   UNL     1      45.023   1.619   8.938  0.00  0.00    +0.000 C 
ENDBRANCH  10  12
ENDBRANCH   9  10
ENDBRANCH   8   9
ENDBRANCH   5   8
ENDBRANCH   1   2
BRANCH   1  20
ATOM     18  O   UNL     1      49.818   6.377  15.501  0.00  0.00    +0.000 OA
ATOM     19  C   UNL     1      49.043   7.214  15.955  0.00  0.00    +0.000 C 
ATOM     20  N   UNL     1      48.102   7.850  15.188  0.00  0.00    +0.000 N 
ATOM     21  H   UNL     1      47.635   8.667  15.563  0.00  0.00    +0.000 HD
BRANCH  19  22
ATOM     22  C   UNL     1      49.034   7.553  17.384  0.00  0.00    +0.000 A 
ATOM     23  C   UNL     1      49.698   8.687  17.832  0.00  0.00    +0.000 A 
ATOM     24  S   UNL     1      49.612   8.905  19.521  0.00  0.00    +0.000 S 
ATOM     25  C   UNL     1      48.642   7.517  19.708  0.00  0.00    +0.000 A 
ATOM     26  N   UNL     1      48.186   7.142  20.933  0.00  0.00    +0.000 NA
ATOM     27  C   UNL     1      47.425   6.098  20.923  0.00  0.00    +0.000 A 
ATOM     28  N   UNL     1      47.088   5.388  19.799  0.00  0.00    +0.000 N 
ATOM     29  C   UNL     1      47.592   5.679  18.556  0.00  0.00    +0.000 A 
ATOM     30  O   UNL     1      47.381   4.941  17.599  0.00  0.00    +0.000 OA
ATOM     31  C   UNL     1      48.408   6.881  18.502  0.00  0.00    +0.000 A 
ATOM     32  H   UNL     1      46.517   4.559  19.863  0.00  0.00    +0.000 HD
ENDBRANCH  19  22
ENDBRANCH   1  20
TORSDOF 7
ENDMDL
MODEL 5
REMARK VINA RESULT:    -7.205      3.004      8.776
REMARK INTER + INTRA:         -11.089
REMARK INTER:                  -9.807
REMARK INTRA:                  -1.282
REMARK UNBOUND:                -0.936
REMARK  Name = 
REMARK  7 active torsions:
REMARK  status: ('A' for Active; 'I' for Inactive)
REMARK    1  A    between atoms: C_2  and  C_20
REMARK    2  A    between atoms: N_3  and  C_4
REMARK    3  A    between atoms: C_4  and  C_5
REMARK    4  A    between atoms: C_8  and  C_9
REMARK    5  A    between atoms: C_9  and  C_10
REMARK    6  A    between atoms: C_10  and  N_11
REMARK    7  A    between atoms: N_11  and  C_12
REMARK                            x       y       z     vdW  Elec       q    Type
REMARK                         _______ _______ _______ _____ _____    ______ ____
ROOT
ATOM      1  C   UNL     1      47.777   7.702  11.875  0.00  0.00    +0.000 C 
ENDROOT
BRANCH   1   2
ATOM      2  C   UNL     1      48.650   7.647  13.098  0.00  0.00    +0.000 A 
ATOM      3  C   UNL     1      48.129   7.163  14.302  0.00  0.00    +0.000 A 
ATOM      4  C   UNL     1      48.936   7.058  15.432  0.00  0.00    +0.000 A 
ATOM      5  C   UNL     1      50.284   7.428  15.386  0.00  0.00    +0.000 A 
ATOM      6  C   UNL     1      50.787   7.978  14.199  0.00  0.00    +0.000 A 
ATOM      7  C   UNL     1      49.979   8.088  13.065  0.00  0.00    +0.000 A 
BRANCH   5   8
ATOM      8  C   UNL     1      51.198   7.304  16.583  0.00  0.00    +0.000 C 
BRANCH   8   9
ATOM      9  C   UNL     1      51.539   5.883  17.058  0.00  0.00    +0.000 C 
BRANCH   9  10
ATOM     10  N   UNL     1      50.687   5.412  18.158  0.00  0.00    +0.000 NA
ATOM     11  H   UNL     1      49.898   6.044  18.291  0.00  0.00    +0.000 HD
BRANCH  10  12
ATOM     12  C   UNL     1      50.228   4.031  17.966  0.00  0.00    +0.000 C 
ATOM     13  C   UNL     1      51.318   3.112  17.403  0.00  0.00    +0.000 C 
ATOM     14  C   UNL     1      50.757   1.720  17.158  0.00  0.00    +0.000 C 
ATOM     15  O   UNL     1      49.640   1.775  16.275  0.00  0.00    +0.000 OA
ATOM     16  C   UNL     1      48.569   2.557  16.807  0.00  0.00    +0.000 C 
ATOM     17  C   UNL     1      49.010   4.000  17.030  0.00  0.00    +0.000 C 
ENDBRANCH  10  12
ENDBRANCH   9  10
ENDBRANCH   8   9
ENDBRANCH   5   8
ENDBRANCH   1   2
BRANCH   1  20
ATOM     18  O   UNL     1      44.976   7.476  12.193  0.00  0.00    +0.000 OA
ATOM     19  C   UNL     1      45.626   6.491  11.854  0.00  0.00    +0.000 C 
ATOM     20  N   UNL     1      46.991   6.506  11.736  0.00  0.00    +0.000 N 
ATOM     21  H   UNL     1      47.450   5.738  11.262  0.00  0.00    +0.000 HD
BRANCH  19  22
ATOM     22  C   UNL     1      44.980   5.195  11.606  0.00  0.00    +0.000 A 
ATOM     23  C   UNL     1      44.260   4.576  12.620  0.00  0.00    +0.000 A 
ATOM     24  S   UNL     1      43.610   3.066  12.168  0.00  0.00    +0.000 S 
ATOM     25  C   UNL     1      44.225   3.210  10.586  0.00  0.00    +0.000 A 
ATOM     26  N   UNL     1      43.998   2.244   9.656  0.00  0.00    +0.000 NA
ATOM     27  C   UNL     1      44.484   2.502   8.487  0.00  0.00    +0.000 A 
ATOM     28  N   UNL     1      45.187   3.635   8.167  0.00  0.00    +0.000 N 
ATOM     29  C   UNL     1      45.513   4.596   9.093  0.00  0.00    +0.000 A 
ATOM     30  O   UNL     1      46.260   5.524   8.804  0.00  0.00    +0.000 OA
ATOM     31  C   UNL     1      44.940   4.381  10.412  0.00  0.00    +0.000 A 
ATOM     32  H   UNL     1      45.571   3.762   7.243  0.00  0.00    +0.000 HD
ENDBRANCH  19  22
ENDBRANCH   1  20
TORSDOF 7
ENDMDL
MODEL 6
REMARK VINA RESULT:    -7.087      1.656      2.990
REMARK INTER + INTRA:         -10.924
REMARK INTER:                  -9.848
REMARK INTRA:                  -1.076
REMARK UNBOUND:                -0.936
REMARK  Name = 
REMARK  7 active torsions:
REMARK  status: ('A' for Active; 'I' for Inactive)
REMARK    1  A    between atoms: C_2  and  C_20
REMARK    2  A    between atoms: N_3  and  C_4
REMARK    3  A    between atoms: C_4  and  C_5
REMARK    4  A    between atoms: C_8  and  C_9
REMARK    5  A    between atoms: C_9  and  C_10
REMARK    6  A    between atoms: C_10  and  N_11
REMARK    7  A    between atoms: N_11  and  C_12
REMARK                            x       y       z     vdW  Elec       q    Type
REMARK                         _______ _______ _______ _____ _____    ______ ____
ROOT
ATOM      1  C   UNL     1      47.456   3.970  15.478  0.00  0.00    +0.000 C 
ENDROOT
BRANCH   1   2
ATOM      2  C   UNL     1      46.845   4.300  14.145  0.00  0.00    +0.000 A 
ATOM      3  C   UNL     1      46.265   3.286  13.376  0.00  0.00    +0.000 A 
ATOM      4  C   UNL     1      45.650   3.580  12.162  0.00  0.00    +0.000 A 
ATOM      5  C   UNL     1      45.594   4.896  11.687  0.00  0.00    +0.000 A 
ATOM      6  C   UNL     1      46.236   5.901  12.425  0.00  0.00    +0.000 A 
ATOM      7  C   UNL     1      46.857   5.607  13.641  0.00  0.00    +0.000 A 
BRANCH   5   8
ATOM      8  C   UNL     1      44.914   5.258  10.388  0.00  0.00    +0.000 C 
BRANCH   8   9
ATOM      9  C   UNL     1      44.339   4.103   9.554  0.00  0.00    +0.000 C 
BRANCH   9  10
ATOM     10  N   UNL     1      44.537   4.269   8.108  0.00  0.00    +0.000 NA
ATOM     11  H   UNL     1      44.965   5.173   7.910  0.00  0.00    +0.000 HD
BRANCH  10  12
ATOM     12  C   UNL     1      45.316   3.177   7.514  0.00  0.00    +0.000 C 
ATOM     13  C   UNL     1      45.662   2.074   8.522  0.00  0.00    +0.000 C 
ATOM     14  C   UNL     1      46.531   1.014   7.864  0.00  0.00    +0.000 C 
ATOM     15  O   UNL     1      47.717   1.596   7.328  0.00  0.00    +0.000 OA
ATOM     16  C   UNL     1      47.433   2.571   6.323  0.00  0.00    +0.000 C 
ATOM     17  C   UNL     1      46.614   3.721   6.899  0.00  0.00    +0.000 C 
ENDBRANCH  10  12
ENDBRANCH   9  10
ENDBRANCH   8   9
ENDBRANCH   5   8
ENDBRANCH   1   2
BRANCH   1  20
ATOM     18  O   UNL     1      49.701   4.843  16.960  0.00  0.00    +0.000 OA
ATOM     19  C   UNL     1      48.674   5.517  16.968  0.00  0.00    +0.000 C 
ATOM     20  N   UNL     1      47.528   5.131  16.324  0.00  0.00    +0.000 N 
ATOM     21  H   UNL     1      46.788   5.810  16.193  0.00  0.00    +0.000 HD
BRANCH  19  22
ATOM     22  C   UNL     1      48.586   6.770  17.729  0.00  0.00    +0.000 A 
ATOM     23  C   UNL     1      48.579   6.738  19.117  0.00  0.00    +0.000 A 
ATOM     24  S   UNL     1      48.436   8.279  19.833  0.00  0.00    +0.000 S 
ATOM     25  C   UNL     1      48.430   9.047  18.313  0.00  0.00    +0.000 A 
ATOM     26  N   UNL     1      48.355  10.402  18.214  0.00  0.00    +0.000 NA
ATOM     27  C   UNL     1      48.404  10.853  17.004  0.00  0.00    +0.000 A 
ATOM     28  N   UNL     1      48.510  10.070  15.883  0.00  0.00    +0.000 N 
ATOM     29  C   UNL     1      48.504   8.698  15.929  0.00  0.00    +0.000 A 
ATOM     30  O   UNL     1      48.460   8.031  14.901  0.00  0.00    +0.000 OA
ATOM     31  C   UNL     1      48.509   8.140  17.272  0.00  0.00    +0.000 A 
ATOM     32  H   UNL     1      48.509  10.483  14.962  0.00  0.00    +0.000 HD
ENDBRANCH  19  22
ENDBRANCH   1  20
TORSDOF 7
ENDMDL
MODEL 7
REMARK VINA RESULT:    -7.055      1.639      2.143
REMARK INTER + INTRA:         -10.878
REMARK INTER:                  -9.854
REMARK INTRA:                  -1.024
REMARK UNBOUND:                -0.936
REMARK  Name = 
REMARK  7 active torsions:
REMARK  status: ('A' for Active; 'I' for Inactive)
REMARK    1  A    between atoms: C_2  and  C_20
REMARK    2  A    between atoms: N_3  and  C_4
REMARK    3  A    between atoms: C_4  and  C_5
REMARK    4  A    between atoms: C_8  and  C_9
REMARK    5  A    between atoms: C_9  and  C_10
REMARK    6  A    between atoms: C_10  and  N_11
REMARK    7  A    between atoms: N_11  and  C_12
REMARK                            x       y       z     vdW  Elec       q    Type
REMARK                         _______ _______ _______ _____ _____    ______ ____
ROOT
ATOM      1  C   UNL     1      47.552   4.186  15.510  0.00  0.00    +0.000 C 
ENDROOT
BRANCH   1   2
ATOM      2  C   UNL     1      46.907   4.483  14.185  0.00  0.00    +0.000 A 
ATOM      3  C   UNL     1      46.266   3.460  13.479  0.00  0.00    +0.000 A 
ATOM      4  C   UNL     1      45.620   3.727  12.274  0.00  0.00    +0.000 A 
ATOM      5  C   UNL     1      45.593   5.023  11.748  0.00  0.00    +0.000 A 
ATOM      6  C   UNL     1      46.293   6.034  12.421  0.00  0.00    +0.000 A 
ATOM      7  C   UNL     1      46.945   5.767  13.627  0.00  0.00    +0.000 A 
BRANCH   5   8
ATOM      8  C   UNL     1      44.881   5.357  10.458  0.00  0.00    +0.000 C 
BRANCH   8   9
ATOM      9  C   UNL     1      45.537   4.879   9.153  0.00  0.00    +0.000 C 
BRANCH   9  10
ATOM     10  N   UNL     1      44.717   3.918   8.402  0.00  0.00    +0.000 NA
ATOM     11  H   UNL     1      44.068   4.409   7.789  0.00  0.00    +0.000 HD
BRANCH  10  12
ATOM     12  C   UNL     1      45.526   2.954   7.647  0.00  0.00    +0.000 C 
ATOM     13  C   UNL     1      45.875   1.701   8.460  0.00  0.00    +0.000 C 
ATOM     14  C   UNL     1      46.774   0.782   7.648  0.00  0.00    +0.000 C 
ATOM     15  O   UNL     1      47.957   1.464   7.240  0.00  0.00    +0.000 OA
ATOM     16  C   UNL     1      47.672   2.591   6.410  0.00  0.00    +0.000 C 
ATOM     17  C   UNL     1      46.823   3.614   7.157  0.00  0.00    +0.000 C 
ENDBRANCH  10  12
ENDBRANCH   9  10
ENDBRANCH   8   9
ENDBRANCH   5   8
ENDBRANCH   1   2
BRANCH   1  20
ATOM     18  O   UNL     1      49.927   5.395  16.457  0.00  0.00    +0.000 OA
ATOM     19  C   UNL     1      48.845   5.923  16.696  0.00  0.00    +0.000 C 
ATOM     20  N   UNL     1      47.648   5.368  16.324  0.00  0.00    +0.000 N 
ATOM     21  H   UNL     1      46.811   5.937  16.364  0.00  0.00    +0.000 HD
BRANCH  19  22
ATOM     22  C   UNL     1      48.755   7.173  17.463  0.00  0.00    +0.000 A 
ATOM     23  C   UNL     1      49.128   8.374  16.874  0.00  0.00    +0.000 A 
ATOM     24  S   UNL     1      48.994   9.716  17.919  0.00  0.00    +0.000 S 
ATOM     25  C   UNL     1      48.386   8.745  19.179  0.00  0.00    +0.000 A 
ATOM     26  N   UNL     1      48.034   9.290  20.374  0.00  0.00    +0.000 NA
ATOM     27  C   UNL     1      47.547   8.446  21.224  0.00  0.00    +0.000 A 
ATOM     28  N   UNL     1      47.390   7.105  20.989  0.00  0.00    +0.000 N 
ATOM     29  C   UNL     1      47.808   6.497  19.831  0.00  0.00    +0.000 A 
ATOM     30  O   UNL     1      47.780   5.277  19.711  0.00  0.00    +0.000 OA
ATOM     31  C   UNL     1      48.311   7.412  18.818  0.00  0.00    +0.000 A 
ATOM     32  H   UNL     1      47.035   6.492  21.708  0.00  0.00    +0.000 HD
ENDBRANCH  19  22
ENDBRANCH   1  20
TORSDOF 7
ENDMDL
MODEL 8
REMARK VINA RESULT:    -6.953      3.493      5.194
REMARK INTER + INTRA:         -10.734
REMARK INTER:                  -9.481
REMARK INTRA:                  -1.253
REMARK UNBOUND:                -0.936
REMARK  Name = 
REMARK  7 active torsions:
REMARK  status: ('A' for Active; 'I' for Inactive)
REMARK    1  A    between atoms: C_2  and  C_20
REMARK    2  A    between atoms: N_3  and  C_4
REMARK    3  A    between atoms: C_4  and  C_5
REMARK    4  A    between atoms: C_8  and  C_9
REMARK    5  A    between atoms: C_9  and  C_10
REMARK    6  A    between atoms: C_10  and  N_11
REMARK    7  A    between atoms: N_11  and  C_12
REMARK                            x       y       z     vdW  Elec       q    Type
REMARK                         _______ _______ _______ _____ _____    ______ ____
ROOT
ATOM      1  C   UNL     1      47.692   3.408  17.233  0.00  0.00    +0.000 C 
ENDROOT
BRANCH   1   2
ATOM      2  C   UNL     1      47.601   4.234  15.981  0.00  0.00    +0.000 A 
ATOM      3  C   UNL     1      48.131   5.528  15.962  0.00  0.00    +0.000 A 
ATOM      4  C   UNL     1      48.101   6.290  14.796  0.00  0.00    +0.000 A 
ATOM      5  C   UNL     1      47.546   5.776  13.619  0.00  0.00    +0.000 A 
ATOM      6  C   UNL     1      46.953   4.506  13.658  0.00  0.00    +0.000 A 
ATOM      7  C   UNL     1      46.979   3.742  14.827  0.00  0.00    +0.000 A 
BRANCH   5   8
ATOM      8  C   UNL     1      47.518   6.561  12.329  0.00  0.00    +0.000 C 
BRANCH   8   9
ATOM      9  C   UNL     1      46.183   7.215  11.937  0.00  0.00    +0.000 C 
BRANCH   9  10
ATOM     10  N   UNL     1      45.541   6.587  10.775  0.00  0.00    +0.000 NA
ATOM     11  H   UNL     1      46.232   6.088  10.215  0.00  0.00    +0.000 HD
BRANCH  10  12
ATOM     12  C   UNL     1      44.431   5.703  11.150  0.00  0.00    +0.000 C 
ATOM     13  C   UNL     1      43.992   5.884  12.608  0.00  0.00    +0.000 C 
ATOM     14  C   UNL     1      42.894   4.889  12.952  0.00  0.00    +0.000 C 
ATOM     15  O   UNL     1      43.333   3.553  12.720  0.00  0.00    +0.000 OA
ATOM     16  C   UNL     1      43.672   3.327  11.351  0.00  0.00    +0.000 C 
ATOM     17  C   UNL     1      44.818   4.235  10.918  0.00  0.00    +0.000 C 
ENDBRANCH  10  12
ENDBRANCH   9  10
ENDBRANCH   8   9
ENDBRANCH   5   8
ENDBRANCH   1   2
BRANCH   1  20
ATOM     18  O   UNL     1      49.490   1.593  16.020  0.00  0.00    +0.000 OA
ATOM     19  C   UNL     1      49.884   2.313  16.933  0.00  0.00    +0.000 C 
ATOM     20  N   UNL     1      49.060   3.173  17.609  0.00  0.00    +0.000 N 
ATOM     21  H   UNL     1      49.474   3.881  18.204  0.00  0.00    +0.000 HD
BRANCH  19  22
ATOM     22  C   UNL     1      51.273   2.255  17.409  0.00  0.00    +0.000 A 
ATOM     23  C   UNL     1      51.899   1.025  17.568  0.00  0.00    +0.000 A 
ATOM     24  S   UNL     1      53.494   1.145  18.162  0.00  0.00    +0.000 S 
ATOM     25  C   UNL     1      53.420   2.847  18.179  0.00  0.00    +0.000 A 
ATOM     26  N   UNL     1      54.491   3.589  18.567  0.00  0.00    +0.000 NA
ATOM     27  C   UNL     1      54.312   4.867  18.490  0.00  0.00    +0.000 A 
ATOM     28  N   UNL     1      53.154   5.469  18.069  0.00  0.00    +0.000 N 
ATOM     29  C   UNL     1      52.021   4.762  17.749  0.00  0.00    +0.000 A 
ATOM     30  O   UNL     1      50.964   5.336  17.511  0.00  0.00    +0.000 OA
ATOM     31  C   UNL     1      52.187   3.317  17.763  0.00  0.00    +0.000 A 
ATOM     32  H   UNL     1      53.065   6.474  18.064  0.00  0.00    +0.000 HD
ENDBRANCH  19  22
ENDBRANCH   1  20
TORSDOF 7
ENDMDL
MODEL 9
REMARK VINA RESULT:    -6.926      3.526      8.026
REMARK INTER + INTRA:         -10.697
REMARK INTER:                  -8.637
REMARK INTRA:                  -2.060
REMARK UNBOUND:                -0.936
REMARK  Name = 
REMARK  7 active torsions:
REMARK  status: ('A' for Active; 'I' for Inactive)
REMARK    1  A    between atoms: C_2  and  C_20
REMARK    2  A    between atoms: N_3  and  C_4
REMARK    3  A    between atoms: C_4  and  C_5
REMARK    4  A    between atoms: C_8  and  C_9
REMARK    5  A    between atoms: C_9  and  C_10
REMARK    6  A    between atoms: C_10  and  N_11
REMARK    7  A    between atoms: N_11  and  C_12
REMARK                            x       y       z     vdW  Elec       q    Type
REMARK                         _______ _______ _______ _____ _____    ______ ____
ROOT
ATOM      1  C   UNL     1      48.093   8.971  14.699  0.00  0.00    +0.000 C 
ENDROOT
BRANCH   1   2
ATOM      2  C   UNL     1      48.868   8.224  15.748  0.00  0.00    +0.000 A 
ATOM      3  C   UNL     1      49.809   7.264  15.364  0.00  0.00    +0.000 A 
ATOM      4  C   UNL     1      50.572   6.597  16.321  0.00  0.00    +0.000 A 
ATOM      5  C   UNL     1      50.417   6.877  17.683  0.00  0.00    +0.000 A 
ATOM      6  C   UNL     1      49.425   7.789  18.070  0.00  0.00    +0.000 A 
ATOM      7  C   UNL     1      48.656   8.455  17.113  0.00  0.00    +0.000 A 
BRANCH   5   8
ATOM      8  C   UNL     1      51.244   6.195  18.747  0.00  0.00    +0.000 C 
BRANCH   8   9
ATOM      9  C   UNL     1      51.102   4.670  18.872  0.00  0.00    +0.000 C 
BRANCH   9  10
ATOM     10  N   UNL     1      49.828   4.247  19.470  0.00  0.00    +0.000 NA
ATOM     11  H   UNL     1      49.320   5.054  19.831  0.00  0.00    +0.000 HD
BRANCH  10  12
ATOM     12  C   UNL     1      48.996   3.474  18.541  0.00  0.00    +0.000 C 
ATOM     13  C   UNL     1      49.801   2.857  17.390  0.00  0.00    +0.000 C 
ATOM     14  C   UNL     1      48.871   2.137  16.427  0.00  0.00    +0.000 C 
ATOM     15  O   UNL     1      47.877   3.026  15.925  0.00  0.00    +0.000 OA
ATOM     16  C   UNL     1      47.053   3.556  16.964  0.00  0.00    +0.000 C 
ATOM     17  C   UNL     1      47.884   4.359  17.959  0.00  0.00    +0.000 C 
ENDBRANCH  10  12
ENDBRANCH   9  10
ENDBRANCH   8   9
ENDBRANCH   5   8
ENDBRANCH   1   2
BRANCH   1  20
ATOM     18  O   UNL     1      47.317   8.915  11.980  0.00  0.00    +0.000 OA
ATOM     19  C   UNL     1      46.791   8.140  12.773  0.00  0.00    +0.000 C 
ATOM     20  N   UNL     1      47.070   8.147  14.115  0.00  0.00    +0.000 N 
ATOM     21  H   UNL     1      46.768   7.364  14.681  0.00  0.00    +0.000 HD
BRANCH  19  22
ATOM     22  C   UNL     1      45.767   7.179  12.341  0.00  0.00    +0.000 A 
ATOM     23  C   UNL     1      44.669   7.618  11.612  0.00  0.00    +0.000 A 
ATOM     24  S   UNL     1      43.567   6.376  11.226  0.00  0.00    +0.000 S 
ATOM     25  C   UNL     1      44.543   5.199  11.977  0.00  0.00    +0.000 A 
ATOM     26  N   UNL     1      44.179   3.889  11.981  0.00  0.00    +0.000 NA
ATOM     27  C   UNL     1      45.033   3.099  12.546  0.00  0.00    +0.000 A 
ATOM     28  N   UNL     1      46.212   3.504  13.115  0.00  0.00    +0.000 N 
ATOM     29  C   UNL     1      46.580   4.824  13.209  0.00  0.00    +0.000 A 
ATOM     30  O   UNL     1      47.572   5.160  13.846  0.00  0.00    +0.000 OA
ATOM     31  C   UNL     1      45.681   5.749  12.537  0.00  0.00    +0.000 A 
ATOM     32  H   UNL     1      46.821   2.841  13.572  0.00  0.00    +0.000 HD
ENDBRANCH  19  22
ENDBRANCH   1  20
TORSDOF 7
ENDMDL
