MODEL 1
REMARK VINA RESULT:    -8.194      0.000      0.000
REMARK INTER + INTRA:         -12.506
REMARK INTER:                 -11.308
REMARK INTRA:                  -1.198
REMARK UNBOUND:                -1.198
REMARK  Name = 
REMARK  7 active torsions:
REMARK  status: ('A' for Active; 'I' for Inactive)
REMARK    1  A    between atoms: C_2  and  C_20
REMARK    2  A    between atoms: N_3  and  C_4
REMARK    3  A    between atoms: C_4  and  C_5
REMARK    4  A    between atoms: C_8  and  C_9
REMARK    5  A    between atoms: C_9  and  C_10
REMARK    6  A    between atoms: C_10  and  O_11
REMARK    7  A    between atoms: C_10  and  C_12
REMARK                            x       y       z     vdW  Elec       q    Type
REMARK                         _______ _______ _______ _____ _____    ______ ____
ROOT
ATOM      1  C   UNL     1      46.718   8.181  13.251  0.00  0.00    +0.000 C 
ENDROOT
BRANCH   1   2
ATOM      2  C   UNL     1      46.051   7.134  12.408  0.00  0.00    +0.000 A 
ATOM      3  C   UNL     1      44.878   6.530  12.869  0.00  0.00    +0.000 A 
ATOM      4  C   UNL     1      44.231   5.559  12.106  0.00  0.00    +0.000 A 
ATOM      5  C   UNL     1      44.742   5.177  10.862  0.00  0.00    +0.000 A 
ATOM      6  C   UNL     1      45.948   5.747  10.425  0.00  0.00    +0.000 A 
ATOM      7  C   UNL     1      46.599   6.716  11.191  0.00  0.00    +0.000 A 
BRANCH   5   8
ATOM      8  C   UNL     1      44.073   4.128  10.000  0.00  0.00    +0.000 C 
BRANCH   8   9
ATOM      9  C   UNL     1      44.843   2.803   9.806  0.00  0.00    +0.000 C 
BRANCH   9  10
ATOM     10  C   UNL     1      45.617   2.673   8.515  0.00  0.00    +0.000 A 
ATOM     11  C   UNL     1      46.282   1.470   8.232  0.00  0.00    +0.000 A 
ATOM     12  C   UNL     1      47.001   1.328   7.050  0.00  0.00    +0.000 A 
ATOM     13  C   UNL     1      47.040   2.400   6.179  0.00  0.00    +0.000 A 
ATOM     14  N   UNL     1      46.424   3.577   6.411  0.00  0.00    +0.000 NA
ATOM     15  C   UNL     1      45.733   3.686   7.570  0.00  0.00    +0.000 A 
ENDBRANCH   9  10
BRANCH   9  16
ATOM     16  O   UNL     1      43.939   1.694   9.870  0.00  0.00    +0.000 OA
ATOM     17  H   UNL     1      44.437   0.898   9.625  0.00  0.00    +0.000 HD
ENDBRANCH   9  16
ENDBRANCH   8   9
ENDBRANCH   5   8
ENDBRANCH   1   2
BRANCH   1  20
ATOM     18  O   UNL     1      49.270   6.918  13.380  0.00  0.00    +0.000 OA
ATOM     19  C   UNL     1      48.541   6.939  14.366  0.00  0.00    +0.000 C 
ATOM     20  N   UNL     1      47.335   7.591  14.405  0.00  0.00    +0.000 N 
ATOM     21  H   UNL     1      46.768   7.541  15.237  0.00  0.00    +0.000 HD
BRANCH  19  22
ATOM     22  C   UNL     1      48.920   6.295  15.622  0.00  0.00    +0.000 A 
ATOM     23  C   UNL     1      49.989   6.762  16.371  0.00  0.00    +0.000 A 
ATOM     24  S   UNL     1      50.225   5.892  17.822  0.00  0.00    +0.000 S 
ATOM     25  C   UNL     1      48.933   4.839  17.470  0.00  0.00    +0.000 A 
ATOM     26  N   UNL     1      48.584   3.837  18.321  0.00  0.00    +0.000 NA
ATOM     27  C   UNL     1      47.598   3.110  17.914  0.00  0.00    +0.000 A 
ATOM     28  N   UNL     1      46.932   3.285  16.729  0.00  0.00    +0.000 N 
ATOM     29  C   UNL     1      47.242   4.285  15.839  0.00  0.00    +0.000 A 
ATOM     30  O   UNL     1      46.600   4.427  14.806  0.00  0.00    +0.000 OA
ATOM     31  C   UNL     1      48.334   5.144  16.263  0.00  0.00    +0.000 A 
ATOM     32  H   UNL     1      46.165   2.684  16.467  0.00  0.00    +0.000 HD
ENDBRANCH  19  22
ENDBRANCH   1  20
TORSDOF 7
ENDMDL
MODEL 2
REMARK VINA RESULT:    -7.904      3.365      5.373
REMARK INTER + INTRA:         -12.106
REMARK INTER:                 -11.257
REMARK INTRA:                  -0.849
REMARK UNBOUND:                -1.198
REMARK  Name = 
REMARK  7 active torsions:
REMARK  status: ('A' for Active; 'I' for Inactive)
REMARK    1  A    between atoms: C_2  and  C_20
REMARK    2  A    between atoms: N_3  and  C_4
REMARK    3  A    between atoms: C_4  and  C_5
REMARK    4  A    between atoms: C_8  and  C_9
REMARK    5  A    between atoms: C_9  and  C_10
REMARK    6  A    between atoms: C_10  and  O_11
REMARK    7  A    between atoms: C_10  and  C_12
REMARK                            x       y       z     vdW  Elec       q    Type
REMARK                         _______ _______ _______ _____ _____    ______ ____
ROOT
ATOM      1  C   UNL     1      44.228   4.965  10.417  0.00  0.00    +0.000 C 
ENDROOT
BRANCH   1   2
ATOM      2  C   UNL     1      44.924   3.995   9.509  0.00  0.00    +0.000 A 
ATOM      3  C   UNL     1      45.728   4.481   8.475  0.00  0.00    +0.000 A 
ATOM      4  C   UNL     1      46.392   3.604   7.619  0.00  0.00    +0.000 A 
ATOM      5  C   UNL     1      46.273   2.221   7.786  0.00  0.00    +0.000 A 
ATOM      6  C   UNL     1      45.424   1.736   8.793  0.00  0.00    +0.000 A 
ATOM      7  C   UNL     1      44.754   2.614   9.648  0.00  0.00    +0.000 A 
BRANCH   5   8
ATOM      8  C   UNL     1      46.976   1.232   6.881  0.00  0.00    +0.000 C 
BRANCH   8   9
ATOM      9  C   UNL     1      47.206   1.678   5.421  0.00  0.00    +0.000 C 
BRANCH   9  10
ATOM     10  C   UNL     1      46.787   0.692   4.356  0.00  0.00    +0.000 A 
ATOM     11  C   UNL     1      46.076   1.150   3.237  0.00  0.00    +0.000 A 
ATOM     12  C   UNL     1      45.680   0.260   2.244  0.00  0.00    +0.000 A 
ATOM     13  C   UNL     1      46.003  -1.074   2.401  0.00  0.00    +0.000 A 
ATOM     14  N   UNL     1      46.678  -1.563   3.462  0.00  0.00    +0.000 NA
ATOM     15  C   UNL     1      47.049  -0.673   4.412  0.00  0.00    +0.000 A 
ENDBRANCH   9  10
BRANCH   9  16
ATOM     16  O   UNL     1      48.592   1.967   5.207  0.00  0.00    +0.000 OA
ATOM     17  H   UNL     1      49.074   1.125   5.238  0.00  0.00    +0.000 HD
ENDBRANCH   9  16
ENDBRANCH   8   9
ENDBRANCH   5   8
ENDBRANCH   1   2
BRANCH   1  20
ATOM     18  O   UNL     1      45.123   5.671  13.029  0.00  0.00    +0.000 OA
ATOM     19  C   UNL     1      45.427   6.364  12.064  0.00  0.00    +0.000 C 
ATOM     20  N   UNL     1      45.099   6.050  10.771  0.00  0.00    +0.000 N 
ATOM     21  H   UNL     1      45.351   6.681  10.025  0.00  0.00    +0.000 HD
BRANCH  19  22
ATOM     22  C   UNL     1      46.216   7.587  12.208  0.00  0.00    +0.000 A 
ATOM     23  C   UNL     1      45.683   8.823  11.875  0.00  0.00    +0.000 A 
ATOM     24  S   UNL     1      46.760  10.118  12.165  0.00  0.00    +0.000 S 
ATOM     25  C   UNL     1      47.981   9.060  12.703  0.00  0.00    +0.000 A 
ATOM     26  N   UNL     1      49.190   9.526  13.115  0.00  0.00    +0.000 NA
ATOM     27  C   UNL     1      50.022   8.607  13.478  0.00  0.00    +0.000 A 
ATOM     28  N   UNL     1      49.760   7.262  13.459  0.00  0.00    +0.000 N 
ATOM     29  C   UNL     1      48.553   6.742  13.057  0.00  0.00    +0.000 A 
ATOM     30  O   UNL     1      48.349   5.535  13.086  0.00  0.00    +0.000 OA
ATOM     31  C   UNL     1      47.577   7.740  12.658  0.00  0.00    +0.000 A 
ATOM     32  H   UNL     1      50.452   6.591  13.759  0.00  0.00    +0.000 HD
ENDBRANCH  19  22
ENDBRANCH   1  20
TORSDOF 7
ENDMDL
MODEL 3
REMARK VINA RESULT:    -7.834      2.992      4.548
REMARK INTER + INTRA:         -12.009
REMARK INTER:                 -11.625
REMARK INTRA:                  -0.384
REMARK UNBOUND:                -1.198
REMARK  Name = 
REMARK  7 active torsions:
REMARK  status: ('A' for Active; 'I' for Inactive)
REMARK    1  A    between atoms: C_2  and  C_20
REMARK    2  A    between atoms: N_3  and  C_4
REMARK    3  A    between atoms: C_4  and  C_5
REMARK    4  A    between atoms: C_8  and  C_9
REMARK    5  A    between atoms: C_9  and  C_10
REMARK    6  A    between atoms: C_10  and  O_11
REMARK    7  A    between atoms: C_10  and  C_12
REMARK                            x       y       z     vdW  Elec       q    Type
REMARK                         _______ _______ _______ _____ _____    ______ ____
ROOT
ATOM      1  C   UNL     1      44.067   4.664  10.379  0.00  0.00    +0.000 C 
ENDROOT
BRANCH   1   2
ATOM      2  C   UNL     1      44.825   3.760   9.452  0.00  0.00    +0.000 A 
ATOM      3  C   UNL     1      45.511   4.311   8.367  0.00  0.00    +0.000 A 
ATOM      4  C   UNL     1      46.229   3.497   7.492  0.00  0.00    +0.000 A 
ATOM      5  C   UNL     1      46.281   2.114   7.690  0.00  0.00    +0.000 A 
ATOM      6  C   UNL     1      45.549   1.557   8.751  0.00  0.00    +0.000 A 
ATOM      7  C   UNL     1      44.825   2.372   9.625  0.00  0.00    +0.000 A 
BRANCH   5   8
ATOM      8  C   UNL     1      47.048   1.192   6.767  0.00  0.00    +0.000 C 
BRANCH   8   9
ATOM      9  C   UNL     1      47.208   1.660   5.304  0.00  0.00    +0.000 C 
BRANCH   9  10
ATOM     10  C   UNL     1      46.755   0.682   4.245  0.00  0.00    +0.000 A 
ATOM     11  C   UNL     1      46.008   1.149   3.153  0.00  0.00    +0.000 A 
ATOM     12  C   UNL     1      45.581   0.267   2.166  0.00  0.00    +0.000 A 
ATOM     13  C   UNL     1      45.909  -1.068   2.302  0.00  0.00    +0.000 A 
ATOM     14  N   UNL     1      46.618  -1.565   3.336  0.00  0.00    +0.000 NA
ATOM     15  C   UNL     1      47.019  -0.683   4.281  0.00  0.00    +0.000 A 
ENDBRANCH   9  10
BRANCH   9  16
ATOM     16  O   UNL     1      48.579   1.970   5.033  0.00  0.00    +0.000 OA
ATOM     17  H   UNL     1      48.996   2.209   5.877  0.00  0.00    +0.000 HD
ENDBRANCH   9  16
ENDBRANCH   8   9
ENDBRANCH   5   8
ENDBRANCH   1   2
BRANCH   1  20
ATOM     18  O   UNL     1      46.000   6.757  10.447  0.00  0.00    +0.000 OA
ATOM     19  C   UNL     1      45.843   6.030  11.423  0.00  0.00    +0.000 C 
ATOM     20  N   UNL     1      44.884   5.053  11.494  0.00  0.00    +0.000 N 
ATOM     21  H   UNL     1      44.830   4.466  12.312  0.00  0.00    +0.000 HD
BRANCH  19  22
ATOM     22  C   UNL     1      46.652   6.172  12.632  0.00  0.00    +0.000 A 
ATOM     23  C   UNL     1      47.223   7.389  12.971  0.00  0.00    +0.000 A 
ATOM     24  S   UNL     1      48.086   7.340  14.445  0.00  0.00    +0.000 S 
ATOM     25  C   UNL     1      47.758   5.680  14.649  0.00  0.00    +0.000 A 
ATOM     26  N   UNL     1      48.213   4.998  15.734  0.00  0.00    +0.000 NA
ATOM     27  C   UNL     1      47.902   3.744  15.745  0.00  0.00    +0.000 A 
ATOM     28  N   UNL     1      47.185   3.106  14.766  0.00  0.00    +0.000 N 
ATOM     29  C   UNL     1      46.698   3.753  13.655  0.00  0.00    +0.000 A 
ATOM     30  O   UNL     1      46.034   3.153  12.820  0.00  0.00    +0.000 OA
ATOM     31  C   UNL     1      47.006   5.172  13.608  0.00  0.00    +0.000 A 
ATOM     32  H   UNL     1      46.970   2.123  14.833  0.00  0.00    +0.000 HD
ENDBRANCH  19  22
ENDBRANCH   1  20
TORSDOF 7
ENDMDL
MODEL 4
REMARK VINA RESULT:    -7.669      1.938      2.360
REMARK INTER + INTRA:         -11.780
REMARK INTER:                 -11.235
REMARK INTRA:                  -0.546
REMARK UNBOUND:                -1.198
REMARK  Name = 
REMARK  7 active torsions:
REMARK  status: ('A' for Active; 'I' for Inactive)
REMARK    1  A    between atoms: C_2  and  C_20
REMARK    2  A    between atoms: N_3  and  C_4
REMARK    3  A    between atoms: C_4  and  C_5
REMARK    4  A    between atoms: C_8  and  C_9
REMARK    5  A    between atoms: C_9  and  C_10
REMARK    6  A    between atoms: C_10  and  O_11
REMARK    7  A    between atoms: C_10  and  C_12
REMARK                            x       y       z     vdW  Elec       q    Type
REMARK                         _______ _______ _______ _____ _____    ______ ____
ROOT
ATOM      1  C   UNL     1      48.274   6.906  13.419  0.00  0.00    +0.000 C 
ENDROOT
BRANCH   1   2
ATOM      2  C   UNL     1      47.207   6.005  12.870  0.00  0.00    +0.000 A 
ATOM      3  C   UNL     1      46.443   6.434  11.782  0.00  0.00    +0.000 A 
ATOM      4  C   UNL     1      45.449   5.617  11.245  0.00  0.00    +0.000 A 
ATOM      5  C   UNL     1      45.204   4.349  11.782  0.00  0.00    +0.000 A 
ATOM      6  C   UNL     1      45.938   3.942  12.908  0.00  0.00    +0.000 A 
ATOM      7  C   UNL     1      46.931   4.763  13.449  0.00  0.00    +0.000 A 
BRANCH   5   8
ATOM      8  C   UNL     1      44.137   3.429  11.232  0.00  0.00    +0.000 C 
BRANCH   8   9
ATOM      9  C   UNL     1      43.908   3.475   9.705  0.00  0.00    +0.000 C 
BRANCH   9  10
ATOM     10  C   UNL     1      45.043   2.960   8.852  0.00  0.00    +0.000 A 
ATOM     11  C   UNL     1      45.737   3.853   8.022  0.00  0.00    +0.000 A 
ATOM     12  C   UNL     1      46.786   3.401   7.227  0.00  0.00    +0.000 A 
ATOM     13  C   UNL     1      47.111   2.059   7.281  0.00  0.00    +0.000 A 
ATOM     14  N   UNL     1      46.469   1.163   8.058  0.00  0.00    +0.000 NA
ATOM     15  C   UNL     1      45.452   1.632   8.818  0.00  0.00    +0.000 A 
ENDBRANCH   9  10
BRANCH   9  16
ATOM     16  O   UNL     1      43.642   4.819   9.288  0.00  0.00    +0.000 OA
ATOM     17  H   UNL     1      44.411   5.124   8.780  0.00  0.00    +0.000 HD
ENDBRANCH   9  16
ENDBRANCH   8   9
ENDBRANCH   5   8
ENDBRANCH   1   2
BRANCH   1  20
ATOM     18  O   UNL     1      50.363   6.734  15.349  0.00  0.00    +0.000 OA
ATOM     19  C   UNL     1      49.199   6.869  15.711  0.00  0.00    +0.000 C 
ATOM     20  N   UNL     1      48.150   7.034  14.844  0.00  0.00    +0.000 N 
ATOM     21  H   UNL     1      47.211   7.106  15.205  0.00  0.00    +0.000 HD
BRANCH  19  22
ATOM     22  C   UNL     1      48.827   6.906  17.124  0.00  0.00    +0.000 A 
ATOM     23  C   UNL     1      48.382   8.079  17.714  0.00  0.00    +0.000 A 
ATOM     24  S   UNL     1      47.957   7.885  19.358  0.00  0.00    +0.000 S 
ATOM     25  C   UNL     1      48.397   6.239  19.338  0.00  0.00    +0.000 A 
ATOM     26  N   UNL     1      48.276   5.462  20.447  0.00  0.00    +0.000 NA
ATOM     27  C   UNL     1      48.665   4.240  20.288  0.00  0.00    +0.000 A 
ATOM     28  N   UNL     1      49.171   3.725  19.123  0.00  0.00    +0.000 N 
ATOM     29  C   UNL     1      49.307   4.468  17.975  0.00  0.00    +0.000 A 
ATOM     30  O   UNL     1      49.734   3.960  16.945  0.00  0.00    +0.000 OA
ATOM     31  C   UNL     1      48.864   5.845  18.100  0.00  0.00    +0.000 A 
ATOM     32  H   UNL     1      49.455   2.759  19.059  0.00  0.00    +0.000 HD
ENDBRANCH  19  22
ENDBRANCH   1  20
TORSDOF 7
ENDMDL
MODEL 5
REMARK VINA RESULT:    -7.621      2.388      3.931
REMARK INTER + INTRA:         -11.715
REMARK INTER:                 -10.743
REMARK INTRA:                  -0.972
REMARK UNBOUND:                -1.198
REMARK  Name = 
REMARK  7 active torsions:
REMARK  status: ('A' for Active; 'I' for Inactive)
REMARK    1  A    between atoms: C_2  and  C_20
REMARK    2  A    between atoms: N_3  and  C_4
REMARK    3  A    between atoms: C_4  and  C_5
REMARK    4  A    between atoms: C_8  and  C_9
REMARK    5  A    between atoms: C_9  and  C_10
REMARK    6  A    between atoms: C_10  and  O_11
REMARK    7  A    between atoms: C_10  and  C_12
REMARK                            x       y       z     vdW  Elec       q    Type
REMARK                         _______ _______ _______ _____ _____    ______ ____
ROOT
ATOM      1  C   UNL     1      46.936   4.792  14.930  0.00  0.00    +0.000 C 
ENDROOT
BRANCH   1   2
ATOM      2  C   UNL     1      46.173   4.580  13.656  0.00  0.00    +0.000 A 
ATOM      3  C   UNL     1      45.531   5.665  13.054  0.00  0.00    +0.000 A 
ATOM      4  C   UNL     1      44.820   5.501  11.867  0.00  0.00    +0.000 A 
ATOM      5  C   UNL     1      44.743   4.248  11.252  0.00  0.00    +0.000 A 
ATOM      6  C   UNL     1      45.346   3.150  11.885  0.00  0.00    +0.000 A 
ATOM      7  C   UNL     1      46.054   3.312  13.077  0.00  0.00    +0.000 A 
BRANCH   5   8
ATOM      8  C   UNL     1      43.983   4.024   9.962  0.00  0.00    +0.000 C 
BRANCH   8   9
ATOM      9  C   UNL     1      44.758   4.284   8.652  0.00  0.00    +0.000 C 
BRANCH   9  10
ATOM     10  C   UNL     1      45.640   3.156   8.172  0.00  0.00    +0.000 A 
ATOM     11  C   UNL     1      46.653   3.426   7.240  0.00  0.00    +0.000 A 
ATOM     12  C   UNL     1      47.478   2.403   6.783  0.00  0.00    +0.000 A 
ATOM     13  C   UNL     1      47.262   1.128   7.271  0.00  0.00    +0.000 A 
ATOM     14  N   UNL     1      46.297   0.819   8.162  0.00  0.00    +0.000 NA
ATOM     15  C   UNL     1      45.511   1.835   8.586  0.00  0.00    +0.000 A 
ENDBRANCH   9  10
BRANCH   9  16
ATOM     16  O   UNL     1      45.591   5.440   8.795  0.00  0.00    +0.000 OA
ATOM     17  H   UNL     1      45.745   5.800   7.906  0.00  0.00    +0.000 HD
ENDBRANCH   9  16
ENDBRANCH   8   9
ENDBRANCH   5   8
ENDBRANCH   1   2
BRANCH   1  20
ATOM     18  O   UNL     1      49.319   5.376  16.380  0.00  0.00    +0.000 OA
ATOM     19  C   UNL     1      48.817   6.224  15.650  0.00  0.00    +0.000 C 
ATOM     20  N   UNL     1      47.717   5.994  14.864  0.00  0.00    +0.000 N 
ATOM     21  H   UNL     1      47.333   6.746  14.312  0.00  0.00    +0.000 HD
BRANCH  19  22
ATOM     22  C   UNL     1      49.382   7.566  15.521  0.00  0.00    +0.000 A 
ATOM     23  C   UNL     1      49.602   8.359  16.636  0.00  0.00    +0.000 A 
ATOM     24  S   UNL     1      50.312   9.867  16.260  0.00  0.00    +0.000 S 
ATOM     25  C   UNL     1      50.306   9.520  14.592  0.00  0.00    +0.000 A 
ATOM     26  N   UNL     1      50.790  10.408  13.683  0.00  0.00    +0.000 NA
ATOM     27  C   UNL     1      50.704  10.016  12.455  0.00  0.00    +0.000 A 
ATOM     28  N   UNL     1      50.170   8.821  12.050  0.00  0.00    +0.000 N 
ATOM     29  C   UNL     1      49.674   7.888  12.930  0.00  0.00    +0.000 A 
ATOM     30  O   UNL     1      49.235   6.818  12.529  0.00  0.00    +0.000 OA
ATOM     31  C   UNL     1      49.768   8.276  14.326  0.00  0.00    +0.000 A 
ATOM     32  H   UNL     1      50.134   8.569  11.074  0.00  0.00    +0.000 HD
ENDBRANCH  19  22
ENDBRANCH   1  20
TORSDOF 7
ENDMDL
MODEL 6
REMARK VINA RESULT:    -7.477      1.728      2.107
REMARK INTER + INTRA:         -11.516
REMARK INTER:                 -10.233
REMARK INTRA:                  -1.283
REMARK UNBOUND:                -1.198
REMARK  Name = 
REMARK  7 active torsions:
REMARK  status: ('A' for Active; 'I' for Inactive)
REMARK    1  A    between atoms: C_2  and  C_20
REMARK    2  A    between atoms: N_3  and  C_4
REMARK    3  A    between atoms: C_4  and  C_5
REMARK    4  A    between atoms: C_8  and  C_9
REMARK    5  A    between atoms: C_9  and  C_10
REMARK    6  A    between atoms: C_10  and  O_11
REMARK    7  A    between atoms: C_10  and  C_12
REMARK                            x       y       z     vdW  Elec       q    Type
REMARK                         _______ _______ _______ _____ _____    ______ ____
ROOT
ATOM      1  C   UNL     1      46.039   8.787  12.870  0.00  0.00    +0.000 C 
ENDROOT
BRANCH   1   2
ATOM      2  C   UNL     1      45.698   7.404  12.400  0.00  0.00    +0.000 A 
ATOM      3  C   UNL     1      44.585   6.753  12.938  0.00  0.00    +0.000 A 
ATOM      4  C   UNL     1      44.240   5.470  12.518  0.00  0.00    +0.000 A 
ATOM      5  C   UNL     1      44.997   4.814  11.542  0.00  0.00    +0.000 A 
ATOM      6  C   UNL     1      46.144   5.449  11.041  0.00  0.00    +0.000 A 
ATOM      7  C   UNL     1      46.494   6.733  11.466  0.00  0.00    +0.000 A 
BRANCH   5   8
ATOM      8  C   UNL     1      44.659   3.422  11.055  0.00  0.00    +0.000 C 
BRANCH   8   9
ATOM      9  C   UNL     1      44.226   3.296   9.578  0.00  0.00    +0.000 C 
BRANCH   9  10
ATOM     10  C   UNL     1      45.304   2.873   8.607  0.00  0.00    +0.000 A 
ATOM     11  C   UNL     1      45.830   3.817   7.712  0.00  0.00    +0.000 A 
ATOM     12  C   UNL     1      46.822   3.450   6.810  0.00  0.00    +0.000 A 
ATOM     13  C   UNL     1      47.262   2.140   6.824  0.00  0.00    +0.000 A 
ATOM     14  N   UNL     1      46.782   1.197   7.660  0.00  0.00    +0.000 NA
ATOM     15  C   UNL     1      45.816   1.583   8.526  0.00  0.00    +0.000 A 
ENDBRANCH   9  10
BRANCH   9  16
ATOM     16  O   UNL     1      43.703   4.545   9.110  0.00  0.00    +0.000 OA
ATOM     17  H   UNL     1      43.197   4.940   9.839  0.00  0.00    +0.000 HD
ENDBRANCH   9  16
ENDBRANCH   8   9
ENDBRANCH   5   8
ENDBRANCH   1   2
BRANCH   1  20
ATOM     18  O   UNL     1      48.778   9.441  13.312  0.00  0.00    +0.000 OA
ATOM     19  C   UNL     1      48.091   9.008  14.231  0.00  0.00    +0.000 C 
ATOM     20  N   UNL     1      46.750   8.743  14.117  0.00  0.00    +0.000 N 
ATOM     21  H   UNL     1      46.250   8.355  14.902  0.00  0.00    +0.000 HD
BRANCH  19  22
ATOM     22  C   UNL     1      48.642   8.771  15.564  0.00  0.00    +0.000 A 
ATOM     23  C   UNL     1      49.090   9.822  16.349  0.00  0.00    +0.000 A 
ATOM     24  S   UNL     1      49.649   9.324  17.885  0.00  0.00    +0.000 S 
ATOM     25  C   UNL     1      49.348   7.686  17.528  0.00  0.00    +0.000 A 
ATOM     26  N   UNL     1      49.606   6.705  18.434  0.00  0.00    +0.000 NA
ATOM     27  C   UNL     1      49.345   5.511  18.018  0.00  0.00    +0.000 A 
ATOM     28  N   UNL     1      48.857   5.204  16.774  0.00  0.00    +0.000 N 
ATOM     29  C   UNL     1      48.574   6.158  15.827  0.00  0.00    +0.000 A 
ATOM     30  O   UNL     1      48.108   5.844  14.739  0.00  0.00    +0.000 OA
ATOM     31  C   UNL     1      48.833   7.521  16.257  0.00  0.00    +0.000 A 
ATOM     32  H   UNL     1      48.669   4.249  16.508  0.00  0.00    +0.000 HD
ENDBRANCH  19  22
ENDBRANCH   1  20
TORSDOF 7
ENDMDL
MODEL 7
REMARK VINA RESULT:    -7.449      2.571      3.703
REMARK INTER + INTRA:         -11.477
REMARK INTER:                 -10.414
REMARK INTRA:                  -1.063
REMARK UNBOUND:                -1.198
REMARK  Name = 
REMARK  7 active torsions:
REMARK  status: ('A' for Active; 'I' for Inactive)
REMARK    1  A    between atoms: C_2  and  C_20
REMARK    2  A    between atoms: N_3  and  C_4
REMARK    3  A    between atoms: C_4  and  C_5
REMARK    4  A    between atoms: C_8  and  C_9
REMARK    5  A    between atoms: C_9  and  C_10
REMARK    6  A    between atoms: C_10  and  O_11
REMARK    7  A    between atoms: C_10  and  C_12
REMARK                            x       y       z     vdW  Elec       q    Type
REMARK                         _______ _______ _______ _____ _____    ______ ____
ROOT
ATOM      1  C   UNL     1      47.434   3.949  15.579  0.00  0.00    +0.000 C 
ENDROOT
BRANCH   1   2
ATOM      2  C   UNL     1      46.869   4.296  14.233  0.00  0.00    +0.000 A 
ATOM      3  C   UNL     1      46.209   3.311  13.493  0.00  0.00    +0.000 A 
ATOM      4  C   UNL     1      45.669   3.604  12.242  0.00  0.00    +0.000 A 
ATOM      5  C   UNL     1      45.770   4.893  11.709  0.00  0.00    +0.000 A 
ATOM      6  C   UNL     1      46.477   5.867  12.431  0.00  0.00    +0.000 A 
ATOM      7  C   UNL     1      47.024   5.572  13.682  0.00  0.00    +0.000 A 
BRANCH   5   8
ATOM      8  C   UNL     1      45.197   5.256  10.356  0.00  0.00    +0.000 C 
BRANCH   8   9
ATOM      9  C   UNL     1      44.511   4.118   9.570  0.00  0.00    +0.000 C 
BRANCH   9  10
ATOM     10  C   UNL     1      45.423   3.242   8.744  0.00  0.00    +0.000 A 
ATOM     11  C   UNL     1      46.226   3.828   7.754  0.00  0.00    +0.000 A 
ATOM     12  C   UNL     1      47.074   3.041   6.982  0.00  0.00    +0.000 A 
ATOM     13  C   UNL     1      47.092   1.680   7.218  0.00  0.00    +0.000 A 
ATOM     14  N   UNL     1      46.334   1.071   8.153  0.00  0.00    +0.000 NA
ATOM     15  C   UNL     1      45.519   1.862   8.888  0.00  0.00    +0.000 A 
ENDBRANCH   9  10
BRANCH   9  16
ATOM     16  O   UNL     1      43.526   4.657   8.682  0.00  0.00    +0.000 OA
ATOM     17  H   UNL     1      43.741   5.594   8.542  0.00  0.00    +0.000 HD
ENDBRANCH   9  16
ENDBRANCH   8   9
ENDBRANCH   5   8
ENDBRANCH   1   2
BRANCH   1  20
ATOM     18  O   UNL     1      49.685   5.333  16.646  0.00  0.00    +0.000 OA
ATOM     19  C   UNL     1      48.548   5.657  16.976  0.00  0.00    +0.000 C 
ATOM     20  N   UNL     1      47.416   5.090  16.449  0.00  0.00    +0.000 N 
ATOM     21  H   UNL     1      46.510   5.378  16.788  0.00  0.00    +0.000 HD
BRANCH  19  22
ATOM     22  C   UNL     1      48.297   6.721  17.945  0.00  0.00    +0.000 A 
ATOM     23  C   UNL     1      48.121   6.435  19.290  0.00  0.00    +0.000 A 
ATOM     24  S   UNL     1      47.888   7.831  20.249  0.00  0.00    +0.000 S 
ATOM     25  C   UNL     1      47.973   8.852  18.888  0.00  0.00    +0.000 A 
ATOM     26  N   UNL     1      47.852  10.201  19.007  0.00  0.00    +0.000 NA
ATOM     27  C   UNL     1      47.919  10.844  17.889  0.00  0.00    +0.000 A 
ATOM     28  N   UNL     1      48.087  10.262  16.660  0.00  0.00    +0.000 N 
ATOM     29  C   UNL     1      48.220   8.905  16.488  0.00  0.00    +0.000 A 
ATOM     30  O   UNL     1      48.402   8.428  15.375  0.00  0.00    +0.000 OA
ATOM     31  C   UNL     1      48.171   8.140  17.721  0.00  0.00    +0.000 A 
ATOM     32  H   UNL     1      48.135  10.820  15.820  0.00  0.00    +0.000 HD
ENDBRANCH  19  22
ENDBRANCH   1  20
TORSDOF 7
ENDMDL
MODEL 8
REMARK VINA RESULT:    -7.268      2.670      3.387
REMARK INTER + INTRA:         -11.228
REMARK INTER:                 -10.096
REMARK INTRA:                  -1.132
REMARK UNBOUND:                -1.198
REMARK  Name = 
REMARK  7 active torsions:
REMARK  status: ('A' for Active; 'I' for Inactive)
REMARK    1  A    between atoms: C_2  and  C_20
REMARK    2  A    between atoms: N_3  and  C_4
REMARK    3  A    between atoms: C_4  and  C_5
REMARK    4  A    between atoms: C_8  and  C_9
REMARK    5  A    between atoms: C_9  and  C_10
REMARK    6  A    between atoms: C_10  and  O_11
REMARK    7  A    between atoms: C_10  and  C_12
REMARK                            x       y       z     vdW  Elec       q    Type
REMARK                         _______ _______ _______ _____ _____    ______ ____
ROOT
ATOM      1  C   UNL     1      47.088   4.297  15.637  0.00  0.00    +0.000 C 
ENDROOT
BRANCH   1   2
ATOM      2  C   UNL     1      46.640   4.533  14.224  0.00  0.00    +0.000 A 
ATOM      3  C   UNL     1      46.845   5.785  13.641  0.00  0.00    +0.000 A 
ATOM      4  C   UNL     1      46.446   6.032  12.329  0.00  0.00    +0.000 A 
ATOM      5  C   UNL     1      45.840   5.027  11.569  0.00  0.00    +0.000 A 
ATOM      6  C   UNL     1      45.589   3.785  12.175  0.00  0.00    +0.000 A 
ATOM      7  C   UNL     1      45.984   3.539  13.491  0.00  0.00    +0.000 A 
BRANCH   5   8
ATOM      8  C   UNL     1      45.391   5.250  10.141  0.00  0.00    +0.000 C 
BRANCH   8   9
ATOM      9  C   UNL     1      44.666   4.071   9.456  0.00  0.00    +0.000 C 
BRANCH   9  10
ATOM     10  C   UNL     1      45.534   3.154   8.627  0.00  0.00    +0.000 A 
ATOM     11  C   UNL     1      46.331   3.698   7.608  0.00  0.00    +0.000 A 
ATOM     12  C   UNL     1      47.138   2.873   6.832  0.00  0.00    +0.000 A 
ATOM     13  C   UNL     1      47.124   1.517   7.094  0.00  0.00    +0.000 A 
ATOM     14  N   UNL     1      46.370   0.947   8.057  0.00  0.00    +0.000 NA
ATOM     15  C   UNL     1      45.595   1.775   8.795  0.00  0.00    +0.000 A 
ENDBRANCH   9  10
BRANCH   9  16
ATOM     16  O   UNL     1      43.631   4.563   8.597  0.00  0.00    +0.000 OA
ATOM     17  H   UNL     1      42.920   4.906   9.163  0.00  0.00    +0.000 HD
ENDBRANCH   9  16
ENDBRANCH   8   9
ENDBRANCH   5   8
ENDBRANCH   1   2
BRANCH   1  20
ATOM     18  O   UNL     1      49.722   4.477  16.710  0.00  0.00    +0.000 OA
ATOM     19  C   UNL     1      48.978   5.452  16.734  0.00  0.00    +0.000 C 
ATOM     20  N   UNL     1      47.727   5.466  16.172  0.00  0.00    +0.000 N 
ATOM     21  H   UNL     1      47.152   6.290  16.256  0.00  0.00    +0.000 HD
BRANCH  19  22
ATOM     22  C   UNL     1      49.382   6.720  17.340  0.00  0.00    +0.000 A 
ATOM     23  C   UNL     1      50.474   7.425  16.858  0.00  0.00    +0.000 A 
ATOM     24  S   UNL     1      50.738   8.899  17.681  0.00  0.00    +0.000 S 
ATOM     25  C   UNL     1      49.427   8.615  18.731  0.00  0.00    +0.000 A 
ATOM     26  N   UNL     1      49.091   9.509  19.700  0.00  0.00    +0.000 NA
ATOM     27  C   UNL     1      48.088   9.152  20.430  0.00  0.00    +0.000 A 
ATOM     28  N   UNL     1      47.394   7.978  20.289  0.00  0.00    +0.000 N 
ATOM     29  C   UNL     1      47.691   7.047  19.322  0.00  0.00    +0.000 A 
ATOM     30  O   UNL     1      47.025   6.026  19.209  0.00  0.00    +0.000 OA
ATOM     31  C   UNL     1      48.801   7.414  18.461  0.00  0.00    +0.000 A 
ATOM     32  H   UNL     1      46.614   7.757  20.890  0.00  0.00    +0.000 HD
ENDBRANCH  19  22
ENDBRANCH   1  20
TORSDOF 7
ENDMDL
MODEL 9
REMARK VINA RESULT:    -7.084      2.802      8.060
REMARK INTER + INTRA:         -10.974
REMARK INTER:                  -9.590
REMARK INTRA:                  -1.385
REMARK UNBOUND:                -1.198
REMARK  Name = 
REMARK  7 active torsions:
REMARK  status: ('A' for Active; 'I' for Inactive)
REMARK    1  A    between atoms: C_2  and  C_20
REMARK    2  A    between atoms: N_3  and  C_4
REMARK    3  A    between atoms: C_4  and  C_5
REMARK    4  A    between atoms: C_8  and  C_9
REMARK    5  A    between atoms: C_9  and  C_10
REMARK    6  A    between atoms: C_10  and  O_11
REMARK    7  A    between atoms: C_10  and  C_12
REMARK                            x       y       z     vdW  Elec       q    Type
REMARK                         _______ _______ _______ _____ _____    ______ ____
ROOT
ATOM      1  C   UNL     1      47.356   7.830  11.802  0.00  0.00    +0.000 C 
ENDROOT
BRANCH   1   2
ATOM      2  C   UNL     1      47.912   7.794  13.195  0.00  0.00    +0.000 A 
ATOM      3  C   UNL     1      47.499   8.755  14.121  0.00  0.00    +0.000 A 
ATOM      4  C   UNL     1      47.992   8.744  15.425  0.00  0.00    +0.000 A 
ATOM      5  C   UNL     1      48.904   7.765  15.831  0.00  0.00    +0.000 A 
ATOM      6  C   UNL     1      49.356   6.832  14.885  0.00  0.00    +0.000 A 
ATOM      7  C   UNL     1      48.866   6.846  13.577  0.00  0.00    +0.000 A 
BRANCH   5   8
ATOM      8  C   UNL     1      49.465   7.714  17.236  0.00  0.00    +0.000 C 
BRANCH   8   9
ATOM      9  C   UNL     1      48.672   6.878  18.264  0.00  0.00    +0.000 C 
BRANCH   9  10
ATOM     10  C   UNL     1      48.410   5.440  17.883  0.00  0.00    +0.000 A 
ATOM     11  C   UNL     1      49.494   4.565  17.716  0.00  0.00    +0.000 A 
ATOM     12  C   UNL     1      49.276   3.237  17.366  0.00  0.00    +0.000 A 
ATOM     13  C   UNL     1      47.972   2.817  17.185  0.00  0.00    +0.000 A 
ATOM     14  N   UNL     1      46.899   3.623  17.328  0.00  0.00    +0.000 NA
ATOM     15  C   UNL     1      47.143   4.909  17.668  0.00  0.00    +0.000 A 
ENDBRANCH   9  10
BRANCH   9  16
ATOM     16  O   UNL     1      47.401   7.486  18.517  0.00  0.00    +0.000 OA
ATOM     17  H   UNL     1      47.539   8.447  18.551  0.00  0.00    +0.000 HD
ENDBRANCH   9  16
ENDBRANCH   8   9
ENDBRANCH   5   8
ENDBRANCH   1   2
BRANCH   1  20
ATOM     18  O   UNL     1      44.548   7.554  11.401  0.00  0.00    +0.000 OA
ATOM     19  C   UNL     1      45.273   6.564  11.396  0.00  0.00    +0.000 C 
ATOM     20  N   UNL     1      46.638   6.623  11.507  0.00  0.00    +0.000 N 
ATOM     21  H   UNL     1      47.174   5.768  11.531  0.00  0.00    +0.000 HD
BRANCH  19  22
ATOM     22  C   UNL     1      44.738   5.214  11.229  0.00  0.00    +0.000 A 
ATOM     23  C   UNL     1      43.993   4.612  12.232  0.00  0.00    +0.000 A 
ATOM     24  S   UNL     1      43.428   3.056  11.807  0.00  0.00    +0.000 S 
ATOM     25  C   UNL     1      44.199   3.126  10.289  0.00  0.00    +0.000 A 
ATOM     26  N   UNL     1      44.113   2.097   9.404  0.00  0.00    +0.000 NA
ATOM     27  C   UNL     1      44.762   2.284   8.304  0.00  0.00    +0.000 A 
ATOM     28  N   UNL     1      45.498   3.402   8.008  0.00  0.00    +0.000 N 
ATOM     29  C   UNL     1      45.610   4.470   8.866  0.00  0.00    +0.000 A 
ATOM     30  O   UNL     1      46.251   5.465   8.550  0.00  0.00    +0.000 OA
ATOM     31  C   UNL     1      44.879   4.315  10.111  0.00  0.00    +0.000 A 
ATOM     32  H   UNL     1      45.981   3.491   7.127  0.00  0.00    +0.000 HD
ENDBRANCH  19  22
ENDBRANCH   1  20
TORSDOF 7
ENDMDL
