MODEL 1
REMARK VINA RESULT:    -8.910      0.000      0.000
REMARK INTER + INTRA:         -13.117
REMARK INTER:                 -12.036
REMARK INTRA:                  -1.081
REMARK UNBOUND:                -1.081
REMARK  Name = 
REMARK  8 active torsions:
REMARK  status: ('A' for Active; 'I' for Inactive)
REMARK    1  A    between atoms: C_1  and  C_2
REMARK    2  A    between atoms: C_2  and  C_3
REMARK    3  A    between atoms: C_2  and  C_4
REMARK    4  A    between atoms: C_2  and  C_15
REMARK    5  A    between atoms: C_4  and  O_5
REMARK    6  A    between atoms: O_5  and  C_6
REMARK    7  A    between atoms: C_9  and  C_10
REMARK    8  A    between atoms: C_19  and  C_20
REMARK                            x       y       z     vdW  Elec       q    Type
REMARK                         _______ _______ _______ _____ _____    ______ ____
ROOT
ATOM      1  C   UNL     1      42.617   5.556  12.195  0.00  0.00    +0.000 C 
ATOM      2  C   UNL     1      43.780   4.620  11.794  0.00  0.00    +0.000 C 
ATOM      3  C   UNL     1      43.572   3.287  12.553  0.00  0.00    +0.000 C 
ENDROOT
BRANCH   2   4
ATOM      4  C   UNL     1      45.165   5.195  12.155  0.00  0.00    +0.000 A 
ATOM      5  C   UNL     1      45.831   6.149  11.377  0.00  0.00    +0.000 A 
ATOM      6  C   UNL     1      47.060   6.671  11.783  0.00  0.00    +0.000 A 
ATOM      7  C   UNL     1      47.652   6.241  12.972  0.00  0.00    +0.000 A 
ATOM      8  C   UNL     1      47.024   5.299  13.803  0.00  0.00    +0.000 A 
ATOM      9  C   UNL     1      45.789   4.793  13.357  0.00  0.00    +0.000 A 
BRANCH   8  10
ATOM     10  C   UNL     1      47.561   4.963  15.153  0.00  0.00    +0.000 A 
ATOM     11  C   UNL     1      47.298   3.675  15.676  0.00  0.00    +0.000 A 
ATOM     12  C   UNL     1      47.848   3.227  16.880  0.00  0.00    +0.000 A 
ATOM     13  C   UNL     1      48.707   4.049  17.594  0.00  0.00    +0.000 A 
ATOM     14  C   UNL     1      48.974   5.331  17.126  0.00  0.00    +0.000 A 
ATOM     15  C   UNL     1      48.389   5.799  15.938  0.00  0.00    +0.000 A 
ATOM     16 CL   UNL     1      48.718   7.461  15.559  0.00  0.00    +0.000 Cl
ENDBRANCH   8  10
ENDBRANCH   2   4
BRANCH   2  17
ATOM     17  C   UNL     1      43.688   4.365  10.263  0.00  0.00    +0.000 C 
BRANCH  17  18
ATOM     18  O   UNL     1      43.826   2.961   9.973  0.00  0.00    +0.000 OA
BRANCH  18  19
ATOM     19  C   UNL     1      44.827   2.706   9.062  0.00  0.00    +0.000 A 
ATOM     20  C   UNL     1      45.313   3.774   8.325  0.00  0.00    +0.000 A 
ATOM     21  C   UNL     1      46.335   3.531   7.406  0.00  0.00    +0.000 A 
ATOM     22  C   UNL     1      46.844   2.234   7.258  0.00  0.00    +0.000 A 
ATOM     23  C   UNL     1      46.287   1.240   8.045  0.00  0.00    +0.000 A 
ATOM     24  N   UNL     1      45.293   1.448   8.939  0.00  0.00    +0.000 NA
BRANCH  22  25
ATOM     25  C   UNL     1      47.936   1.979   6.291  0.00  0.00    +0.000 C 
ATOM     26  N   UNL     1      48.995   2.845   6.240  0.00  0.00    +0.000 N 
ATOM     27  O   UNL     1      47.901   1.014   5.545  0.00  0.00    +0.000 OA
ATOM     28  H   UNL     1      49.131   3.661   6.817  0.00  0.00    +0.000 HD
ATOM     29  H   UNL     1      49.724   2.629   5.573  0.00  0.00    +0.000 HD
ENDBRANCH  22  25
ENDBRANCH  18  19
ENDBRANCH  17  18
ENDBRANCH   2  17
TORSDOF 6
ENDMDL
MODEL 2
REMARK VINA RESULT:    -8.685      1.844      3.662
REMARK INTER + INTRA:         -12.813
REMARK INTER:                 -11.697
REMARK INTRA:                  -1.116
REMARK UNBOUND:                -1.081
REMARK  Name = 
REMARK  8 active torsions:
REMARK  status: ('A' for Active; 'I' for Inactive)
REMARK    1  A    between atoms: C_1  and  C_2
REMARK    2  A    between atoms: C_2  and  C_3
REMARK    3  A    between atoms: C_2  and  C_4
REMARK    4  A    between atoms: C_2  and  C_15
REMARK    5  A    between atoms: C_4  and  O_5
REMARK    6  A    between atoms: O_5  and  C_6
REMARK    7  A    between atoms: C_9  and  C_10
REMARK    8  A    between atoms: C_19  and  C_20
REMARK                            x       y       z     vdW  Elec       q    Type
REMARK                         _______ _______ _______ _____ _____    ______ ____
ROOT
ATOM      1  C   UNL     1      42.626   5.399  12.422  0.00  0.00    +0.000 C 
ATOM      2  C   UNL     1      43.903   4.634  12.011  0.00  0.00    +0.000 C 
ATOM      3  C   UNL     1      43.729   3.171  12.488  0.00  0.00    +0.000 C 
ENDROOT
BRANCH   2   4
ATOM      4  C   UNL     1      45.184   5.220  12.641  0.00  0.00    +0.000 A 
ATOM      5  C   UNL     1      45.996   4.513  13.536  0.00  0.00    +0.000 A 
ATOM      6  C   UNL     1      47.172   5.076  14.032  0.00  0.00    +0.000 A 
ATOM      7  C   UNL     1      47.555   6.363  13.650  0.00  0.00    +0.000 A 
ATOM      8  C   UNL     1      46.791   7.115  12.741  0.00  0.00    +0.000 A 
ATOM      9  C   UNL     1      45.610   6.513  12.267  0.00  0.00    +0.000 A 
BRANCH   8  10
ATOM     10  C   UNL     1      47.276   8.414  12.194  0.00  0.00    +0.000 A 
ATOM     11  C   UNL     1      46.383   9.511  12.184  0.00  0.00    +0.000 A 
ATOM     12  C   UNL     1      46.776  10.795  11.795  0.00  0.00    +0.000 A 
ATOM     13  C   UNL     1      48.091  11.031  11.424  0.00  0.00    +0.000 A 
ATOM     14  C   UNL     1      48.995   9.974  11.399  0.00  0.00    +0.000 A 
ATOM     15  C   UNL     1      48.593   8.676  11.749  0.00  0.00    +0.000 A 
ATOM     16 CL   UNL     1      49.803   7.448  11.541  0.00  0.00    +0.000 Cl
ENDBRANCH   8  10
ENDBRANCH   2   4
BRANCH   2  17
ATOM     17  C   UNL     1      44.007   4.664  10.460  0.00  0.00    +0.000 C 
BRANCH  17  18
ATOM     18  O   UNL     1      43.803   3.349   9.912  0.00  0.00    +0.000 OA
BRANCH  18  19
ATOM     19  C   UNL     1      44.800   2.982   9.034  0.00  0.00    +0.000 A 
ATOM     20  C   UNL     1      45.376   3.979   8.263  0.00  0.00    +0.000 A 
ATOM     21  C   UNL     1      46.395   3.622   7.378  0.00  0.00    +0.000 A 
ATOM     22  C   UNL     1      46.810   2.287   7.297  0.00  0.00    +0.000 A 
ATOM     23  C   UNL     1      46.167   1.371   8.113  0.00  0.00    +0.000 A 
ATOM     24  N   UNL     1      45.176   1.690   8.975  0.00  0.00    +0.000 NA
BRANCH  22  25
ATOM     25  C   UNL     1      47.899   1.911   6.366  0.00  0.00    +0.000 C 
ATOM     26  N   UNL     1      49.002   2.716   6.273  0.00  0.00    +0.000 N 
ATOM     27  O   UNL     1      47.822   0.901   5.686  0.00  0.00    +0.000 OA
ATOM     28  H   UNL     1      49.174   3.562   6.796  0.00  0.00    +0.000 HD
ATOM     29  H   UNL     1      49.727   2.418   5.633  0.00  0.00    +0.000 HD
ENDBRANCH  22  25
ENDBRANCH  18  19
ENDBRANCH  17  18
ENDBRANCH   2  17
TORSDOF 6
ENDMDL
MODEL 3
REMARK VINA RESULT:    -7.638      4.074      7.979
REMARK INTER + INTRA:         -11.399
REMARK INTER:                  -9.973
REMARK INTRA:                  -1.426
REMARK UNBOUND:                -1.081
REMARK  Name = 
REMARK  8 active torsions:
REMARK  status: ('A' for Active; 'I' for Inactive)
REMARK    1  A    between atoms: C_1  and  C_2
REMARK    2  A    between atoms: C_2  and  C_3
REMARK    3  A    between atoms: C_2  and  C_4
REMARK    4  A    between atoms: C_2  and  C_15
REMARK    5  A    between atoms: C_4  and  O_5
REMARK    6  A    between atoms: O_5  and  C_6
REMARK    7  A    between atoms: C_9  and  C_10
REMARK    8  A    between atoms: C_19  and  C_20
REMARK                            x       y       z     vdW  Elec       q    Type
REMARK                         _______ _______ _______ _____ _____    ______ ____
ROOT
ATOM      1  C   UNL     1      49.282   9.643  12.617  0.00  0.00    +0.000 C 
ATOM      2  C   UNL     1      48.985   8.156  12.320  0.00  0.00    +0.000 C 
ATOM      3  C   UNL     1      49.726   7.798  11.009  0.00  0.00    +0.000 C 
ENDROOT
BRANCH   2   4
ATOM      4  C   UNL     1      47.480   7.868  12.143  0.00  0.00    +0.000 A 
ATOM      5  C   UNL     1      46.473   8.759  12.530  0.00  0.00    +0.000 A 
ATOM      6  C   UNL     1      45.129   8.466  12.296  0.00  0.00    +0.000 A 
ATOM      7  C   UNL     1      44.765   7.269  11.676  0.00  0.00    +0.000 A 
ATOM      8  C   UNL     1      45.731   6.343  11.249  0.00  0.00    +0.000 A 
ATOM      9  C   UNL     1      47.075   6.673  11.507  0.00  0.00    +0.000 A 
BRANCH   8  10
ATOM     10  C   UNL     1      45.366   5.149  10.435  0.00  0.00    +0.000 A 
ATOM     11  C   UNL     1      45.755   5.121   9.075  0.00  0.00    +0.000 A 
ATOM     12  C   UNL     1      45.558   4.003   8.260  0.00  0.00    +0.000 A 
ATOM     13  C   UNL     1      44.984   2.857   8.788  0.00  0.00    +0.000 A 
ATOM     14  C   UNL     1      44.567   2.850  10.116  0.00  0.00    +0.000 A 
ATOM     15  C   UNL     1      44.727   3.986  10.925  0.00  0.00    +0.000 A 
ATOM     16 CL   UNL     1      44.039   3.861  12.514  0.00  0.00    +0.000 Cl
ENDBRANCH   8  10
ENDBRANCH   2   4
BRANCH   2  17
ATOM     17  C   UNL     1      49.559   7.306  13.489  0.00  0.00    +0.000 C 
BRANCH  17  18
ATOM     18  O   UNL     1      48.959   7.692  14.739  0.00  0.00    +0.000 OA
BRANCH  18  19
ATOM     19  C   UNL     1      48.603   6.607  15.511  0.00  0.00    +0.000 A 
ATOM     20  C   UNL     1      48.894   6.658  16.865  0.00  0.00    +0.000 A 
ATOM     21  C   UNL     1      48.528   5.570  17.660  0.00  0.00    +0.000 A 
ATOM     22  C   UNL     1      47.878   4.473  17.081  0.00  0.00    +0.000 A 
ATOM     23  C   UNL     1      47.635   4.525  15.718  0.00  0.00    +0.000 A 
ATOM     24  N   UNL     1      47.983   5.564  14.926  0.00  0.00    +0.000 NA
BRANCH  22  25
ATOM     25  C   UNL     1      47.480   3.324  17.927  0.00  0.00    +0.000 C 
ATOM     26  N   UNL     1      48.170   3.082  19.085  0.00  0.00    +0.000 N 
ATOM     27  O   UNL     1      46.555   2.598  17.605  0.00  0.00    +0.000 OA
ATOM     28  H   UNL     1      48.938   3.624  19.451  0.00  0.00    +0.000 HD
ATOM     29  H   UNL     1      47.860   2.294  19.639  0.00  0.00    +0.000 HD
ENDBRANCH  22  25
ENDBRANCH  18  19
ENDBRANCH  17  18
ENDBRANCH   2  17
TORSDOF 6
ENDMDL
MODEL 4
REMARK VINA RESULT:    -7.396      1.445      2.069
REMARK INTER + INTRA:         -11.071
REMARK INTER:                 -10.172
REMARK INTRA:                  -0.899
REMARK UNBOUND:                -1.081
REMARK  Name = 
REMARK  8 active torsions:
REMARK  status: ('A' for Active; 'I' for Inactive)
REMARK    1  A    between atoms: C_1  and  C_2
REMARK    2  A    between atoms: C_2  and  C_3
REMARK    3  A    between atoms: C_2  and  C_4
REMARK    4  A    between atoms: C_2  and  C_15
REMARK    5  A    between atoms: C_4  and  O_5
REMARK    6  A    between atoms: O_5  and  C_6
REMARK    7  A    between atoms: C_9  and  C_10
REMARK    8  A    between atoms: C_19  and  C_20
REMARK                            x       y       z     vdW  Elec       q    Type
REMARK                         _______ _______ _______ _____ _____    ______ ____
ROOT
ATOM      1  C   UNL     1      42.542   4.930  11.392  0.00  0.00    +0.000 C 
ATOM      2  C   UNL     1      43.843   4.678  12.187  0.00  0.00    +0.000 C 
ATOM      3  C   UNL     1      43.427   4.278  13.623  0.00  0.00    +0.000 C 
ENDROOT
BRANCH   2   4
ATOM      4  C   UNL     1      44.757   5.920  12.255  0.00  0.00    +0.000 A 
ATOM      5  C   UNL     1      44.422   7.155  11.688  0.00  0.00    +0.000 A 
ATOM      6  C   UNL     1      45.266   8.257  11.828  0.00  0.00    +0.000 A 
ATOM      7  C   UNL     1      46.467   8.143  12.530  0.00  0.00    +0.000 A 
ATOM      8  C   UNL     1      46.848   6.935  13.136  0.00  0.00    +0.000 A 
ATOM      9  C   UNL     1      45.973   5.845  12.969  0.00  0.00    +0.000 A 
BRANCH   8  10
ATOM     10  C   UNL     1      48.037   6.847  14.031  0.00  0.00    +0.000 A 
ATOM     11  C   UNL     1      49.114   7.735  13.802  0.00  0.00    +0.000 A 
ATOM     12  C   UNL     1      50.223   7.806  14.650  0.00  0.00    +0.000 A 
ATOM     13  C   UNL     1      50.280   7.002  15.779  0.00  0.00    +0.000 A 
ATOM     14  C   UNL     1      49.251   6.099  16.029  0.00  0.00    +0.000 A 
ATOM     15  C   UNL     1      48.157   5.996  15.155  0.00  0.00    +0.000 A 
ATOM     16 CL   UNL     1      47.027   4.735  15.535  0.00  0.00    +0.000 Cl
ENDBRANCH   8  10
ENDBRANCH   2   4
BRANCH   2  17
ATOM     17  C   UNL     1      44.597   3.494  11.517  0.00  0.00    +0.000 C 
BRANCH  17  18
ATOM     18  O   UNL     1      43.916   3.071  10.321  0.00  0.00    +0.000 OA
BRANCH  18  19
ATOM     19  C   UNL     1      44.783   2.830   9.278  0.00  0.00    +0.000 A 
ATOM     20  C   UNL     1      45.103   3.894   8.449  0.00  0.00    +0.000 A 
ATOM     21  C   UNL     1      45.989   3.665   7.395  0.00  0.00    +0.000 A 
ATOM     22  C   UNL     1      46.532   2.388   7.206  0.00  0.00    +0.000 A 
ATOM     23  C   UNL     1      46.146   1.397   8.092  0.00  0.00    +0.000 A 
ATOM     24  N   UNL     1      45.286   1.591   9.118  0.00  0.00    +0.000 NA
BRANCH  22  25
ATOM     25  C   UNL     1      47.480   2.150   6.094  0.00  0.00    +0.000 C 
ATOM     26  N   UNL     1      48.811   2.408   6.288  0.00  0.00    +0.000 N 
ATOM     27  O   UNL     1      47.091   1.731   5.016  0.00  0.00    +0.000 OA
ATOM     28  H   UNL     1      49.240   2.741   7.137  0.00  0.00    +0.000 HD
ATOM     29  H   UNL     1      49.425   2.222   5.506  0.00  0.00    +0.000 HD
ENDBRANCH  22  25
ENDBRANCH  18  19
ENDBRANCH  17  18
ENDBRANCH   2  17
TORSDOF 6
ENDMDL
MODEL 5
REMARK VINA RESULT:    -7.241      4.317      7.814
REMARK INTER + INTRA:         -10.862
REMARK INTER:                  -9.507
REMARK INTRA:                  -1.356
REMARK UNBOUND:                -1.081
REMARK  Name = 
REMARK  8 active torsions:
REMARK  status: ('A' for Active; 'I' for Inactive)
REMARK    1  A    between atoms: C_1  and  C_2
REMARK    2  A    between atoms: C_2  and  C_3
REMARK    3  A    between atoms: C_2  and  C_4
REMARK    4  A    between atoms: C_2  and  C_15
REMARK    5  A    between atoms: C_4  and  O_5
REMARK    6  A    between atoms: O_5  and  C_6
REMARK    7  A    between atoms: C_9  and  C_10
REMARK    8  A    between atoms: C_19  and  C_20
REMARK                            x       y       z     vdW  Elec       q    Type
REMARK                         _______ _______ _______ _____ _____    ______ ____
ROOT
ATOM      1  C   UNL     1      49.558   9.685  12.888  0.00  0.00    +0.000 C 
ATOM      2  C   UNL     1      49.079   8.293  12.420  0.00  0.00    +0.000 C 
ATOM      3  C   UNL     1      49.759   8.013  11.058  0.00  0.00    +0.000 C 
ENDROOT
BRANCH   2   4
ATOM      4  C   UNL     1      47.548   8.211  12.245  0.00  0.00    +0.000 A 
ATOM      5  C   UNL     1      46.725   9.336  12.119  0.00  0.00    +0.000 A 
ATOM      6  C   UNL     1      45.353   9.198  11.910  0.00  0.00    +0.000 A 
ATOM      7  C   UNL     1      44.774   7.929  11.832  0.00  0.00    +0.000 A 
ATOM      8  C   UNL     1      45.551   6.763  11.933  0.00  0.00    +0.000 A 
ATOM      9  C   UNL     1      46.930   6.945  12.148  0.00  0.00    +0.000 A 
BRANCH   8  10
ATOM     10  C   UNL     1      44.974   5.412  11.679  0.00  0.00    +0.000 A 
ATOM     11  C   UNL     1      44.265   4.779  12.727  0.00  0.00    +0.000 A 
ATOM     12  C   UNL     1      43.596   3.564  12.555  0.00  0.00    +0.000 A 
ATOM     13  C   UNL     1      43.592   2.950  11.311  0.00  0.00    +0.000 A 
ATOM     14  C   UNL     1      44.295   3.529  10.260  0.00  0.00    +0.000 A 
ATOM     15  C   UNL     1      45.003   4.727  10.442  0.00  0.00    +0.000 A 
ATOM     16 CL   UNL     1      45.934   5.249   9.072  0.00  0.00    +0.000 Cl
ENDBRANCH   8  10
ENDBRANCH   2   4
BRANCH   2  17
ATOM     17  C   UNL     1      49.556   7.242  13.463  0.00  0.00    +0.000 C 
BRANCH  17  18
ATOM     18  O   UNL     1      49.153   7.626  14.791  0.00  0.00    +0.000 OA
BRANCH  18  19
ATOM     19  C   UNL     1      48.773   6.548  15.560  0.00  0.00    +0.000 A 
ATOM     20  C   UNL     1      49.226   6.501  16.869  0.00  0.00    +0.000 A 
ATOM     21  C   UNL     1      48.839   5.419  17.662  0.00  0.00    +0.000 A 
ATOM     22  C   UNL     1      48.008   4.426  17.127  0.00  0.00    +0.000 A 
ATOM     23  C   UNL     1      47.613   4.571  15.808  0.00  0.00    +0.000 A 
ATOM     24  N   UNL     1      47.977   5.606  15.018  0.00  0.00    +0.000 NA
BRANCH  22  25
ATOM     25  C   UNL     1      47.590   3.285  17.973  0.00  0.00    +0.000 C 
ATOM     26  N   UNL     1      48.243   3.058  19.155  0.00  0.00    +0.000 N 
ATOM     27  O   UNL     1      46.678   2.551  17.630  0.00  0.00    +0.000 OA
ATOM     28  H   UNL     1      48.997   3.607  19.539  0.00  0.00    +0.000 HD
ATOM     29  H   UNL     1      47.919   2.275  19.707  0.00  0.00    +0.000 HD
ENDBRANCH  22  25
ENDBRANCH  18  19
ENDBRANCH  17  18
ENDBRANCH   2  17
TORSDOF 6
ENDMDL
MODEL 6
REMARK VINA RESULT:    -7.030      3.188      6.120
REMARK INTER + INTRA:         -10.577
REMARK INTER:                  -8.886
REMARK INTRA:                  -1.691
REMARK UNBOUND:                -1.081
REMARK  Name = 
REMARK  8 active torsions:
REMARK  status: ('A' for Active; 'I' for Inactive)
REMARK    1  A    between atoms: C_1  and  C_2
REMARK    2  A    between atoms: C_2  and  C_3
REMARK    3  A    between atoms: C_2  and  C_4
REMARK    4  A    between atoms: C_2  and  C_15
REMARK    5  A    between atoms: C_4  and  O_5
REMARK    6  A    between atoms: O_5  and  C_6
REMARK    7  A    between atoms: C_9  and  C_10
REMARK    8  A    between atoms: C_19  and  C_20
REMARK                            x       y       z     vdW  Elec       q    Type
REMARK                         _______ _______ _______ _____ _____    ______ ____
ROOT
ATOM      1  C   UNL     1      48.042   4.809  18.668  0.00  0.00    +0.000 C 
ATOM      2  C   UNL     1      48.544   4.479  17.245  0.00  0.00    +0.000 C 
ATOM      3  C   UNL     1      49.218   3.088  17.311  0.00  0.00    +0.000 C 
ENDROOT
BRANCH   2   4
ATOM      4  C   UNL     1      49.563   5.508  16.713  0.00  0.00    +0.000 A 
ATOM      5  C   UNL     1      50.906   5.538  17.108  0.00  0.00    +0.000 A 
ATOM      6  C   UNL     1      51.794   6.459  16.552  0.00  0.00    +0.000 A 
ATOM      7  C   UNL     1      51.355   7.376  15.596  0.00  0.00    +0.000 A 
ATOM      8  C   UNL     1      50.023   7.383  15.146  0.00  0.00    +0.000 A 
ATOM      9  C   UNL     1      49.158   6.441  15.734  0.00  0.00    +0.000 A 
BRANCH   8  10
ATOM     10  C   UNL     1      49.585   8.236  14.005  0.00  0.00    +0.000 A 
ATOM     11  C   UNL     1      49.604   7.678  12.706  0.00  0.00    +0.000 A 
ATOM     12  C   UNL     1      49.110   8.359  11.589  0.00  0.00    +0.000 A 
ATOM     13  C   UNL     1      48.553   9.620  11.740  0.00  0.00    +0.000 A 
ATOM     14  C   UNL     1      48.535  10.213  12.998  0.00  0.00    +0.000 A 
ATOM     15  C   UNL     1      49.068   9.549  14.114  0.00  0.00    +0.000 A 
ATOM     16 CL   UNL     1      49.088  10.475  15.583  0.00  0.00    +0.000 Cl
ENDBRANCH   8  10
ENDBRANCH   2   4
BRANCH   2  17
ATOM     17  C   UNL     1      47.309   4.412  16.301  0.00  0.00    +0.000 C 
BRANCH  17  18
ATOM     18  O   UNL     1      47.595   3.599  15.148  0.00  0.00    +0.000 OA
BRANCH  18  19
ATOM     19  C   UNL     1      46.870   3.979  14.040  0.00  0.00    +0.000 A 
ATOM     20  C   UNL     1      46.901   5.318  13.681  0.00  0.00    +0.000 A 
ATOM     21  C   UNL     1      46.179   5.714  12.554  0.00  0.00    +0.000 A 
ATOM     22  C   UNL     1      45.459   4.765  11.819  0.00  0.00    +0.000 A 
ATOM     23  C   UNL     1      45.497   3.454  12.265  0.00  0.00    +0.000 A 
ATOM     24  N   UNL     1      46.184   3.045  13.355  0.00  0.00    +0.000 NA
BRANCH  22  25
ATOM     25  C   UNL     1      44.702   5.185  10.617  0.00  0.00    +0.000 C 
ATOM     26  N   UNL     1      45.377   5.380   9.442  0.00  0.00    +0.000 N 
ATOM     27  O   UNL     1      43.496   5.358  10.663  0.00  0.00    +0.000 OA
ATOM     28  H   UNL     1      46.366   5.253   9.289  0.00  0.00    +0.000 HD
ATOM     29  H   UNL     1      44.822   5.657   8.642  0.00  0.00    +0.000 HD
ENDBRANCH  22  25
ENDBRANCH  18  19
ENDBRANCH  17  18
ENDBRANCH   2  17
TORSDOF 6
ENDMDL
MODEL 7
REMARK VINA RESULT:    -6.989      3.111      5.119
REMARK INTER + INTRA:         -10.521
REMARK INTER:                  -8.969
REMARK INTRA:                  -1.553
REMARK UNBOUND:                -1.081
REMARK  Name = 
REMARK  8 active torsions:
REMARK  status: ('A' for Active; 'I' for Inactive)
REMARK    1  A    between atoms: C_1  and  C_2
REMARK    2  A    between atoms: C_2  and  C_3
REMARK    3  A    between atoms: C_2  and  C_4
REMARK    4  A    between atoms: C_2  and  C_15
REMARK    5  A    between atoms: C_4  and  O_5
REMARK    6  A    between atoms: O_5  and  C_6
REMARK    7  A    between atoms: C_9  and  C_10
REMARK    8  A    between atoms: C_19  and  C_20
REMARK                            x       y       z     vdW  Elec       q    Type
REMARK                         _______ _______ _______ _____ _____    ______ ____
ROOT
ATOM      1  C   UNL     1      49.316   7.263  11.934  0.00  0.00    +0.000 C 
ATOM      2  C   UNL     1      48.552   8.391  12.664  0.00  0.00    +0.000 C 
ATOM      3  C   UNL     1      49.207   9.729  12.244  0.00  0.00    +0.000 C 
ENDROOT
BRANCH   2   4
ATOM      4  C   UNL     1      48.613   8.261  14.201  0.00  0.00    +0.000 A 
ATOM      5  C   UNL     1      48.426   9.339  15.073  0.00  0.00    +0.000 A 
ATOM      6  C   UNL     1      48.440   9.151  16.456  0.00  0.00    +0.000 A 
ATOM      7  C   UNL     1      48.651   7.879  16.994  0.00  0.00    +0.000 A 
ATOM      8  C   UNL     1      48.827   6.756  16.168  0.00  0.00    +0.000 A 
ATOM      9  C   UNL     1      48.811   6.989  14.780  0.00  0.00    +0.000 A 
BRANCH   8  10
ATOM     10  C   UNL     1      48.879   5.374  16.725  0.00  0.00    +0.000 A 
ATOM     11  C   UNL     1      47.703   4.589  16.678  0.00  0.00    +0.000 A 
ATOM     12  C   UNL     1      47.679   3.248  17.073  0.00  0.00    +0.000 A 
ATOM     13  C   UNL     1      48.845   2.636  17.507  0.00  0.00    +0.000 A 
ATOM     14  C   UNL     1      50.018   3.379  17.589  0.00  0.00    +0.000 A 
ATOM     15  C   UNL     1      50.035   4.737  17.233  0.00  0.00    +0.000 A 
ATOM     16 CL   UNL     1      51.541   5.554  17.515  0.00  0.00    +0.000 Cl
ENDBRANCH   8  10
ENDBRANCH   2   4
BRANCH   2  17
ATOM     17  C   UNL     1      47.074   8.364  12.183  0.00  0.00    +0.000 C 
BRANCH  17  18
ATOM     18  O   UNL     1      46.244   7.669  13.132  0.00  0.00    +0.000 OA
BRANCH  18  19
ATOM     19  C   UNL     1      45.699   6.515  12.612  0.00  0.00    +0.000 A 
ATOM     20  C   UNL     1      45.913   5.334  13.306  0.00  0.00    +0.000 A 
ATOM     21  C   UNL     1      45.357   4.160  12.795  0.00  0.00    +0.000 A 
ATOM     22  C   UNL     1      44.601   4.203  11.616  0.00  0.00    +0.000 A 
ATOM     23  C   UNL     1      44.450   5.435  11.003  0.00  0.00    +0.000 A 
ATOM     24  N   UNL     1      44.982   6.586  11.475  0.00  0.00    +0.000 NA
BRANCH  22  25
ATOM     25  C   UNL     1      44.003   2.958  11.081  0.00  0.00    +0.000 C 
ATOM     26  N   UNL     1      44.636   2.302  10.059  0.00  0.00    +0.000 N 
ATOM     27  O   UNL     1      42.962   2.516  11.537  0.00  0.00    +0.000 OA
ATOM     28  H   UNL     1      45.504   2.571   9.620  0.00  0.00    +0.000 HD
ATOM     29  H   UNL     1      44.200   1.451   9.730  0.00  0.00    +0.000 HD
ENDBRANCH  22  25
ENDBRANCH  18  19
ENDBRANCH  17  18
ENDBRANCH   2  17
TORSDOF 6
ENDMDL
MODEL 8
REMARK VINA RESULT:    -6.935      3.384      6.505
REMARK INTER + INTRA:         -10.449
REMARK INTER:                  -9.299
REMARK INTRA:                  -1.150
REMARK UNBOUND:                -1.081
REMARK  Name = 
REMARK  8 active torsions:
REMARK  status: ('A' for Active; 'I' for Inactive)
REMARK    1  A    between atoms: C_1  and  C_2
REMARK    2  A    between atoms: C_2  and  C_3
REMARK    3  A    between atoms: C_2  and  C_4
REMARK    4  A    between atoms: C_2  and  C_15
REMARK    5  A    between atoms: C_4  and  O_5
REMARK    6  A    between atoms: O_5  and  C_6
REMARK    7  A    between atoms: C_9  and  C_10
REMARK    8  A    between atoms: C_19  and  C_20
REMARK                            x       y       z     vdW  Elec       q    Type
REMARK                         _______ _______ _______ _____ _____    ______ ____
ROOT
ATOM      1  C   UNL     1      47.003   2.709  17.638  0.00  0.00    +0.000 C 
ATOM      2  C   UNL     1      48.232   3.427  17.036  0.00  0.00    +0.000 C 
ATOM      3  C   UNL     1      49.236   2.328  16.612  0.00  0.00    +0.000 C 
ENDROOT
BRANCH   2   4
ATOM      4  C   UNL     1      48.921   4.381  18.034  0.00  0.00    +0.000 A 
ATOM      5  C   UNL     1      50.253   4.242  18.439  0.00  0.00    +0.000 A 
ATOM      6  C   UNL     1      50.838   5.167  19.304  0.00  0.00    +0.000 A 
ATOM      7  C   UNL     1      50.096   6.246  19.790  0.00  0.00    +0.000 A 
ATOM      8  C   UNL     1      48.760   6.448  19.406  0.00  0.00    +0.000 A 
ATOM      9  C   UNL     1      48.206   5.491  18.536  0.00  0.00    +0.000 A 
BRANCH   8  10
ATOM     10  C   UNL     1      48.015   7.685  19.778  0.00  0.00    +0.000 A 
ATOM     11  C   UNL     1      47.563   7.818  21.112  0.00  0.00    +0.000 A 
ATOM     12  C   UNL     1      46.954   8.983  21.585  0.00  0.00    +0.000 A 
ATOM     13  C   UNL     1      46.799  10.073  20.741  0.00  0.00    +0.000 A 
ATOM     14  C   UNL     1      47.210   9.975  19.416  0.00  0.00    +0.000 A 
ATOM     15  C   UNL     1      47.784   8.791  18.927  0.00  0.00    +0.000 A 
ATOM     16 CL   UNL     1      48.123   8.785  17.224  0.00  0.00    +0.000 Cl
ENDBRANCH   8  10
ENDBRANCH   2   4
BRANCH   2  17
ATOM     17  C   UNL     1      47.764   4.214  15.779  0.00  0.00    +0.000 C 
BRANCH  17  18
ATOM     18  O   UNL     1      47.472   3.313  14.695  0.00  0.00    +0.000 OA
BRANCH  18  19
ATOM     19  C   UNL     1      46.556   3.834  13.808  0.00  0.00    +0.000 A 
ATOM     20  C   UNL     1      46.371   5.208  13.808  0.00  0.00    +0.000 A 
ATOM     21  C   UNL     1      45.454   5.750  12.905  0.00  0.00    +0.000 A 
ATOM     22  C   UNL     1      44.759   4.907  12.029  0.00  0.00    +0.000 A 
ATOM     23  C   UNL     1      45.020   3.549  12.112  0.00  0.00    +0.000 A 
ATOM     24  N   UNL     1      45.899   2.999  12.980  0.00  0.00    +0.000 NA
BRANCH  22  25
ATOM     25  C   UNL     1      43.794   5.484  11.064  0.00  0.00    +0.000 C 
ATOM     26  N   UNL     1      43.384   6.780  11.230  0.00  0.00    +0.000 N 
ATOM     27  O   UNL     1      43.365   4.822  10.134  0.00  0.00    +0.000 OA
ATOM     28  H   UNL     1      43.685   7.417  11.952  0.00  0.00    +0.000 HD
ATOM     29  H   UNL     1      42.733   7.139  10.543  0.00  0.00    +0.000 HD
ENDBRANCH  22  25
ENDBRANCH  18  19
ENDBRANCH  17  18
ENDBRANCH   2  17
TORSDOF 6
ENDMDL
MODEL 9
REMARK VINA RESULT:    -6.917      3.710      6.397
REMARK INTER + INTRA:         -10.425
REMARK INTER:                  -9.046
REMARK INTRA:                  -1.379
REMARK UNBOUND:                -1.081
REMARK  Name = 
REMARK  8 active torsions:
REMARK  status: ('A' for Active; 'I' for Inactive)
REMARK    1  A    between atoms: C_1  and  C_2
REMARK    2  A    between atoms: C_2  and  C_3
REMARK    3  A    between atoms: C_2  and  C_4
REMARK    4  A    between atoms: C_2  and  C_15
REMARK    5  A    between atoms: C_4  and  O_5
REMARK    6  A    between atoms: O_5  and  C_6
REMARK    7  A    between atoms: C_9  and  C_10
REMARK    8  A    between atoms: C_19  and  C_20
REMARK                            x       y       z     vdW  Elec       q    Type
REMARK                         _______ _______ _______ _____ _____    ______ ____
ROOT
ATOM      1  C   UNL     1      50.949   7.909  14.785  0.00  0.00    +0.000 C 
ATOM      2  C   UNL     1      49.574   7.982  15.487  0.00  0.00    +0.000 C 
ATOM      3  C   UNL     1      49.423   9.418  16.044  0.00  0.00    +0.000 C 
ENDROOT
BRANCH   2   4
ATOM      4  C   UNL     1      49.439   6.975  16.649  0.00  0.00    +0.000 A 
ATOM      5  C   UNL     1      48.456   7.071  17.641  0.00  0.00    +0.000 A 
ATOM      6  C   UNL     1      48.350   6.100  18.638  0.00  0.00    +0.000 A 
ATOM      7  C   UNL     1      49.231   5.017  18.667  0.00  0.00    +0.000 A 
ATOM      8  C   UNL     1      50.226   4.858  17.688  0.00  0.00    +0.000 A 
ATOM      9  C   UNL     1      50.304   5.860  16.703  0.00  0.00    +0.000 A 
BRANCH   8  10
ATOM     10  C   UNL     1      51.056   3.622  17.608  0.00  0.00    +0.000 A 
ATOM     11  C   UNL     1      52.407   3.696  18.022  0.00  0.00    +0.000 A 
ATOM     12  C   UNL     1      53.234   2.571  18.089  0.00  0.00    +0.000 A 
ATOM     13  C   UNL     1      52.727   1.322  17.766  0.00  0.00    +0.000 A 
ATOM     14  C   UNL     1      51.410   1.209  17.333  0.00  0.00    +0.000 A 
ATOM     15  C   UNL     1      50.589   2.343  17.225  0.00  0.00    +0.000 A 
ATOM     16 CL   UNL     1      49.018   2.053  16.547  0.00  0.00    +0.000 Cl
ENDBRANCH   8  10
ENDBRANCH   2   4
BRANCH   2  17
ATOM     17  C   UNL     1      48.473   7.720  14.421  0.00  0.00    +0.000 C 
BRANCH  17  18
ATOM     18  O   UNL     1      48.845   6.625  13.565  0.00  0.00    +0.000 OA
BRANCH  18  19
ATOM     19  C   UNL     1      47.778   5.807  13.261  0.00  0.00    +0.000 A 
ATOM     20  C   UNL     1      46.904   6.233  12.273  0.00  0.00    +0.000 A 
ATOM     21  C   UNL     1      45.825   5.408  11.948  0.00  0.00    +0.000 A 
ATOM     22  C   UNL     1      45.659   4.185  12.610  0.00  0.00    +0.000 A 
ATOM     23  C   UNL     1      46.592   3.856  13.579  0.00  0.00    +0.000 A 
ATOM     24  N   UNL     1      47.642   4.639  13.917  0.00  0.00    +0.000 NA
BRANCH  22  25
ATOM     25  C   UNL     1      44.521   3.306  12.256  0.00  0.00    +0.000 C 
ATOM     26  N   UNL     1      44.485   2.734  11.012  0.00  0.00    +0.000 N 
ATOM     27  O   UNL     1      43.624   3.090  13.053  0.00  0.00    +0.000 OA
ATOM     28  H   UNL     1      45.177   2.833  10.285  0.00  0.00    +0.000 HD
ATOM     29  H   UNL     1      43.696   2.132  10.815  0.00  0.00    +0.000 HD
ENDBRANCH  22  25
ENDBRANCH  18  19
ENDBRANCH  17  18
ENDBRANCH   2  17
TORSDOF 6
ENDMDL
