MODEL 1
REMARK VINA RESULT:    -7.430      0.000      0.000
REMARK INTER + INTRA:         -10.267
REMARK INTER:                  -9.819
REMARK INTRA:                  -0.448
REMARK UNBOUND:                -0.448
REMARK  Name = 
REMARK  6 active torsions:
REMARK  status: ('A' for Active; 'I' for Inactive)
REMARK    1  A    between atoms: N_1  and  C_2
REMARK    2  A    between atoms: C_2  and  C_3
REMARK    3  A    between atoms: C_7  and  C_8
REMARK    4  A    between atoms: C_9  and  S_10
REMARK    5  A    between atoms: S_10  and  C_11
REMARK    6  A    between atoms: C_14  and  C_15
REMARK                            x       y       z     vdW  Elec       q    Type
REMARK                         _______ _______ _______ _____ _____    ______ ____
ROOT
ATOM      1  C   UNL     1      45.685   4.312  12.588  0.00  0.00    +0.000 C 
ATOM      2  C   UNL     1      44.936   5.099  11.789  0.00  0.00    +0.000 C 
ENDROOT
BRANCH   1   7
ATOM      3  C   UNL     1      47.609   4.731  15.812  0.00  0.00    +0.000 A 
ATOM      4  C   UNL     1      48.290   5.912  15.512  0.00  0.00    +0.000 A 
ATOM      5  C   UNL     1      48.064   6.498  14.278  0.00  0.00    +0.000 A 
ATOM      6  N   UNL     1      47.226   6.002  13.343  0.00  0.00    +0.000 NA
ATOM      7  C   UNL     1      46.570   4.853  13.632  0.00  0.00    +0.000 A 
ATOM      8  C   UNL     1      46.725   4.208  14.855  0.00  0.00    +0.000 A 
BRANCH   3   9
ATOM      9  C   UNL     1      47.830   3.992  17.104  0.00  0.00    +0.000 C 
BRANCH   9  10
ATOM     10  N   UNL     1      46.660   3.183  17.427  0.00  0.00    +0.000 NA
ATOM     11  H   UNL     1      46.943   2.362  17.952  0.00  0.00    +0.000 HD
ATOM     12  H   UNL     1      46.237   2.850  16.561  0.00  0.00    +0.000 HD
ENDBRANCH   9  10
ENDBRANCH   3   9
ENDBRANCH   1   7
BRANCH   2  13
ATOM     13  S   UNL     1      43.844   4.461  10.610  0.00  0.00    +0.000 S 
BRANCH  13  14
ATOM     14  C   UNL     1      44.932   3.730   9.381  0.00  0.00    +0.000 A 
ATOM     15  C   UNL     1      45.670   4.443   8.432  0.00  0.00    +0.000 A 
ATOM     16  C   UNL     1      46.496   3.779   7.513  0.00  0.00    +0.000 A 
ATOM     17  C   UNL     1      46.596   2.383   7.515  0.00  0.00    +0.000 A 
ATOM     18  C   UNL     1      45.852   1.655   8.446  0.00  0.00    +0.000 A 
ATOM     19  C   UNL     1      45.027   2.327   9.365  0.00  0.00    +0.000 A 
BRANCH  17  20
ATOM     20  C   UNL     1      47.461   1.749   6.478  0.00  0.00    +0.000 C 
ATOM     21  N   UNL     1      48.472   2.499   5.938  0.00  0.00    +0.000 N 
ATOM     22  O   UNL     1      47.268   0.606   6.100  0.00  0.00    +0.000 OA
ATOM     23  H   UNL     1      48.662   3.462   6.163  0.00  0.00    +0.000 HD
ATOM     24  H   UNL     1      49.029   2.053   5.218  0.00  0.00    +0.000 HD
ENDBRANCH  17  20
ENDBRANCH  13  14
ENDBRANCH   2  13
TORSDOF 6
ENDMDL
MODEL 2
REMARK VINA RESULT:    -7.232      1.053      2.318
REMARK INTER + INTRA:         -10.005
REMARK INTER:                  -9.528
REMARK INTRA:                  -0.477
REMARK UNBOUND:                -0.448
REMARK  Name = 
REMARK  6 active torsions:
REMARK  status: ('A' for Active; 'I' for Inactive)
REMARK    1  A    between atoms: N_1  and  C_2
REMARK    2  A    between atoms: C_2  and  C_3
REMARK    3  A    between atoms: C_7  and  C_8
REMARK    4  A    between atoms: C_9  and  S_10
REMARK    5  A    between atoms: S_10  and  C_11
REMARK    6  A    between atoms: C_14  and  C_15
REMARK                            x       y       z     vdW  Elec       q    Type
REMARK                         _______ _______ _______ _____ _____    ______ ____
ROOT
ATOM      1  C   UNL     1      45.635   4.251  12.482  0.00  0.00    +0.000 C 
ATOM      2  C   UNL     1      44.837   5.106  11.811  0.00  0.00    +0.000 C 
ENDROOT
BRANCH   1   7
ATOM      3  C   UNL     1      48.089   6.228  14.566  0.00  0.00    +0.000 A 
ATOM      4  C   UNL     1      48.085   5.442  15.719  0.00  0.00    +0.000 A 
ATOM      5  C   UNL     1      47.287   4.310  15.732  0.00  0.00    +0.000 A 
ATOM      6  N   UNL     1      46.511   3.914  14.701  0.00  0.00    +0.000 NA
ATOM      7  C   UNL     1      46.511   4.681  13.584  0.00  0.00    +0.000 A 
ATOM      8  C   UNL     1      47.296   5.825  13.480  0.00  0.00    +0.000 A 
BRANCH   3   9
ATOM      9  C   UNL     1      48.880   7.505  14.476  0.00  0.00    +0.000 C 
BRANCH   9  10
ATOM     10  N   UNL     1      50.254   7.218  14.078  0.00  0.00    +0.000 NA
ATOM     11  H   UNL     1      50.841   7.137  14.902  0.00  0.00    +0.000 HD
ATOM     12  H   UNL     1      50.612   8.002  13.535  0.00  0.00    +0.000 HD
ENDBRANCH   9  10
ENDBRANCH   3   9
ENDBRANCH   1   7
BRANCH   2  13
ATOM     13  S   UNL     1      43.756   4.589  10.564  0.00  0.00    +0.000 S 
BRANCH  13  14
ATOM     14  C   UNL     1      44.825   3.704   9.422  0.00  0.00    +0.000 A 
ATOM     15  C   UNL     1      44.930   2.313   9.331  0.00  0.00    +0.000 A 
ATOM     16  C   UNL     1      45.795   1.714   8.401  0.00  0.00    +0.000 A 
ATOM     17  C   UNL     1      46.584   2.495   7.548  0.00  0.00    +0.000 A 
ATOM     18  C   UNL     1      46.502   3.886   7.639  0.00  0.00    +0.000 A 
ATOM     19  C   UNL     1      45.633   4.479   8.571  0.00  0.00    +0.000 A 
BRANCH  17  20
ATOM     20  C   UNL     1      47.509   1.785   6.620  0.00  0.00    +0.000 C 
ATOM     21  N   UNL     1      48.549   2.496   6.079  0.00  0.00    +0.000 N 
ATOM     22  O   UNL     1      47.343   0.613   6.327  0.00  0.00    +0.000 OA
ATOM     23  H   UNL     1      48.722   3.476   6.234  0.00  0.00    +0.000 HD
ATOM     24  H   UNL     1      49.149   1.996   5.433  0.00  0.00    +0.000 HD
ENDBRANCH  17  20
ENDBRANCH  13  14
ENDBRANCH   2  13
TORSDOF 6
ENDMDL
MODEL 3
REMARK VINA RESULT:    -6.992      2.694      3.375
REMARK INTER + INTRA:          -9.688
REMARK INTER:                  -9.261
REMARK INTRA:                  -0.427
REMARK UNBOUND:                -0.448
REMARK  Name = 
REMARK  6 active torsions:
REMARK  status: ('A' for Active; 'I' for Inactive)
REMARK    1  A    between atoms: N_1  and  C_2
REMARK    2  A    between atoms: C_2  and  C_3
REMARK    3  A    between atoms: C_7  and  C_8
REMARK    4  A    between atoms: C_9  and  S_10
REMARK    5  A    between atoms: S_10  and  C_11
REMARK    6  A    between atoms: C_14  and  C_15
REMARK                            x       y       z     vdW  Elec       q    Type
REMARK                         _______ _______ _______ _____ _____    ______ ____
ROOT
ATOM      1  C   UNL     1      45.748   5.577  11.656  0.00  0.00    +0.000 C 
ATOM      2  C   UNL     1      44.558   5.610  11.022  0.00  0.00    +0.000 C 
ENDROOT
BRANCH   1   7
ATOM      3  C   UNL     1      48.377   8.231  12.219  0.00  0.00    +0.000 A 
ATOM      4  C   UNL     1      47.627   9.128  12.983  0.00  0.00    +0.000 A 
ATOM      5  C   UNL     1      46.314   8.796  13.272  0.00  0.00    +0.000 A 
ATOM      6  N   UNL     1      45.708   7.661  12.864  0.00  0.00    +0.000 NA
ATOM      7  C   UNL     1      46.435   6.794  12.117  0.00  0.00    +0.000 A 
ATOM      8  C   UNL     1      47.765   7.040  11.796  0.00  0.00    +0.000 A 
BRANCH   3   9
ATOM      9  C   UNL     1      49.794   8.528  11.808  0.00  0.00    +0.000 C 
BRANCH   9  10
ATOM     10  N   UNL     1      50.516   7.285  11.561  0.00  0.00    +0.000 NA
ATOM     11  H   UNL     1      51.170   7.111  12.318  0.00  0.00    +0.000 HD
ATOM     12  H   UNL     1      51.067   7.385  10.710  0.00  0.00    +0.000 HD
ENDBRANCH   9  10
ENDBRANCH   3   9
ENDBRANCH   1   7
BRANCH   2  13
ATOM     13  S   UNL     1      43.718   4.176  10.542  0.00  0.00    +0.000 S 
BRANCH  13  14
ATOM     14  C   UNL     1      44.830   3.415   9.353  0.00  0.00    +0.000 A 
ATOM     15  C   UNL     1      45.112   2.048   9.273  0.00  0.00    +0.000 A 
ATOM     16  C   UNL     1      45.996   1.549   8.305  0.00  0.00    +0.000 A 
ATOM     17  C   UNL     1      46.628   2.409   7.398  0.00  0.00    +0.000 A 
ATOM     18  C   UNL     1      46.369   3.779   7.475  0.00  0.00    +0.000 A 
ATOM     19  C   UNL     1      45.481   4.272   8.448  0.00  0.00    +0.000 A 
BRANCH  17  20
ATOM     20  C   UNL     1      47.587   1.808   6.428  0.00  0.00    +0.000 C 
ATOM     21  N   UNL     1      48.763   2.469   6.191  0.00  0.00    +0.000 N 
ATOM     22  O   UNL     1      47.333   0.769   5.841  0.00  0.00    +0.000 OA
ATOM     23  H   UNL     1      49.021   3.354   6.599  0.00  0.00    +0.000 HD
ATOM     24  H   UNL     1      49.386   2.052   5.509  0.00  0.00    +0.000 HD
ENDBRANCH  17  20
ENDBRANCH  13  14
ENDBRANCH   2  13
TORSDOF 6
ENDMDL
MODEL 4
REMARK VINA RESULT:    -6.801      1.817      3.174
REMARK INTER + INTRA:          -9.435
REMARK INTER:                  -8.976
REMARK INTRA:                  -0.459
REMARK UNBOUND:                -0.448
REMARK  Name = 
REMARK  6 active torsions:
REMARK  status: ('A' for Active; 'I' for Inactive)
REMARK    1  A    between atoms: N_1  and  C_2
REMARK    2  A    between atoms: C_2  and  C_3
REMARK    3  A    between atoms: C_7  and  C_8
REMARK    4  A    between atoms: C_9  and  S_10
REMARK    5  A    between atoms: S_10  and  C_11
REMARK    6  A    between atoms: C_14  and  C_15
REMARK                            x       y       z     vdW  Elec       q    Type
REMARK                         _______ _______ _______ _____ _____    ______ ____
ROOT
ATOM      1  C   UNL     1      45.928   5.373  11.848  0.00  0.00    +0.000 C 
ATOM      2  C   UNL     1      44.751   5.635  11.245  0.00  0.00    +0.000 C 
ENDROOT
BRANCH   1   7
ATOM      3  C   UNL     1      47.460   8.692  12.800  0.00  0.00    +0.000 A 
ATOM      4  C   UNL     1      48.170   8.292  13.933  0.00  0.00    +0.000 A 
ATOM      5  C   UNL     1      48.109   6.958  14.302  0.00  0.00    +0.000 A 
ATOM      6  N   UNL     1      47.407   6.016  13.637  0.00  0.00    +0.000 NA
ATOM      7  C   UNL     1      46.712   6.407  12.541  0.00  0.00    +0.000 A 
ATOM      8  C   UNL     1      46.733   7.723  12.091  0.00  0.00    +0.000 A 
BRANCH   3   9
ATOM      9  C   UNL     1      47.421  10.128  12.352  0.00  0.00    +0.000 C 
BRANCH   9  10
ATOM     10  N   UNL     1      46.043  10.602  12.305  0.00  0.00    +0.000 NA
ATOM     11  H   UNL     1      45.883  11.112  11.441  0.00  0.00    +0.000 HD
ATOM     12  H   UNL     1      45.890  11.259  13.069  0.00  0.00    +0.000 HD
ENDBRANCH   9  10
ENDBRANCH   3   9
ENDBRANCH   1   7
BRANCH   2  13
ATOM     13  S   UNL     1      43.795   4.406  10.491  0.00  0.00    +0.000 S 
BRANCH  13  14
ATOM     14  C   UNL     1      44.917   3.677   9.292  0.00  0.00    +0.000 A 
ATOM     15  C   UNL     1      45.617   4.384   8.310  0.00  0.00    +0.000 A 
ATOM     16  C   UNL     1      46.475   3.722   7.417  0.00  0.00    +0.000 A 
ATOM     17  C   UNL     1      46.645   2.334   7.481  0.00  0.00    +0.000 A 
ATOM     18  C   UNL     1      45.941   1.612   8.447  0.00  0.00    +0.000 A 
ATOM     19  C   UNL     1      45.083   2.281   9.338  0.00  0.00    +0.000 A 
BRANCH  17  20
ATOM     20  C   UNL     1      47.539   1.700   6.471  0.00  0.00    +0.000 C 
ATOM     21  N   UNL     1      48.651   2.393   6.069  0.00  0.00    +0.000 N 
ATOM     22  O   UNL     1      47.287   0.606   5.994  0.00  0.00    +0.000 OA
ATOM     23  H   UNL     1      48.899   3.319   6.380  0.00  0.00    +0.000 HD
ATOM     24  H   UNL     1      49.228   1.950   5.364  0.00  0.00    +0.000 HD
ENDBRANCH  17  20
ENDBRANCH  13  14
ENDBRANCH   2  13
TORSDOF 6
ENDMDL
MODEL 5
REMARK VINA RESULT:    -6.520      3.518      7.938
REMARK INTER + INTRA:          -9.063
REMARK INTER:                  -8.635
REMARK INTRA:                  -0.428
REMARK UNBOUND:                -0.448
REMARK  Name = 
REMARK  6 active torsions:
REMARK  status: ('A' for Active; 'I' for Inactive)
REMARK    1  A    between atoms: N_1  and  C_2
REMARK    2  A    between atoms: C_2  and  C_3
REMARK    3  A    between atoms: C_7  and  C_8
REMARK    4  A    between atoms: C_9  and  S_10
REMARK    5  A    between atoms: S_10  and  C_11
REMARK    6  A    between atoms: C_14  and  C_15
REMARK                            x       y       z     vdW  Elec       q    Type
REMARK                         _______ _______ _______ _____ _____    ______ ____
ROOT
ATOM      1  C   UNL     1      44.610   4.323   9.123  0.00  0.00    +0.000 C 
ATOM      2  C   UNL     1      43.984   4.105  10.297  0.00  0.00    +0.000 C 
ENDROOT
BRANCH   1   7
ATOM      3  C   UNL     1      46.686   2.494   6.550  0.00  0.00    +0.000 A 
ATOM      4  C   UNL     1      46.703   1.229   7.138  0.00  0.00    +0.000 A 
ATOM      5  C   UNL     1      46.022   1.056   8.332  0.00  0.00    +0.000 A 
ATOM      6  N   UNL     1      45.342   2.033   8.968  0.00  0.00    +0.000 NA
ATOM      7  C   UNL     1      45.331   3.264   8.400  0.00  0.00    +0.000 A 
ATOM      8  C   UNL     1      45.973   3.519   7.193  0.00  0.00    +0.000 A 
BRANCH   3   9
ATOM      9  C   UNL     1      47.440   2.793   5.283  0.00  0.00    +0.000 C 
BRANCH   9  10
ATOM     10  N   UNL     1      48.443   1.763   5.040  0.00  0.00    +0.000 NA
ATOM     11  H   UNL     1      48.118   1.130   4.315  0.00  0.00    +0.000 HD
ATOM     12  H   UNL     1      48.560   1.208   5.887  0.00  0.00    +0.000 HD
ENDBRANCH   9  10
ENDBRANCH   3   9
ENDBRANCH   1   7
BRANCH   2  13
ATOM     13  S   UNL     1      43.077   5.333  11.112  0.00  0.00    +0.000 S 
BRANCH  13  14
ATOM     14  C   UNL     1      44.345   6.399  11.809  0.00  0.00    +0.000 A 
ATOM     15  C   UNL     1      44.478   7.767  11.553  0.00  0.00    +0.000 A 
ATOM     16  C   UNL     1      45.504   8.516  12.149  0.00  0.00    +0.000 A 
ATOM     17  C   UNL     1      46.429   7.911  13.009  0.00  0.00    +0.000 A 
ATOM     18  C   UNL     1      46.319   6.542  13.262  0.00  0.00    +0.000 A 
ATOM     19  C   UNL     1      45.288   5.797  12.662  0.00  0.00    +0.000 A 
BRANCH  17  20
ATOM     20  C   UNL     1      47.515   8.765  13.568  0.00  0.00    +0.000 C 
ATOM     21  N   UNL     1      47.497   9.034  14.911  0.00  0.00    +0.000 N 
ATOM     22  O   UNL     1      48.387   9.234  12.855  0.00  0.00    +0.000 OA
ATOM     23  H   UNL     1      46.785   8.725  15.553  0.00  0.00    +0.000 HD
ATOM     24  H   UNL     1      48.233   9.637  15.261  0.00  0.00    +0.000 HD
ENDBRANCH  17  20
ENDBRANCH  13  14
ENDBRANCH   2  13
TORSDOF 6
ENDMDL
MODEL 6
REMARK VINA RESULT:    -5.784      4.965      8.729
REMARK INTER + INTRA:          -8.092
REMARK INTER:                  -7.759
REMARK INTRA:                  -0.333
REMARK UNBOUND:                -0.448
REMARK  Name = 
REMARK  6 active torsions:
REMARK  status: ('A' for Active; 'I' for Inactive)
REMARK    1  A    between atoms: N_1  and  C_2
REMARK    2  A    between atoms: C_2  and  C_3
REMARK    3  A    between atoms: C_7  and  C_8
REMARK    4  A    between atoms: C_9  and  S_10
REMARK    5  A    between atoms: S_10  and  C_11
REMARK    6  A    between atoms: C_14  and  C_15
REMARK                            x       y       z     vdW  Elec       q    Type
REMARK                         _______ _______ _______ _____ _____    ______ ____
ROOT
ATOM      1  C   UNL     1      47.350   5.252  14.978  0.00  0.00    +0.000 C 
ATOM      2  C   UNL     1      47.665   4.495  16.049  0.00  0.00    +0.000 C 
ENDROOT
BRANCH   1   7
ATOM      3  C   UNL     1      44.789   5.180  12.202  0.00  0.00    +0.000 A 
ATOM      4  C   UNL     1      44.844   3.822  11.884  0.00  0.00    +0.000 A 
ATOM      5  C   UNL     1      45.708   3.018  12.610  0.00  0.00    +0.000 A 
ATOM      6  N   UNL     1      46.503   3.462  13.606  0.00  0.00    +0.000 NA
ATOM      7  C   UNL     1      46.454   4.781  13.910  0.00  0.00    +0.000 A 
ATOM      8  C   UNL     1      45.601   5.655  13.244  0.00  0.00    +0.000 A 
BRANCH   3   9
ATOM      9  C   UNL     1      43.922   6.142  11.435  0.00  0.00    +0.000 C 
BRANCH   9  10
ATOM     10  N   UNL     1      43.319   5.470  10.290  0.00  0.00    +0.000 NA
ATOM     11  H   UNL     1      43.146   4.495  10.514  0.00  0.00    +0.000 HD
ATOM     12  H   UNL     1      43.977   5.484   9.512  0.00  0.00    +0.000 HD
ENDBRANCH   9  10
ENDBRANCH   3   9
ENDBRANCH   1   7
BRANCH   2  13
ATOM     13  S   UNL     1      48.662   5.073  17.339  0.00  0.00    +0.000 S 
BRANCH  13  14
ATOM     14  C   UNL     1      49.947   3.824  17.469  0.00  0.00    +0.000 A 
ATOM     15  C   UNL     1      49.788   2.469  17.165  0.00  0.00    +0.000 A 
ATOM     16  C   UNL     1      50.857   1.569  17.297  0.00  0.00    +0.000 A 
ATOM     17  C   UNL     1      52.109   2.003  17.747  0.00  0.00    +0.000 A 
ATOM     18  C   UNL     1      52.280   3.351  18.071  0.00  0.00    +0.000 A 
ATOM     19  C   UNL     1      51.205   4.248  17.935  0.00  0.00    +0.000 A 
BRANCH  17  20
ATOM     20  C   UNL     1      53.181   0.979  17.903  0.00  0.00    +0.000 C 
ATOM     21  N   UNL     1      53.306   0.024  16.929  0.00  0.00    +0.000 N 
ATOM     22  O   UNL     1      53.917   0.970  18.876  0.00  0.00    +0.000 OA
ATOM     23  H   UNL     1      52.706  -0.063  16.124  0.00  0.00    +0.000 HD
ATOM     24  H   UNL     1      54.026  -0.675  17.071  0.00  0.00    +0.000 HD
ENDBRANCH  17  20
ENDBRANCH  13  14
ENDBRANCH   2  13
TORSDOF 6
ENDMDL
MODEL 7
REMARK VINA RESULT:    -5.651      4.188      7.637
REMARK INTER + INTRA:          -7.916
REMARK INTER:                  -7.519
REMARK INTRA:                  -0.397
REMARK UNBOUND:                -0.448
REMARK  Name = 
REMARK  6 active torsions:
REMARK  status: ('A' for Active; 'I' for Inactive)
REMARK    1  A    between atoms: N_1  and  C_2
REMARK    2  A    between atoms: C_2  and  C_3
REMARK    3  A    between atoms: C_7  and  C_8
REMARK    4  A    between atoms: C_9  and  S_10
REMARK    5  A    between atoms: S_10  and  C_11
REMARK    6  A    between atoms: C_14  and  C_15
REMARK                            x       y       z     vdW  Elec       q    Type
REMARK                         _______ _______ _______ _____ _____    ______ ____
ROOT
ATOM      1  C   UNL     1      45.183   6.164  11.013  0.00  0.00    +0.000 C 
ATOM      2  C   UNL     1      46.121   6.318  11.969  0.00  0.00    +0.000 C 
ENDROOT
BRANCH   1   7
ATOM      3  C   UNL     1      45.304   3.446   8.391  0.00  0.00    +0.000 A 
ATOM      4  C   UNL     1      44.586   2.456   9.064  0.00  0.00    +0.000 A 
ATOM      5  C   UNL     1      44.099   2.750  10.327  0.00  0.00    +0.000 A 
ATOM      6  N   UNL     1      44.273   3.934  10.953  0.00  0.00    +0.000 NA
ATOM      7  C   UNL     1      44.976   4.892  10.302  0.00  0.00    +0.000 A 
ATOM      8  C   UNL     1      45.485   4.686   9.023  0.00  0.00    +0.000 A 
BRANCH   3   9
ATOM      9  C   UNL     1      45.918   3.203   7.039  0.00  0.00    +0.000 C 
BRANCH   9  10
ATOM     10  N   UNL     1      46.961   4.187   6.777  0.00  0.00    +0.000 NA
ATOM     11  H   UNL     1      46.708   4.751   5.971  0.00  0.00    +0.000 HD
ATOM     12  H   UNL     1      47.825   3.701   6.538  0.00  0.00    +0.000 HD
ENDBRANCH   9  10
ENDBRANCH   3   9
ENDBRANCH   1   7
BRANCH   2  13
ATOM     13  S   UNL     1      46.316   7.792  12.853  0.00  0.00    +0.000 S 
BRANCH  13  14
ATOM     14  C   UNL     1      47.889   8.430  12.264  0.00  0.00    +0.000 A 
ATOM     15  C   UNL     1      48.178   9.780  12.041  0.00  0.00    +0.000 A 
ATOM     16  C   UNL     1      49.442  10.180  11.580  0.00  0.00    +0.000 A 
ATOM     17  C   UNL     1      50.444   9.237  11.322  0.00  0.00    +0.000 A 
ATOM     18  C   UNL     1      50.165   7.884  11.524  0.00  0.00    +0.000 A 
ATOM     19  C   UNL     1      48.897   7.489  11.987  0.00  0.00    +0.000 A 
BRANCH  17  20
ATOM     20  C   UNL     1      51.745   9.737  10.793  0.00  0.00    +0.000 C 
ATOM     21  N   UNL     1      52.192  10.956  11.230  0.00  0.00    +0.000 N 
ATOM     22  O   UNL     1      52.390   9.098   9.978  0.00  0.00    +0.000 OA
ATOM     23  H   UNL     1      51.694  11.563  11.861  0.00  0.00    +0.000 HD
ATOM     24  H   UNL     1      53.067  11.284  10.836  0.00  0.00    +0.000 HD
ENDBRANCH  17  20
ENDBRANCH  13  14
ENDBRANCH   2  13
TORSDOF 6
ENDMDL
MODEL 8
REMARK VINA RESULT:    -5.632      3.637      4.918
REMARK INTER + INTRA:          -7.891
REMARK INTER:                  -7.556
REMARK INTRA:                  -0.335
REMARK UNBOUND:                -0.448
REMARK  Name = 
REMARK  6 active torsions:
REMARK  status: ('A' for Active; 'I' for Inactive)
REMARK    1  A    between atoms: N_1  and  C_2
REMARK    2  A    between atoms: C_2  and  C_3
REMARK    3  A    between atoms: C_7  and  C_8
REMARK    4  A    between atoms: C_9  and  S_10
REMARK    5  A    between atoms: S_10  and  C_11
REMARK    6  A    between atoms: C_14  and  C_15
REMARK                            x       y       z     vdW  Elec       q    Type
REMARK                         _______ _______ _______ _____ _____    ______ ____
ROOT
ATOM      1  C   UNL     1      48.893   6.921  16.034  0.00  0.00    +0.000 C 
ATOM      2  C   UNL     1      48.567   6.418  14.826  0.00  0.00    +0.000 C 
ENDROOT
BRANCH   1   7
ATOM      3  C   UNL     1      49.749   5.184  19.278  0.00  0.00    +0.000 A 
ATOM      4  C   UNL     1      50.955   4.591  18.901  0.00  0.00    +0.000 A 
ATOM      5  C   UNL     1      51.413   4.810  17.612  0.00  0.00    +0.000 A 
ATOM      6  N   UNL     1      50.769   5.561  16.694  0.00  0.00    +0.000 NA
ATOM      7  C   UNL     1      49.595   6.131  17.059  0.00  0.00    +0.000 A 
ATOM      8  C   UNL     1      49.072   5.978  18.338  0.00  0.00    +0.000 A 
BRANCH   3   9
ATOM      9  C   UNL     1      49.144   4.961  20.638  0.00  0.00    +0.000 C 
BRANCH   9  10
ATOM     10  N   UNL     1      48.314   3.761  20.627  0.00  0.00    +0.000 NA
ATOM     11  H   UNL     1      48.581   3.151  21.394  0.00  0.00    +0.000 HD
ATOM     12  H   UNL     1      48.487   3.246  19.765  0.00  0.00    +0.000 HD
ENDBRANCH   9  10
ENDBRANCH   3   9
ENDBRANCH   1   7
BRANCH   2  13
ATOM     13  S   UNL     1      47.804   7.367  13.597  0.00  0.00    +0.000 S 
BRANCH  13  14
ATOM     14  C   UNL     1      46.732   6.191  12.762  0.00  0.00    +0.000 A 
ATOM     15  C   UNL     1      46.120   6.397  11.523  0.00  0.00    +0.000 A 
ATOM     16  C   UNL     1      45.299   5.413  10.951  0.00  0.00    +0.000 A 
ATOM     17  C   UNL     1      45.064   4.201  11.611  0.00  0.00    +0.000 A 
ATOM     18  C   UNL     1      45.655   3.986  12.858  0.00  0.00    +0.000 A 
ATOM     19  C   UNL     1      46.478   4.976  13.425  0.00  0.00    +0.000 A 
BRANCH  17  20
ATOM     20  C   UNL     1      44.145   3.225  10.959  0.00  0.00    +0.000 C 
ATOM     21  N   UNL     1      44.686   2.308  10.097  0.00  0.00    +0.000 N 
ATOM     22  O   UNL     1      42.943   3.246  11.164  0.00  0.00    +0.000 OA
ATOM     23  H   UNL     1      45.659   2.260   9.840  0.00  0.00    +0.000 HD
ATOM     24  H   UNL     1      44.037   1.672   9.648  0.00  0.00    +0.000 HD
ENDBRANCH  17  20
ENDBRANCH  13  14
ENDBRANCH   2  13
TORSDOF 6
ENDMDL
MODEL 9
REMARK VINA RESULT:    -5.628      4.485      9.037
REMARK INTER + INTRA:          -7.885
REMARK INTER:                  -7.553
REMARK INTRA:                  -0.331
REMARK UNBOUND:                -0.448
REMARK  Name = 
REMARK  6 active torsions:
REMARK  status: ('A' for Active; 'I' for Inactive)
REMARK    1  A    between atoms: N_1  and  C_2
REMARK    2  A    between atoms: C_2  and  C_3
REMARK    3  A    between atoms: C_7  and  C_8
REMARK    4  A    between atoms: C_9  and  S_10
REMARK    5  A    between atoms: S_10  and  C_11
REMARK    6  A    between atoms: C_14  and  C_15
REMARK                            x       y       z     vdW  Elec       q    Type
REMARK                         _______ _______ _______ _____ _____    ______ ____
ROOT
ATOM      1  C   UNL     1      46.357   6.715  12.952  0.00  0.00    +0.000 C 
ATOM      2  C   UNL     1      47.352   6.112  13.634  0.00  0.00    +0.000 C 
ENDROOT
BRANCH   1   7
ATOM      3  C   UNL     1      44.271   4.745  10.495  0.00  0.00    +0.000 A 
ATOM      4  C   UNL     1      43.142   4.528  11.286  0.00  0.00    +0.000 A 
ATOM      5  C   UNL     1      43.134   5.054  12.568  0.00  0.00    +0.000 A 
ATOM      6  N   UNL     1      44.150   5.763  13.105  0.00  0.00    +0.000 NA
ATOM      7  C   UNL     1      45.249   5.967  12.338  0.00  0.00    +0.000 A 
ATOM      8  C   UNL     1      45.332   5.490  11.035  0.00  0.00    +0.000 A 
BRANCH   3   9
ATOM      9  C   UNL     1      44.395   4.167   9.111  0.00  0.00    +0.000 C 
BRANCH   9  10
ATOM     10  N   UNL     1      45.474   4.828   8.386  0.00  0.00    +0.000 NA
ATOM     11  H   UNL     1      45.617   4.372   7.490  0.00  0.00    +0.000 HD
ATOM     12  H   UNL     1      46.340   4.725   8.912  0.00  0.00    +0.000 HD
ENDBRANCH   9  10
ENDBRANCH   3   9
ENDBRANCH   1   7
BRANCH   2  13
ATOM     13  S   UNL     1      48.617   6.997  14.415  0.00  0.00    +0.000 S 
BRANCH  13  14
ATOM     14  C   UNL     1      48.713   6.244  16.044  0.00  0.00    +0.000 A 
ATOM     15  C   UNL     1      48.138   5.020  16.401  0.00  0.00    +0.000 A 
ATOM     16  C   UNL     1      48.272   4.513  17.703  0.00  0.00    +0.000 A 
ATOM     17  C   UNL     1      48.976   5.224  18.682  0.00  0.00    +0.000 A 
ATOM     18  C   UNL     1      49.542   6.455  18.345  0.00  0.00    +0.000 A 
ATOM     19  C   UNL     1      49.406   6.957  17.038  0.00  0.00    +0.000 A 
BRANCH  17  20
ATOM     20  C   UNL     1      49.036   4.640  20.052  0.00  0.00    +0.000 C 
ATOM     21  N   UNL     1      48.426   3.432  20.264  0.00  0.00    +0.000 N 
ATOM     22  O   UNL     1      49.589   5.223  20.970  0.00  0.00    +0.000 OA
ATOM     23  H   UNL     1      47.909   2.915  19.571  0.00  0.00    +0.000 HD
ATOM     24  H   UNL     1      48.460   3.069  21.210  0.00  0.00    +0.000 HD
ENDBRANCH  17  20
ENDBRANCH  13  14
ENDBRANCH   2  13
TORSDOF 6
ENDMDL
