MODEL 1
REMARK VINA RESULT:    -8.809      0.000      0.000
REMARK INTER + INTRA:         -13.968
REMARK INTER:                 -12.929
REMARK INTRA:                  -1.039
REMARK UNBOUND:                -1.039
REMARK  Name = 
REMARK  8 active torsions:
REMARK  status: ('A' for Active; 'I' for Inactive)
REMARK    1  A    between atoms: C_2  and  C_3
REMARK    2  A    between atoms: C_3  and  N_4
REMARK    3  A    between atoms: C_3  and  C_12
REMARK    4  A    between atoms: N_4  and  C_5
REMARK    5  A    between atoms: C_5  and  C_6
REMARK    6  A    between atoms: C_15  and  C_16
REMARK    7  A    between atoms: C_16  and  N_17
REMARK    8  A    between atoms: C_18  and  C_20
REMARK                            x       y       z     vdW  Elec       q    Type
REMARK                         _______ _______ _______ _____ _____    ______ ____
ROOT
ATOM      1  C   UNL     1      44.585   5.449  11.004  0.00  0.00    +0.000 A 
ATOM      2  C   UNL     1      45.868   5.793  10.535  0.00  0.00    +0.000 A 
ATOM      3  C   UNL     1      46.674   6.706  11.229  0.00  0.00    +0.000 A 
ATOM      4  C   UNL     1      46.218   7.302  12.411  0.00  0.00    +0.000 A 
ATOM      5  C   UNL     1      44.925   7.008  12.853  0.00  0.00    +0.000 A 
ATOM      6  C   UNL     1      44.128   6.085  12.171  0.00  0.00    +0.000 A 
ENDROOT
BRANCH   1   7
ATOM      7  C   UNL     1      43.746   4.404  10.251  0.00  0.00    +0.000 C 
BRANCH   7   9
ATOM      8  N   UNL     1      43.104   2.318  11.766  0.00  0.00    +0.000 NA
ATOM      9  C   UNL     1      43.379   3.230  11.102  0.00  0.00    +0.000 C 
ENDBRANCH   7   9
BRANCH   7  10
ATOM     10  N   UNL     1      44.445   4.017   9.000  0.00  0.00    +0.000 NA
ATOM     11  H   UNL     1      43.774   4.012   8.235  0.00  0.00    +0.000 HD
BRANCH  10  12
ATOM     12  C   UNL     1      45.057   2.689   9.075  0.00  0.00    +0.000 C 
BRANCH  12  13
ATOM     13  C   UNL     1      45.998   2.431   7.918  0.00  0.00    +0.000 A 
ATOM     14  C   UNL     1      46.638   1.188   7.788  0.00  0.00    +0.000 A 
ATOM     15  C   UNL     1      47.405   0.895   6.659  0.00  0.00    +0.000 A 
ATOM     16  C   UNL     1      47.545   1.842   5.647  0.00  0.00    +0.000 A 
ATOM     17  C   UNL     1      46.936   3.089   5.774  0.00  0.00    +0.000 A 
ATOM     18  C   UNL     1      46.168   3.384   6.903  0.00  0.00    +0.000 A 
ENDBRANCH  12  13
ENDBRANCH  10  12
ENDBRANCH   7  10
ENDBRANCH   1   7
BRANCH   4  19
ATOM     19  C   UNL     1      47.071   8.267  13.192  0.00  0.00    +0.000 C 
BRANCH  19  20
ATOM     20  N   UNL     1      47.465   7.691  14.450  0.00  0.00    +0.000 N 
ATOM     21  C   UNL     1      48.498   6.796  14.544  0.00  0.00    +0.000 C 
ATOM     22  O   UNL     1      49.177   6.467  13.573  0.00  0.00    +0.000 OA
ATOM     23  H   UNL     1      46.765   7.701  15.185  0.00  0.00    +0.000 HD
BRANCH  21  24
ATOM     24  C   UNL     1      48.799   6.313  15.896  0.00  0.00    +0.000 A 
ATOM     25  C   UNL     1      49.637   7.043  16.728  0.00  0.00    +0.000 A 
ATOM     26  S   UNL     1      49.789   6.376  18.291  0.00  0.00    +0.000 S 
ATOM     27  C   UNL     1      48.791   5.059  17.890  0.00  0.00    +0.000 A 
ATOM     28  N   UNL     1      48.514   4.083  18.792  0.00  0.00    +0.000 NA
ATOM     29  C   UNL     1      47.766   3.127  18.344  0.00  0.00    +0.000 A 
ATOM     30  N   UNL     1      47.269   3.066  17.068  0.00  0.00    +0.000 N 
ATOM     31  C   UNL     1      47.499   4.041  16.130  0.00  0.00    +0.000 A 
ATOM     32  O   UNL     1      47.013   3.964  15.006  0.00  0.00    +0.000 OA
ATOM     33  C   UNL     1      48.341   5.130  16.584  0.00  0.00    +0.000 A 
ATOM     34  H   UNL     1      46.685   2.295  16.780  0.00  0.00    +0.000 HD
ENDBRANCH  21  24
ENDBRANCH  19  20
ENDBRANCH   4  19
TORSDOF 8
ENDMDL
MODEL 2
REMARK VINA RESULT:    -8.399      1.444      1.948
REMARK INTER + INTRA:         -13.366
REMARK INTER:                 -12.307
REMARK INTRA:                  -1.060
REMARK UNBOUND:                -1.039
REMARK  Name = 
REMARK  8 active torsions:
REMARK  status: ('A' for Active; 'I' for Inactive)
REMARK    1  A    between atoms: C_2  and  C_3
REMARK    2  A    between atoms: C_3  and  N_4
REMARK    3  A    between atoms: C_3  and  C_12
REMARK    4  A    between atoms: N_4  and  C_5
REMARK    5  A    between atoms: C_5  and  C_6
REMARK    6  A    between atoms: C_15  and  C_16
REMARK    7  A    between atoms: C_16  and  N_17
REMARK    8  A    between atoms: C_18  and  C_20
REMARK                            x       y       z     vdW  Elec       q    Type
REMARK                         _______ _______ _______ _____ _____    ______ ____
ROOT
ATOM      1  C   UNL     1      45.066   4.919  11.630  0.00  0.00    +0.000 A 
ATOM      2  C   UNL     1      45.713   4.429  12.782  0.00  0.00    +0.000 A 
ATOM      3  C   UNL     1      46.761   5.140  13.385  0.00  0.00    +0.000 A 
ATOM      4  C   UNL     1      47.192   6.360  12.850  0.00  0.00    +0.000 A 
ATOM      5  C   UNL     1      46.592   6.826  11.677  0.00  0.00    +0.000 A 
ATOM      6  C   UNL     1      45.537   6.127  11.086  0.00  0.00    +0.000 A 
ENDROOT
BRANCH   1   7
ATOM      7  C   UNL     1      43.886   4.145  11.023  0.00  0.00    +0.000 C 
BRANCH   7   9
ATOM      8  N   UNL     1      43.190   2.017  12.453  0.00  0.00    +0.000 NA
ATOM      9  C   UNL     1      43.498   2.949  11.833  0.00  0.00    +0.000 C 
ENDBRANCH   7   9
BRANCH   7  10
ATOM     10  N   UNL     1      44.186   3.815   9.608  0.00  0.00    +0.000 NA
ATOM     11  H   UNL     1      43.325   3.860   9.068  0.00  0.00    +0.000 HD
BRANCH  10  12
ATOM     12  C   UNL     1      44.757   2.477   9.442  0.00  0.00    +0.000 C 
BRANCH  12  13
ATOM     13  C   UNL     1      45.690   2.399   8.253  0.00  0.00    +0.000 A 
ATOM     14  C   UNL     1      45.868   3.513   7.418  0.00  0.00    +0.000 A 
ATOM     15  C   UNL     1      46.820   3.495   6.397  0.00  0.00    +0.000 A 
ATOM     16  C   UNL     1      47.603   2.361   6.195  0.00  0.00    +0.000 A 
ATOM     17  C   UNL     1      47.420   1.238   7.000  0.00  0.00    +0.000 A 
ATOM     18  C   UNL     1      46.467   1.255   8.022  0.00  0.00    +0.000 A 
ENDBRANCH  12  13
ENDBRANCH  10  12
ENDBRANCH   7  10
ENDBRANCH   1   7
BRANCH   4  19
ATOM     19  C   UNL     1      48.297   7.158  13.489  0.00  0.00    +0.000 C 
BRANCH  19  20
ATOM     20  N   UNL     1      48.172   7.140  14.923  0.00  0.00    +0.000 N 
ATOM     21  C   UNL     1      49.245   6.892  15.739  0.00  0.00    +0.000 C 
ATOM     22  O   UNL     1      50.380   6.719  15.303  0.00  0.00    +0.000 OA
ATOM     23  H   UNL     1      47.239   6.981  15.288  0.00  0.00    +0.000 HD
BRANCH  21  24
ATOM     24  C   UNL     1      48.968   6.930  17.179  0.00  0.00    +0.000 A 
ATOM     25  C   UNL     1      48.661   8.133  17.801  0.00  0.00    +0.000 A 
ATOM     26  S   UNL     1      48.274   7.963  19.454  0.00  0.00    +0.000 S 
ATOM     27  C   UNL     1      48.563   6.287  19.409  0.00  0.00    +0.000 A 
ATOM     28  N   UNL     1      48.424   5.517  20.519  0.00  0.00    +0.000 NA
ATOM     29  C   UNL     1      48.704   4.266  20.348  0.00  0.00    +0.000 A 
ATOM     30  N   UNL     1      49.107   3.717  19.158  0.00  0.00    +0.000 N 
ATOM     31  C   UNL     1      49.235   4.450  18.005  0.00  0.00    +0.000 A 
ATOM     32  O   UNL     1      49.572   3.917  16.952  0.00  0.00    +0.000 OA
ATOM     33  C   UNL     1      48.941   5.861  18.149  0.00  0.00    +0.000 A 
ATOM     34  H   UNL     1      49.305   2.730  19.088  0.00  0.00    +0.000 HD
ENDBRANCH  21  24
ENDBRANCH  19  20
ENDBRANCH   4  19
TORSDOF 8
ENDMDL
MODEL 3
REMARK VINA RESULT:    -8.081      2.103      2.641
REMARK INTER + INTRA:         -12.900
REMARK INTER:                 -11.849
REMARK INTRA:                  -1.051
REMARK UNBOUND:                -1.039
REMARK  Name = 
REMARK  8 active torsions:
REMARK  status: ('A' for Active; 'I' for Inactive)
REMARK    1  A    between atoms: C_2  and  C_3
REMARK    2  A    between atoms: C_3  and  N_4
REMARK    3  A    between atoms: C_3  and  C_12
REMARK    4  A    between atoms: N_4  and  C_5
REMARK    5  A    between atoms: C_5  and  C_6
REMARK    6  A    between atoms: C_15  and  C_16
REMARK    7  A    between atoms: C_16  and  N_17
REMARK    8  A    between atoms: C_18  and  C_20
REMARK                            x       y       z     vdW  Elec       q    Type
REMARK                         _______ _______ _______ _____ _____    ______ ____
ROOT
ATOM      1  C   UNL     1      45.331   5.673  11.583  0.00  0.00    +0.000 A 
ATOM      2  C   UNL     1      45.575   7.061  11.597  0.00  0.00    +0.000 A 
ATOM      3  C   UNL     1      46.536   7.621  12.452  0.00  0.00    +0.000 A 
ATOM      4  C   UNL     1      47.276   6.808  13.319  0.00  0.00    +0.000 A 
ATOM      5  C   UNL     1      47.001   5.438  13.350  0.00  0.00    +0.000 A 
ATOM      6  C   UNL     1      46.057   4.877  12.487  0.00  0.00    +0.000 A 
ENDROOT
BRANCH   1   7
ATOM      7  C   UNL     1      44.312   5.082  10.597  0.00  0.00    +0.000 C 
BRANCH   7   9
ATOM      8  N   UNL     1      43.195   2.836  11.474  0.00  0.00    +0.000 NA
ATOM      9  C   UNL     1      43.687   3.817  11.095  0.00  0.00    +0.000 C 
ENDBRANCH   7   9
BRANCH   7  10
ATOM     10  N   UNL     1      44.946   4.928   9.264  0.00  0.00    +0.000 NA
ATOM     11  H   UNL     1      44.744   5.755   8.705  0.00  0.00    +0.000 HD
BRANCH  10  12
ATOM     12  C   UNL     1      44.462   3.756   8.532  0.00  0.00    +0.000 C 
BRANCH  12  13
ATOM     13  C   UNL     1      45.595   2.947   7.941  0.00  0.00    +0.000 A 
ATOM     14  C   UNL     1      45.851   1.645   8.398  0.00  0.00    +0.000 A 
ATOM     15  C   UNL     1      46.809   0.843   7.774  0.00  0.00    +0.000 A 
ATOM     16  C   UNL     1      47.527   1.336   6.687  0.00  0.00    +0.000 A 
ATOM     17  C   UNL     1      47.302   2.636   6.237  0.00  0.00    +0.000 A 
ATOM     18  C   UNL     1      46.343   3.439   6.861  0.00  0.00    +0.000 A 
ENDBRANCH  12  13
ENDBRANCH  10  12
ENDBRANCH   7  10
ENDBRANCH   1   7
BRANCH   4  19
ATOM     19  C   UNL     1      48.331   7.377  14.231  0.00  0.00    +0.000 C 
BRANCH  19  20
ATOM     20  N   UNL     1      48.148   6.902  15.576  0.00  0.00    +0.000 N 
ATOM     21  C   UNL     1      49.190   6.410  16.317  0.00  0.00    +0.000 C 
ATOM     22  O   UNL     1      50.346   6.388  15.898  0.00  0.00    +0.000 OA
ATOM     23  H   UNL     1      47.204   6.632  15.831  0.00  0.00    +0.000 HD
BRANCH  21  24
ATOM     24  C   UNL     1      48.855   5.985  17.680  0.00  0.00    +0.000 A 
ATOM     25  C   UNL     1      49.047   4.665  18.068  0.00  0.00    +0.000 A 
ATOM     26  S   UNL     1      48.695   4.383  19.713  0.00  0.00    +0.000 S 
ATOM     27  C   UNL     1      48.216   5.998  19.948  0.00  0.00    +0.000 A 
ATOM     28  N   UNL     1      47.777   6.436  21.156  0.00  0.00    +0.000 NA
ATOM     29  C   UNL     1      47.418   7.679  21.184  0.00  0.00    +0.000 A 
ATOM     30  N   UNL     1      47.464   8.523  20.105  0.00  0.00    +0.000 N 
ATOM     31  C   UNL     1      47.925   8.133  18.872  0.00  0.00    +0.000 A 
ATOM     32  O   UNL     1      47.977   8.927  17.938  0.00  0.00    +0.000 OA
ATOM     33  C   UNL     1      48.331   6.745  18.789  0.00  0.00    +0.000 A 
ATOM     34  H   UNL     1      47.175   9.486  20.193  0.00  0.00    +0.000 HD
ENDBRANCH  21  24
ENDBRANCH  19  20
ENDBRANCH   4  19
TORSDOF 8
ENDMDL
MODEL 4
REMARK VINA RESULT:    -7.653      2.464      2.889
REMARK INTER + INTRA:         -12.271
REMARK INTER:                 -11.193
REMARK INTRA:                  -1.078
REMARK UNBOUND:                -1.039
REMARK  Name = 
REMARK  8 active torsions:
REMARK  status: ('A' for Active; 'I' for Inactive)
REMARK    1  A    between atoms: C_2  and  C_3
REMARK    2  A    between atoms: C_3  and  N_4
REMARK    3  A    between atoms: C_3  and  C_12
REMARK    4  A    between atoms: N_4  and  C_5
REMARK    5  A    between atoms: C_5  and  C_6
REMARK    6  A    between atoms: C_15  and  C_16
REMARK    7  A    between atoms: C_16  and  N_17
REMARK    8  A    between atoms: C_18  and  C_20
REMARK                            x       y       z     vdW  Elec       q    Type
REMARK                         _______ _______ _______ _____ _____    ______ ____
ROOT
ATOM      1  C   UNL     1      45.413   6.239  11.932  0.00  0.00    +0.000 A 
ATOM      2  C   UNL     1      45.008   7.583  12.054  0.00  0.00    +0.000 A 
ATOM      3  C   UNL     1      45.787   8.516  12.754  0.00  0.00    +0.000 A 
ATOM      4  C   UNL     1      46.991   8.129  13.354  0.00  0.00    +0.000 A 
ATOM      5  C   UNL     1      47.372   6.786  13.284  0.00  0.00    +0.000 A 
ATOM      6  C   UNL     1      46.606   5.860  12.572  0.00  0.00    +0.000 A 
ENDROOT
BRANCH   1   7
ATOM      7  C   UNL     1      44.567   5.252  11.113  0.00  0.00    +0.000 C 
BRANCH   7   9
ATOM      8  N   UNL     1      44.302   2.893  12.306  0.00  0.00    +0.000 NA
ATOM      9  C   UNL     1      44.412   3.924  11.782  0.00  0.00    +0.000 C 
ENDBRANCH   7   9
BRANCH   7  10
ATOM     10  N   UNL     1      45.121   5.148   9.739  0.00  0.00    +0.000 NA
ATOM     11  H   UNL     1      44.970   6.030   9.255  0.00  0.00    +0.000 HD
BRANCH  10  12
ATOM     12  C   UNL     1      44.497   4.083   8.951  0.00  0.00    +0.000 C 
BRANCH  12  13
ATOM     13  C   UNL     1      45.523   3.168   8.319  0.00  0.00    +0.000 A 
ATOM     14  C   UNL     1      45.555   1.804   8.647  0.00  0.00    +0.000 A 
ATOM     15  C   UNL     1      46.410   0.928   7.977  0.00  0.00    +0.000 A 
ATOM     16  C   UNL     1      47.248   1.405   6.972  0.00  0.00    +0.000 A 
ATOM     17  C   UNL     1      47.246   2.762   6.652  0.00  0.00    +0.000 A 
ATOM     18  C   UNL     1      46.390   3.640   7.322  0.00  0.00    +0.000 A 
ENDBRANCH  12  13
ENDBRANCH  10  12
ENDBRANCH   7  10
ENDBRANCH   1   7
BRANCH   4  19
ATOM     19  C   UNL     1      47.861   9.112  14.091  0.00  0.00    +0.000 C 
BRANCH  19  20
ATOM     20  N   UNL     1      47.620   9.041  15.507  0.00  0.00    +0.000 N 
ATOM     21  C   UNL     1      48.456   9.636  16.415  0.00  0.00    +0.000 C 
ATOM     22  O   UNL     1      49.432  10.303  16.075  0.00  0.00    +0.000 OA
ATOM     23  H   UNL     1      47.028   8.279  15.822  0.00  0.00    +0.000 HD
BRANCH  21  24
ATOM     24  C   UNL     1      48.068   9.498  17.822  0.00  0.00    +0.000 A 
ATOM     25  C   UNL     1      47.699  10.617  18.558  0.00  0.00    +0.000 A 
ATOM     26  S   UNL     1      47.187  10.246  20.143  0.00  0.00    +0.000 S 
ATOM     27  C   UNL     1      47.499   8.589  19.920  0.00  0.00    +0.000 A 
ATOM     28  N   UNL     1      47.284   7.690  20.914  0.00  0.00    +0.000 NA
ATOM     29  C   UNL     1      47.590   6.469  20.617  0.00  0.00    +0.000 A 
ATOM     30  N   UNL     1      48.092   6.070  19.405  0.00  0.00    +0.000 N 
ATOM     31  C   UNL     1      48.300   6.937  18.361  0.00  0.00    +0.000 A 
ATOM     32  O   UNL     1      48.725   6.536  17.282  0.00  0.00    +0.000 OA
ATOM     33  C   UNL     1      47.979   8.320  18.651  0.00  0.00    +0.000 A 
ATOM     34  H   UNL     1      48.306   5.099  19.232  0.00  0.00    +0.000 HD
ENDBRANCH  21  24
ENDBRANCH  19  20
ENDBRANCH   4  19
TORSDOF 8
ENDMDL
MODEL 5
REMARK VINA RESULT:    -7.507      3.372      4.728
REMARK INTER + INTRA:         -12.057
REMARK INTER:                 -10.950
REMARK INTRA:                  -1.107
REMARK UNBOUND:                -1.039
REMARK  Name = 
REMARK  8 active torsions:
REMARK  status: ('A' for Active; 'I' for Inactive)
REMARK    1  A    between atoms: C_2  and  C_3
REMARK    2  A    between atoms: C_3  and  N_4
REMARK    3  A    between atoms: C_3  and  C_12
REMARK    4  A    between atoms: N_4  and  C_5
REMARK    5  A    between atoms: C_5  and  C_6
REMARK    6  A    between atoms: C_15  and  C_16
REMARK    7  A    between atoms: C_16  and  N_17
REMARK    8  A    between atoms: C_18  and  C_20
REMARK                            x       y       z     vdW  Elec       q    Type
REMARK                         _______ _______ _______ _____ _____    ______ ____
ROOT
ATOM      1  C   UNL     1      45.613   5.537  11.688  0.00  0.00    +0.000 A 
ATOM      2  C   UNL     1      45.960   4.653  12.729  0.00  0.00    +0.000 A 
ATOM      3  C   UNL     1      46.894   5.017  13.711  0.00  0.00    +0.000 A 
ATOM      4  C   UNL     1      47.509   6.274  13.675  0.00  0.00    +0.000 A 
ATOM      5  C   UNL     1      47.211   7.135  12.615  0.00  0.00    +0.000 A 
ATOM      6  C   UNL     1      46.269   6.780  11.647  0.00  0.00    +0.000 A 
ENDROOT
BRANCH   1   7
ATOM      7  C   UNL     1      44.547   5.132  10.659  0.00  0.00    +0.000 C 
BRANCH   7   9
ATOM      8  N   UNL     1      43.253   2.914  11.342  0.00  0.00    +0.000 NA
ATOM      9  C   UNL     1      43.819   3.881  11.038  0.00  0.00    +0.000 C 
ENDBRANCH   7   9
BRANCH   7  10
ATOM     10  N   UNL     1      45.164   5.057   9.311  0.00  0.00    +0.000 NA
ATOM     11  H   UNL     1      44.994   5.932   8.821  0.00  0.00    +0.000 HD
BRANCH  10  12
ATOM     12  C   UNL     1      44.625   3.967   8.495  0.00  0.00    +0.000 C 
BRANCH  12  13
ATOM     13  C   UNL     1      45.717   3.081   7.937  0.00  0.00    +0.000 A 
ATOM     14  C   UNL     1      45.855   1.757   8.384  0.00  0.00    +0.000 A 
ATOM     15  C   UNL     1      46.774   0.893   7.785  0.00  0.00    +0.000 A 
ATOM     16  C   UNL     1      47.571   1.343   6.736  0.00  0.00    +0.000 A 
ATOM     17  C   UNL     1      47.464   2.662   6.298  0.00  0.00    +0.000 A 
ATOM     18  C   UNL     1      46.544   3.528   6.896  0.00  0.00    +0.000 A 
ENDBRANCH  12  13
ENDBRANCH  10  12
ENDBRANCH   7  10
ENDBRANCH   1   7
BRANCH   4  19
ATOM     19  C   UNL     1      48.496   6.703  14.728  0.00  0.00    +0.000 C 
BRANCH  19  20
ATOM     20  N   UNL     1      49.740   7.099  14.125  0.00  0.00    +0.000 N 
ATOM     21  C   UNL     1      50.187   8.394  14.171  0.00  0.00    +0.000 C 
ATOM     22  O   UNL     1      49.579   9.281  14.767  0.00  0.00    +0.000 OA
ATOM     23  H   UNL     1      50.099   6.490  13.397  0.00  0.00    +0.000 HD
BRANCH  21  24
ATOM     24  C   UNL     1      51.484   8.642  13.532  0.00  0.00    +0.000 A 
ATOM     25  C   UNL     1      52.514   9.234  14.251  0.00  0.00    +0.000 A 
ATOM     26  S   UNL     1      53.973   9.350  13.373  0.00  0.00    +0.000 S 
ATOM     27  C   UNL     1      53.261   8.671  11.986  0.00  0.00    +0.000 A 
ATOM     28  N   UNL     1      53.970   8.496  10.842  0.00  0.00    +0.000 NA
ATOM     29  C   UNL     1      53.296   7.996   9.857  0.00  0.00    +0.000 A 
ATOM     30  N   UNL     1      51.971   7.653   9.921  0.00  0.00    +0.000 N 
ATOM     31  C   UNL     1      51.220   7.786  11.063  0.00  0.00    +0.000 A 
ATOM     32  O   UNL     1      50.042   7.442  11.088  0.00  0.00    +0.000 OA
ATOM     33  C   UNL     1      51.930   8.352  12.191  0.00  0.00    +0.000 A 
ATOM     34  H   UNL     1      51.502   7.261   9.118  0.00  0.00    +0.000 HD
ENDBRANCH  21  24
ENDBRANCH  19  20
ENDBRANCH   4  19
TORSDOF 8
ENDMDL
MODEL 6
REMARK VINA RESULT:    -7.429      1.648      2.235
REMARK INTER + INTRA:         -11.942
REMARK INTER:                 -10.775
REMARK INTRA:                  -1.166
REMARK UNBOUND:                -1.039
REMARK  Name = 
REMARK  8 active torsions:
REMARK  status: ('A' for Active; 'I' for Inactive)
REMARK    1  A    between atoms: C_2  and  C_3
REMARK    2  A    between atoms: C_3  and  N_4
REMARK    3  A    between atoms: C_3  and  C_12
REMARK    4  A    between atoms: N_4  and  C_5
REMARK    5  A    between atoms: C_5  and  C_6
REMARK    6  A    between atoms: C_15  and  C_16
REMARK    7  A    between atoms: C_16  and  N_17
REMARK    8  A    between atoms: C_18  and  C_20
REMARK                            x       y       z     vdW  Elec       q    Type
REMARK                         _______ _______ _______ _____ _____    ______ ____
ROOT
ATOM      1  C   UNL     1      44.748   5.879  11.374  0.00  0.00    +0.000 A 
ATOM      2  C   UNL     1      44.360   7.016  12.110  0.00  0.00    +0.000 A 
ATOM      3  C   UNL     1      45.291   8.000  12.472  0.00  0.00    +0.000 A 
ATOM      4  C   UNL     1      46.638   7.872  12.111  0.00  0.00    +0.000 A 
ATOM      5  C   UNL     1      47.040   6.720  11.428  0.00  0.00    +0.000 A 
ATOM      6  C   UNL     1      46.110   5.748  11.053  0.00  0.00    +0.000 A 
ENDROOT
BRANCH   1   7
ATOM      7  C   UNL     1      43.696   4.844  10.945  0.00  0.00    +0.000 C 
BRANCH   7   9
ATOM      8  N   UNL     1      43.439   2.854  12.686  0.00  0.00    +0.000 NA
ATOM      9  C   UNL     1      43.554   3.720  11.921  0.00  0.00    +0.000 C 
ENDBRANCH   7   9
BRANCH   7  10
ATOM     10  N   UNL     1      43.992   4.381   9.566  0.00  0.00    +0.000 NA
ATOM     11  H   UNL     1      43.166   4.515   8.988  0.00  0.00    +0.000 HD
BRANCH  10  12
ATOM     12  C   UNL     1      44.363   2.966   9.507  0.00  0.00    +0.000 C 
BRANCH  12  13
ATOM     13  C   UNL     1      45.425   2.700   8.461  0.00  0.00    +0.000 A 
ATOM     14  C   UNL     1      45.934   3.752   7.684  0.00  0.00    +0.000 A 
ATOM     15  C   UNL     1      47.002   3.542   6.809  0.00  0.00    +0.000 A 
ATOM     16  C   UNL     1      47.570   2.275   6.696  0.00  0.00    +0.000 A 
ATOM     17  C   UNL     1      47.059   1.215   7.443  0.00  0.00    +0.000 A 
ATOM     18  C   UNL     1      45.991   1.424   8.319  0.00  0.00    +0.000 A 
ENDBRANCH  12  13
ENDBRANCH  10  12
ENDBRANCH   7  10
ENDBRANCH   1   7
BRANCH   4  19
ATOM     19  C   UNL     1      47.656   8.924  12.463  0.00  0.00    +0.000 C 
BRANCH  19  20
ATOM     20  N   UNL     1      48.740   8.348  13.213  0.00  0.00    +0.000 N 
ATOM     21  C   UNL     1      48.777   8.393  14.582  0.00  0.00    +0.000 C 
ATOM     22  O   UNL     1      47.869   8.882  15.251  0.00  0.00    +0.000 OA
ATOM     23  H   UNL     1      49.612   8.217  12.710  0.00  0.00    +0.000 HD
BRANCH  21  24
ATOM     24  C   UNL     1      49.934   7.744  15.207  0.00  0.00    +0.000 A 
ATOM     25  C   UNL     1      51.204   8.285  15.057  0.00  0.00    +0.000 A 
ATOM     26  S   UNL     1      52.405   7.450  15.936  0.00  0.00    +0.000 S 
ATOM     27  C   UNL     1      51.281   6.303  16.496  0.00  0.00    +0.000 A 
ATOM     28  N   UNL     1      51.659   5.279  17.303  0.00  0.00    +0.000 NA
ATOM     29  C   UNL     1      50.708   4.465  17.629  0.00  0.00    +0.000 A 
ATOM     30  N   UNL     1      49.406   4.592  17.218  0.00  0.00    +0.000 N 
ATOM     31  C   UNL     1      48.971   5.625  16.426  0.00  0.00    +0.000 A 
ATOM     32  O   UNL     1      47.791   5.719  16.102  0.00  0.00    +0.000 OA
ATOM     33  C   UNL     1      50.005   6.558  16.026  0.00  0.00    +0.000 A 
ATOM     34  H   UNL     1      48.707   3.926  17.513  0.00  0.00    +0.000 HD
ENDBRANCH  21  24
ENDBRANCH  19  20
ENDBRANCH   4  19
TORSDOF 8
ENDMDL
MODEL 7
REMARK VINA RESULT:    -7.320      3.711      5.020
REMARK INTER + INTRA:         -11.782
REMARK INTER:                 -10.715
REMARK INTRA:                  -1.067
REMARK UNBOUND:                -1.039
REMARK  Name = 
REMARK  8 active torsions:
REMARK  status: ('A' for Active; 'I' for Inactive)
REMARK    1  A    between atoms: C_2  and  C_3
REMARK    2  A    between atoms: C_3  and  N_4
REMARK    3  A    between atoms: C_3  and  C_12
REMARK    4  A    between atoms: N_4  and  C_5
REMARK    5  A    between atoms: C_5  and  C_6
REMARK    6  A    between atoms: C_15  and  C_16
REMARK    7  A    between atoms: C_16  and  N_17
REMARK    8  A    between atoms: C_18  and  C_20
REMARK                            x       y       z     vdW  Elec       q    Type
REMARK                         _______ _______ _______ _____ _____    ______ ____
ROOT
ATOM      1  C   UNL     1      44.306   5.777  11.510  0.00  0.00    +0.000 A 
ATOM      2  C   UNL     1      43.980   7.102  11.156  0.00  0.00    +0.000 A 
ATOM      3  C   UNL     1      44.725   8.187  11.640  0.00  0.00    +0.000 A 
ATOM      4  C   UNL     1      45.814   7.977  12.494  0.00  0.00    +0.000 A 
ATOM      5  C   UNL     1      46.110   6.671  12.893  0.00  0.00    +0.000 A 
ATOM      6  C   UNL     1      45.379   5.588  12.398  0.00  0.00    +0.000 A 
ENDROOT
BRANCH   1   7
ATOM      7  C   UNL     1      43.505   4.606  10.921  0.00  0.00    +0.000 C 
BRANCH   7   9
ATOM      8  N   UNL     1      43.461   2.481  12.516  0.00  0.00    +0.000 NA
ATOM      9  C   UNL     1      43.475   3.412  11.821  0.00  0.00    +0.000 C 
ENDBRANCH   7   9
BRANCH   7  10
ATOM     10  N   UNL     1      44.014   4.293   9.562  0.00  0.00    +0.000 NA
ATOM     11  H   UNL     1      43.300   4.536   8.878  0.00  0.00    +0.000 HD
BRANCH  10  12
ATOM     12  C   UNL     1      44.349   2.879   9.387  0.00  0.00    +0.000 C 
BRANCH  12  13
ATOM     13  C   UNL     1      45.514   2.683   8.441  0.00  0.00    +0.000 A 
ATOM     14  C   UNL     1      46.107   1.419   8.299  0.00  0.00    +0.000 A 
ATOM     15  C   UNL     1      47.095   1.198   7.338  0.00  0.00    +0.000 A 
ATOM     16  C   UNL     1      47.506   2.240   6.510  0.00  0.00    +0.000 A 
ATOM     17  C   UNL     1      46.944   3.507   6.656  0.00  0.00    +0.000 A 
ATOM     18  C   UNL     1      45.955   3.729   7.618  0.00  0.00    +0.000 A 
ENDBRANCH  12  13
ENDBRANCH  10  12
ENDBRANCH   7  10
ENDBRANCH   1   7
BRANCH   4  19
ATOM     19  C   UNL     1      46.648   9.120  13.010  0.00  0.00    +0.000 C 
BRANCH  19  20
ATOM     20  N   UNL     1      47.818   9.304  12.192  0.00  0.00    +0.000 N 
ATOM     21  C   UNL     1      48.811  10.183  12.537  0.00  0.00    +0.000 C 
ATOM     22  O   UNL     1      48.787  10.829  13.582  0.00  0.00    +0.000 OA
ATOM     23  H   UNL     1      47.730   9.031  11.219  0.00  0.00    +0.000 HD
BRANCH  21  24
ATOM     24  C   UNL     1      49.951  10.245  11.617  0.00  0.00    +0.000 A 
ATOM     25  C   UNL     1      50.371  11.466  11.105  0.00  0.00    +0.000 A 
ATOM     26  S   UNL     1      51.769  11.350  10.134  0.00  0.00    +0.000 S 
ATOM     27  C   UNL     1      51.825   9.660  10.314  0.00  0.00    +0.000 A 
ATOM     28  N   UNL     1      52.790   8.917   9.714  0.00  0.00    +0.000 NA
ATOM     29  C   UNL     1      52.695   7.642   9.912  0.00  0.00    +0.000 A 
ATOM     30  N   UNL     1      51.716   7.046  10.663  0.00  0.00    +0.000 N 
ATOM     31  C   UNL     1      50.736   7.756  11.310  0.00  0.00    +0.000 A 
ATOM     32  O   UNL     1      49.893   7.188  11.997  0.00  0.00    +0.000 OA
ATOM     33  C   UNL     1      50.796   9.190  11.111  0.00  0.00    +0.000 A 
ATOM     34  H   UNL     1      51.700   6.044  10.785  0.00  0.00    +0.000 HD
ENDBRANCH  21  24
ENDBRANCH  19  20
ENDBRANCH   4  19
TORSDOF 8
ENDMDL
MODEL 8
REMARK VINA RESULT:    -7.298      2.286      3.051
REMARK INTER + INTRA:         -11.751
REMARK INTER:                 -10.753
REMARK INTRA:                  -0.997
REMARK UNBOUND:                -1.039
REMARK  Name = 
REMARK  8 active torsions:
REMARK  status: ('A' for Active; 'I' for Inactive)
REMARK    1  A    between atoms: C_2  and  C_3
REMARK    2  A    between atoms: C_3  and  N_4
REMARK    3  A    between atoms: C_3  and  C_12
REMARK    4  A    between atoms: N_4  and  C_5
REMARK    5  A    between atoms: C_5  and  C_6
REMARK    6  A    between atoms: C_15  and  C_16
REMARK    7  A    between atoms: C_16  and  N_17
REMARK    8  A    between atoms: C_18  and  C_20
REMARK                            x       y       z     vdW  Elec       q    Type
REMARK                         _______ _______ _______ _____ _____    ______ ____
ROOT
ATOM      1  C   UNL     1      45.778   5.407  11.745  0.00  0.00    +0.000 A 
ATOM      2  C   UNL     1      46.052   4.946  13.048  0.00  0.00    +0.000 A 
ATOM      3  C   UNL     1      47.056   5.535  13.831  0.00  0.00    +0.000 A 
ATOM      4  C   UNL     1      47.815   6.599  13.331  0.00  0.00    +0.000 A 
ATOM      5  C   UNL     1      47.586   7.026  12.020  0.00  0.00    +0.000 A 
ATOM      6  C   UNL     1      46.575   6.452  11.245  0.00  0.00    +0.000 A 
ENDROOT
BRANCH   1   7
ATOM      7  C   UNL     1      44.636   4.779  10.932  0.00  0.00    +0.000 C 
BRANCH   7   9
ATOM      8  N   UNL     1      42.227   5.412  11.857  0.00  0.00    +0.000 NA
ATOM      9  C   UNL     1      43.282   5.138  11.457  0.00  0.00    +0.000 C 
ENDBRANCH   7   9
BRANCH   7  10
ATOM     10  N   UNL     1      44.848   3.313  10.832  0.00  0.00    +0.000 NA
ATOM     11  H   UNL     1      45.845   3.119  10.894  0.00  0.00    +0.000 HD
BRANCH  10  12
ATOM     12  C   UNL     1      44.353   2.748   9.575  0.00  0.00    +0.000 C 
BRANCH  12  13
ATOM     13  C   UNL     1      45.451   2.612   8.542  0.00  0.00    +0.000 A 
ATOM     14  C   UNL     1      46.101   1.381   8.357  0.00  0.00    +0.000 A 
ATOM     15  C   UNL     1      47.023   1.210   7.322  0.00  0.00    +0.000 A 
ATOM     16  C   UNL     1      47.310   2.268   6.463  0.00  0.00    +0.000 A 
ATOM     17  C   UNL     1      46.691   3.502   6.650  0.00  0.00    +0.000 A 
ATOM     18  C   UNL     1      45.768   3.676   7.685  0.00  0.00    +0.000 A 
ENDBRANCH  12  13
ENDBRANCH  10  12
ENDBRANCH   7  10
ENDBRANCH   1   7
BRANCH   4  19
ATOM     19  C   UNL     1      48.882   7.267  14.156  0.00  0.00    +0.000 C 
BRANCH  19  20
ATOM     20  N   UNL     1      49.087   6.558  15.391  0.00  0.00    +0.000 N 
ATOM     21  C   UNL     1      48.925   7.164  16.609  0.00  0.00    +0.000 C 
ATOM     22  O   UNL     1      48.552   8.330  16.722  0.00  0.00    +0.000 OA
ATOM     23  H   UNL     1      49.665   5.726  15.338  0.00  0.00    +0.000 HD
BRANCH  21  24
ATOM     24  C   UNL     1      49.146   6.307  17.779  0.00  0.00    +0.000 A 
ATOM     25  C   UNL     1      48.219   5.328  18.113  0.00  0.00    +0.000 A 
ATOM     26  S   UNL     1      48.695   4.370  19.442  0.00  0.00    +0.000 S 
ATOM     27  C   UNL     1      50.123   5.268  19.654  0.00  0.00    +0.000 A 
ATOM     28  N   UNL     1      51.000   4.976  20.648  0.00  0.00    +0.000 NA
ATOM     29  C   UNL     1      52.029   5.757  20.711  0.00  0.00    +0.000 A 
ATOM     30  N   UNL     1      52.257   6.807  19.859  0.00  0.00    +0.000 N 
ATOM     31  C   UNL     1      51.414   7.124  18.824  0.00  0.00    +0.000 A 
ATOM     32  O   UNL     1      51.667   8.055  18.065  0.00  0.00    +0.000 OA
ATOM     33  C   UNL     1      50.241   6.281  18.719  0.00  0.00    +0.000 A 
ATOM     34  H   UNL     1      53.084   7.378  19.957  0.00  0.00    +0.000 HD
ENDBRANCH  21  24
ENDBRANCH  19  20
ENDBRANCH   4  19
TORSDOF 8
ENDMDL
MODEL 9
REMARK VINA RESULT:    -7.253      3.613      9.081
REMARK INTER + INTRA:         -11.685
REMARK INTER:                  -9.486
REMARK INTRA:                  -2.199
REMARK UNBOUND:                -1.039
REMARK  Name = 
REMARK  8 active torsions:
REMARK  status: ('A' for Active; 'I' for Inactive)
REMARK    1  A    between atoms: C_2  and  C_3
REMARK    2  A    between atoms: C_3  and  N_4
REMARK    3  A    between atoms: C_3  and  C_12
REMARK    4  A    between atoms: N_4  and  C_5
REMARK    5  A    between atoms: C_5  and  C_6
REMARK    6  A    between atoms: C_15  and  C_16
REMARK    7  A    between atoms: C_16  and  N_17
REMARK    8  A    between atoms: C_18  and  C_20
REMARK                            x       y       z     vdW  Elec       q    Type
REMARK                         _______ _______ _______ _____ _____    ______ ____
ROOT
ATOM      1  C   UNL     1      50.093   5.002  17.160  0.00  0.00    +0.000 A 
ATOM      2  C   UNL     1      48.735   4.897  16.797  0.00  0.00    +0.000 A 
ATOM      3  C   UNL     1      48.138   5.833  15.940  0.00  0.00    +0.000 A 
ATOM      4  C   UNL     1      48.882   6.901  15.425  0.00  0.00    +0.000 A 
ATOM      5  C   UNL     1      50.214   7.043  15.824  0.00  0.00    +0.000 A 
ATOM      6  C   UNL     1      50.814   6.101  16.663  0.00  0.00    +0.000 A 
ENDROOT
BRANCH   1   7
ATOM      7  C   UNL     1      50.733   3.931  18.056  0.00  0.00    +0.000 C 
BRANCH   7   9
ATOM      8  N   UNL     1      50.744   1.515  16.950  0.00  0.00    +0.000 NA
ATOM      9  C   UNL     1      50.737   2.573  17.429  0.00  0.00    +0.000 C 
ENDBRANCH   7   9
BRANCH   7  10
ATOM     10  N   UNL     1      50.084   3.950  19.391  0.00  0.00    +0.000 NA
ATOM     11  H   UNL     1      49.077   4.034  19.267  0.00  0.00    +0.000 HD
BRANCH  10  12
ATOM     12  C   UNL     1      50.533   5.064  20.229  0.00  0.00    +0.000 C 
BRANCH  12  13
ATOM     13  C   UNL     1      49.610   6.259  20.129  0.00  0.00    +0.000 A 
ATOM     14  C   UNL     1      50.132   7.539  19.884  0.00  0.00    +0.000 A 
ATOM     15  C   UNL     1      49.284   8.626  19.663  0.00  0.00    +0.000 A 
ATOM     16  C   UNL     1      47.902   8.447  19.687  0.00  0.00    +0.000 A 
ATOM     17  C   UNL     1      47.370   7.187  19.954  0.00  0.00    +0.000 A 
ATOM     18  C   UNL     1      48.218   6.098  20.176  0.00  0.00    +0.000 A 
ENDBRANCH  12  13
ENDBRANCH  10  12
ENDBRANCH   7  10
ENDBRANCH   1   7
BRANCH   4  19
ATOM     19  C   UNL     1      48.276   7.907  14.483  0.00  0.00    +0.000 C 
BRANCH  19  20
ATOM     20  N   UNL     1      47.049   7.404  13.924  0.00  0.00    +0.000 N 
ATOM     21  C   UNL     1      46.985   6.909  12.648  0.00  0.00    +0.000 C 
ATOM     22  O   UNL     1      47.975   6.820  11.924  0.00  0.00    +0.000 OA
ATOM     23  H   UNL     1      46.193   7.730  14.360  0.00  0.00    +0.000 HD
BRANCH  21  24
ATOM     24  C   UNL     1      45.672   6.410  12.226  0.00  0.00    +0.000 A 
ATOM     25  C   UNL     1      44.739   7.280  11.676  0.00  0.00    +0.000 A 
ATOM     26  S   UNL     1      43.312   6.502  11.156  0.00  0.00    +0.000 S 
ATOM     27  C   UNL     1      43.867   4.990  11.703  0.00  0.00    +0.000 A 
ATOM     28  N   UNL     1      43.109   3.871  11.574  0.00  0.00    +0.000 NA
ATOM     29  C   UNL     1      43.642   2.796  12.058  0.00  0.00    +0.000 A 
ATOM     30  N   UNL     1      44.873   2.745  12.659  0.00  0.00    +0.000 N 
ATOM     31  C   UNL     1      45.686   3.844  12.788  0.00  0.00    +0.000 A 
ATOM     32  O   UNL     1      46.794   3.752  13.307  0.00  0.00    +0.000 OA
ATOM     33  C   UNL     1      45.127   5.075  12.267  0.00  0.00    +0.000 A 
ATOM     34  H   UNL     1      45.237   1.873  13.013  0.00  0.00    +0.000 HD
ENDBRANCH  21  24
ENDBRANCH  19  20
ENDBRANCH   4  19
TORSDOF 8
ENDMDL
