MODEL 1
REMARK VINA RESULT:    -8.366      0.000      0.000
REMARK INTER + INTRA:         -11.702
REMARK INTER:                 -10.812
REMARK INTRA:                  -0.890
REMARK UNBOUND:                -0.890
REMARK  Name = 
REMARK  7 active torsions:
REMARK  status: ('A' for Active; 'I' for Inactive)
REMARK    1  A    between atoms: C_1  and  C_2
REMARK    2  A    between atoms: C_4  and  C_5
REMARK    3  A    between atoms: C_12  and  C_13
REMARK    4  A    between atoms: C_13  and  C_14
REMARK    5  A    between atoms: C_13  and  C_15
REMARK    6  A    between atoms: C_15  and  N_16
REMARK    7  A    between atoms: C_20  and  C_21
REMARK                            x       y       z     vdW  Elec       q    Type
REMARK                         _______ _______ _______ _____ _____    ______ ____
ROOT
ATOM      1  C   UNL     1      43.344   4.671  12.222  0.00  0.00    +0.000 C 
ATOM      2  C   UNL     1      42.417   5.873  11.982  0.00  0.00    +0.000 C 
ENDROOT
BRANCH   1   8
ATOM      3  C   UNL     1      47.408   4.031  15.162  0.00  0.00    +0.000 C 
ATOM      4  C   UNL     1      46.652   4.853  14.158  0.00  0.00    +0.000 A 
ATOM      5  C   UNL     1      47.165   6.082  13.710  0.00  0.00    +0.000 A 
ATOM      6  C   UNL     1      46.470   6.879  12.785  0.00  0.00    +0.000 A 
ATOM      7  C   UNL     1      45.231   6.391  12.324  0.00  0.00    +0.000 A 
ATOM      8  C   UNL     1      44.696   5.157  12.742  0.00  0.00    +0.000 A 
ATOM      9  C   UNL     1      45.424   4.394  13.661  0.00  0.00    +0.000 A 
BRANCH   6  10
ATOM     10  C   UNL     1      46.997   8.186  12.315  0.00  0.00    +0.000 A 
ATOM     11  C   UNL     1      46.182   9.335  12.296  0.00  0.00    +0.000 A 
ATOM     12  C   UNL     1      46.678  10.583  11.905  0.00  0.00    +0.000 A 
ATOM     13  C   UNL     1      48.001  10.709  11.499  0.00  0.00    +0.000 A 
ATOM     14  C   UNL     1      48.825   9.588  11.482  0.00  0.00    +0.000 A 
ATOM     15  C   UNL     1      48.328   8.343  11.889  0.00  0.00    +0.000 A 
ENDBRANCH   6  10
ENDBRANCH   1   8
BRANCH   1  16
ATOM     16  C   UNL     1      43.519   3.801  10.954  0.00  0.00    +0.000 C 
BRANCH  16  17
ATOM     17  N   UNL     1      44.152   4.545   9.854  0.00  0.00    +0.000 N 
ATOM     18  C   UNL     1      44.955   3.735   9.026  0.00  0.00    +0.000 A 
ATOM     19  C   UNL     1      45.646   4.334   7.974  0.00  0.00    +0.000 A 
ATOM     20  C   UNL     1      46.461   3.554   7.149  0.00  0.00    +0.000 A 
ATOM     21  C   UNL     1      46.569   2.184   7.382  0.00  0.00    +0.000 A 
ATOM     22  C   UNL     1      45.830   1.668   8.437  0.00  0.00    +0.000 A 
ATOM     23  N   UNL     1      45.037   2.408   9.245  0.00  0.00    +0.000 NA
ATOM     24  H   UNL     1      44.740   5.302  10.191  0.00  0.00    +0.000 HD
BRANCH  21  25
ATOM     25  C   UNL     1      47.451   1.360   6.524  0.00  0.00    +0.000 C 
ATOM     26  N   UNL     1      48.530   1.945   5.918  0.00  0.00    +0.000 N 
ATOM     27  O   UNL     1      47.223   0.169   6.342  0.00  0.00    +0.000 OA
ATOM     28  H   UNL     1      48.811   2.910   6.000  0.00  0.00    +0.000 HD
ATOM     29  H   UNL     1      49.101   1.345   5.336  0.00  0.00    +0.000 HD
ENDBRANCH  21  25
ENDBRANCH  16  17
ENDBRANCH   1  16
TORSDOF 5
ENDMDL
MODEL 2
REMARK VINA RESULT:    -8.223      1.546      4.096
REMARK INTER + INTRA:         -11.517
REMARK INTER:                 -10.527
REMARK INTRA:                  -0.990
REMARK UNBOUND:                -0.890
REMARK  Name = 
REMARK  7 active torsions:
REMARK  status: ('A' for Active; 'I' for Inactive)
REMARK    1  A    between atoms: C_1  and  C_2
REMARK    2  A    between atoms: C_4  and  C_5
REMARK    3  A    between atoms: C_12  and  C_13
REMARK    4  A    between atoms: C_13  and  C_14
REMARK    5  A    between atoms: C_13  and  C_15
REMARK    6  A    between atoms: C_15  and  N_16
REMARK    7  A    between atoms: C_20  and  C_21
REMARK                            x       y       z     vdW  Elec       q    Type
REMARK                         _______ _______ _______ _____ _____    ______ ____
ROOT
ATOM      1  C   UNL     1      43.793   4.557  12.346  0.00  0.00    +0.000 C 
ATOM      2  C   UNL     1      42.705   5.524  12.836  0.00  0.00    +0.000 C 
ENDROOT
BRANCH   1   8
ATOM      3  C   UNL     1      47.882   7.384  11.416  0.00  0.00    +0.000 C 
ATOM      4  C   UNL     1      47.140   6.435  12.312  0.00  0.00    +0.000 A 
ATOM      5  C   UNL     1      47.713   5.995  13.517  0.00  0.00    +0.000 A 
ATOM      6  C   UNL     1      47.049   5.093  14.365  0.00  0.00    +0.000 A 
ATOM      7  C   UNL     1      45.778   4.646  13.953  0.00  0.00    +0.000 A 
ATOM      8  C   UNL     1      45.170   5.076  12.758  0.00  0.00    +0.000 A 
ATOM      9  C   UNL     1      45.866   5.979  11.947  0.00  0.00    +0.000 A 
BRANCH   6  10
ATOM     10  C   UNL     1      47.651   4.613  15.636  0.00  0.00    +0.000 A 
ATOM     11  C   UNL     1      47.586   3.255  16.005  0.00  0.00    +0.000 A 
ATOM     12  C   UNL     1      48.192   2.779  17.172  0.00  0.00    +0.000 A 
ATOM     13  C   UNL     1      48.862   3.657  18.015  0.00  0.00    +0.000 A 
ATOM     14  C   UNL     1      48.923   5.009  17.691  0.00  0.00    +0.000 A 
ATOM     15  C   UNL     1      48.328   5.479  16.514  0.00  0.00    +0.000 A 
ENDBRANCH   6  10
ENDBRANCH   1   8
BRANCH   1  16
ATOM     16  C   UNL     1      43.726   4.321  10.818  0.00  0.00    +0.000 C 
BRANCH  16  17
ATOM     17  N   UNL     1      44.065   2.936  10.456  0.00  0.00    +0.000 N 
ATOM     18  C   UNL     1      44.929   2.848   9.345  0.00  0.00    +0.000 A 
ATOM     19  C   UNL     1      45.286   1.585   8.876  0.00  0.00    +0.000 A 
ATOM     20  C   UNL     1      46.128   1.473   7.766  0.00  0.00    +0.000 A 
ATOM     21  C   UNL     1      46.607   2.624   7.144  0.00  0.00    +0.000 A 
ATOM     22  C   UNL     1      46.218   3.839   7.689  0.00  0.00    +0.000 A 
ATOM     23  N   UNL     1      45.404   3.966   8.762  0.00  0.00    +0.000 NA
ATOM     24  H   UNL     1      43.241   2.384  10.238  0.00  0.00    +0.000 HD
BRANCH  21  25
ATOM     25  C   UNL     1      47.480   2.507   5.952  0.00  0.00    +0.000 C 
ATOM     26  N   UNL     1      48.835   2.623   6.104  0.00  0.00    +0.000 N 
ATOM     27  O   UNL     1      47.006   2.318   4.838  0.00  0.00    +0.000 OA
ATOM     28  H   UNL     1      49.329   2.775   6.969  0.00  0.00    +0.000 HD
ATOM     29  H   UNL     1      49.392   2.542   5.262  0.00  0.00    +0.000 HD
ENDBRANCH  21  25
ENDBRANCH  16  17
ENDBRANCH   1  16
TORSDOF 5
ENDMDL
MODEL 3
REMARK VINA RESULT:    -8.123      3.660      7.558
REMARK INTER + INTRA:         -11.387
REMARK INTER:                 -10.491
REMARK INTRA:                  -0.896
REMARK UNBOUND:                -0.890
REMARK  Name = 
REMARK  7 active torsions:
REMARK  status: ('A' for Active; 'I' for Inactive)
REMARK    1  A    between atoms: C_1  and  C_2
REMARK    2  A    between atoms: C_4  and  C_5
REMARK    3  A    between atoms: C_12  and  C_13
REMARK    4  A    between atoms: C_13  and  C_14
REMARK    5  A    between atoms: C_13  and  C_15
REMARK    6  A    between atoms: C_15  and  N_16
REMARK    7  A    between atoms: C_20  and  C_21
REMARK                            x       y       z     vdW  Elec       q    Type
REMARK                         _______ _______ _______ _____ _____    ______ ____
ROOT
ATOM      1  C   UNL     1      46.738   7.640  11.888  0.00  0.00    +0.000 C 
ATOM      2  C   UNL     1      46.113   8.400  13.068  0.00  0.00    +0.000 C 
ENDROOT
BRANCH   1   8
ATOM      3  C   UNL     1      42.100   5.626  11.843  0.00  0.00    +0.000 C 
ATOM      4  C   UNL     1      43.507   5.649  11.320  0.00  0.00    +0.000 A 
ATOM      5  C   UNL     1      43.923   4.722  10.349  0.00  0.00    +0.000 A 
ATOM      6  C   UNL     1      45.238   4.710   9.856  0.00  0.00    +0.000 A 
ATOM      7  C   UNL     1      46.126   5.671  10.379  0.00  0.00    +0.000 A 
ATOM      8  C   UNL     1      45.738   6.622  11.341  0.00  0.00    +0.000 A 
ATOM      9  C   UNL     1      44.417   6.600  11.802  0.00  0.00    +0.000 A 
BRANCH   6  10
ATOM     10  C   UNL     1      45.692   3.727   8.839  0.00  0.00    +0.000 A 
ATOM     11  C   UNL     1      46.273   4.149   7.627  0.00  0.00    +0.000 A 
ATOM     12  C   UNL     1      46.752   3.235   6.682  0.00  0.00    +0.000 A 
ATOM     13  C   UNL     1      46.641   1.870   6.916  0.00  0.00    +0.000 A 
ATOM     14  C   UNL     1      46.049   1.421   8.093  0.00  0.00    +0.000 A 
ATOM     15  C   UNL     1      45.585   2.339   9.043  0.00  0.00    +0.000 A 
ENDBRANCH   6  10
ENDBRANCH   1   8
BRANCH   1  16
ATOM     16  C   UNL     1      48.072   6.955  12.269  0.00  0.00    +0.000 C 
BRANCH  16  17
ATOM     17  N   UNL     1      48.539   7.356  13.605  0.00  0.00    +0.000 N 
ATOM     18  C   UNL     1      48.271   6.394  14.600  0.00  0.00    +0.000 A 
ATOM     19  C   UNL     1      48.625   6.679  15.917  0.00  0.00    +0.000 A 
ATOM     20  C   UNL     1      48.354   5.747  16.923  0.00  0.00    +0.000 A 
ATOM     21  C   UNL     1      47.738   4.539  16.597  0.00  0.00    +0.000 A 
ATOM     22  C   UNL     1      47.440   4.330  15.258  0.00  0.00    +0.000 A 
ATOM     23  N   UNL     1      47.695   5.221  14.273  0.00  0.00    +0.000 NA
ATOM     24  H   UNL     1      48.119   8.229  13.913  0.00  0.00    +0.000 HD
BRANCH  21  25
ATOM     25  C   UNL     1      47.428   3.561  17.665  0.00  0.00    +0.000 C 
ATOM     26  N   UNL     1      48.178   3.563  18.810  0.00  0.00    +0.000 N 
ATOM     27  O   UNL     1      46.521   2.747  17.532  0.00  0.00    +0.000 OA
ATOM     28  H   UNL     1      48.941   4.186  19.024  0.00  0.00    +0.000 HD
ATOM     29  H   UNL     1      47.934   2.872  19.510  0.00  0.00    +0.000 HD
ENDBRANCH  21  25
ENDBRANCH  16  17
ENDBRANCH   1  16
TORSDOF 5
ENDMDL
MODEL 4
REMARK VINA RESULT:    -8.101      1.690      2.617
REMARK INTER + INTRA:         -11.358
REMARK INTER:                 -10.380
REMARK INTRA:                  -0.978
REMARK UNBOUND:                -0.890
REMARK  Name = 
REMARK  7 active torsions:
REMARK  status: ('A' for Active; 'I' for Inactive)
REMARK    1  A    between atoms: C_1  and  C_2
REMARK    2  A    between atoms: C_4  and  C_5
REMARK    3  A    between atoms: C_12  and  C_13
REMARK    4  A    between atoms: C_13  and  C_14
REMARK    5  A    between atoms: C_13  and  C_15
REMARK    6  A    between atoms: C_15  and  N_16
REMARK    7  A    between atoms: C_20  and  C_21
REMARK                            x       y       z     vdW  Elec       q    Type
REMARK                         _______ _______ _______ _____ _____    ______ ____
ROOT
ATOM      1  C   UNL     1      44.071   4.777  12.201  0.00  0.00    +0.000 C 
ATOM      2  C   UNL     1      42.894   5.088  13.138  0.00  0.00    +0.000 C 
ENDROOT
BRANCH   1   8
ATOM      3  C   UNL     1      48.709   6.730  12.694  0.00  0.00    +0.000 C 
ATOM      4  C   UNL     1      47.251   6.916  12.387  0.00  0.00    +0.000 A 
ATOM      5  C   UNL     1      46.744   8.189  12.077  0.00  0.00    +0.000 A 
ATOM      6  C   UNL     1      45.381   8.395  11.803  0.00  0.00    +0.000 A 
ATOM      7  C   UNL     1      44.542   7.264  11.854  0.00  0.00    +0.000 A 
ATOM      8  C   UNL     1      45.020   5.973  12.148  0.00  0.00    +0.000 A 
ATOM      9  C   UNL     1      46.385   5.814  12.410  0.00  0.00    +0.000 A 
BRANCH   6  10
ATOM     10  C   UNL     1      44.832   9.738  11.486  0.00  0.00    +0.000 A 
ATOM     11  C   UNL     1      45.560  10.909  11.776  0.00  0.00    +0.000 A 
ATOM     12  C   UNL     1      45.079  12.178  11.438  0.00  0.00    +0.000 A 
ATOM     13  C   UNL     1      43.843  12.310  10.818  0.00  0.00    +0.000 A 
ATOM     14  C   UNL     1      43.088  11.174  10.540  0.00  0.00    +0.000 A 
ATOM     15  C   UNL     1      43.580   9.905  10.867  0.00  0.00    +0.000 A 
ENDBRANCH   6  10
ENDBRANCH   1   8
BRANCH   1  16
ATOM     16  C   UNL     1      43.603   4.378  10.781  0.00  0.00    +0.000 C 
BRANCH  16  17
ATOM     17  N   UNL     1      43.956   2.989  10.450  0.00  0.00    +0.000 N 
ATOM     18  C   UNL     1      44.850   2.887   9.364  0.00  0.00    +0.000 A 
ATOM     19  C   UNL     1      45.224   1.618   8.925  0.00  0.00    +0.000 A 
ATOM     20  C   UNL     1      46.096   1.491   7.840  0.00  0.00    +0.000 A 
ATOM     21  C   UNL     1      46.587   2.635   7.212  0.00  0.00    +0.000 A 
ATOM     22  C   UNL     1      46.179   3.857   7.728  0.00  0.00    +0.000 A 
ATOM     23  N   UNL     1      45.336   3.997   8.776  0.00  0.00    +0.000 NA
ATOM     24  H   UNL     1      43.140   2.430  10.219  0.00  0.00    +0.000 HD
BRANCH  21  25
ATOM     25  C   UNL     1      47.492   2.502   6.047  0.00  0.00    +0.000 C 
ATOM     26  N   UNL     1      48.846   2.537   6.245  0.00  0.00    +0.000 N 
ATOM     27  O   UNL     1      47.046   2.372   4.912  0.00  0.00    +0.000 OA
ATOM     28  H   UNL     1      49.318   2.637   7.130  0.00  0.00    +0.000 HD
ATOM     29  H   UNL     1      49.425   2.449   5.419  0.00  0.00    +0.000 HD
ENDBRANCH  21  25
ENDBRANCH  16  17
ENDBRANCH   1  16
TORSDOF 5
ENDMDL
MODEL 5
REMARK VINA RESULT:    -7.711      2.305      3.268
REMARK INTER + INTRA:         -10.855
REMARK INTER:                 -10.025
REMARK INTRA:                  -0.831
REMARK UNBOUND:                -0.890
REMARK  Name = 
REMARK  7 active torsions:
REMARK  status: ('A' for Active; 'I' for Inactive)
REMARK    1  A    between atoms: C_1  and  C_2
REMARK    2  A    between atoms: C_4  and  C_5
REMARK    3  A    between atoms: C_12  and  C_13
REMARK    4  A    between atoms: C_13  and  C_14
REMARK    5  A    between atoms: C_13  and  C_15
REMARK    6  A    between atoms: C_15  and  N_16
REMARK    7  A    between atoms: C_20  and  C_21
REMARK                            x       y       z     vdW  Elec       q    Type
REMARK                         _______ _______ _______ _____ _____    ______ ____
ROOT
ATOM      1  C   UNL     1      44.269   5.233  11.995  0.00  0.00    +0.000 C 
ATOM      2  C   UNL     1      43.046   5.064  12.909  0.00  0.00    +0.000 C 
ENDROOT
BRANCH   1   8
ATOM      3  C   UNL     1      47.462   8.714  13.799  0.00  0.00    +0.000 C 
ATOM      4  C   UNL     1      46.297   8.356  12.922  0.00  0.00    +0.000 A 
ATOM      5  C   UNL     1      45.636   9.344  12.174  0.00  0.00    +0.000 A 
ATOM      6  C   UNL     1      44.533   9.040  11.360  0.00  0.00    +0.000 A 
ATOM      7  C   UNL     1      44.115   7.694  11.327  0.00  0.00    +0.000 A 
ATOM      8  C   UNL     1      44.763   6.677  12.054  0.00  0.00    +0.000 A 
ATOM      9  C   UNL     1      45.860   7.025  12.848  0.00  0.00    +0.000 A 
BRANCH   6  10
ATOM     10  C   UNL     1      43.819  10.079  10.574  0.00  0.00    +0.000 A 
ATOM     11  C   UNL     1      42.423  10.023  10.391  0.00  0.00    +0.000 A 
ATOM     12  C   UNL     1      41.731  11.020   9.697  0.00  0.00    +0.000 A 
ATOM     13  C   UNL     1      42.422  12.093   9.148  0.00  0.00    +0.000 A 
ATOM     14  C   UNL     1      43.805  12.164   9.290  0.00  0.00    +0.000 A 
ATOM     15  C   UNL     1      44.492  11.171   9.998  0.00  0.00    +0.000 A 
ENDBRANCH   6  10
ENDBRANCH   1   8
BRANCH   1  16
ATOM     16  C   UNL     1      43.976   4.807  10.536  0.00  0.00    +0.000 C 
BRANCH  16  17
ATOM     17  N   UNL     1      44.172   3.364  10.330  0.00  0.00    +0.000 N 
ATOM     18  C   UNL     1      45.048   3.069   9.265  0.00  0.00    +0.000 A 
ATOM     19  C   UNL     1      45.279   1.733   8.941  0.00  0.00    +0.000 A 
ATOM     20  C   UNL     1      46.131   1.416   7.879  0.00  0.00    +0.000 A 
ATOM     21  C   UNL     1      46.746   2.439   7.159  0.00  0.00    +0.000 A 
ATOM     22  C   UNL     1      46.477   3.739   7.564  0.00  0.00    +0.000 A 
ATOM     23  N   UNL     1      45.655   4.063   8.588  0.00  0.00    +0.000 NA
ATOM     24  H   UNL     1      43.299   2.881  10.140  0.00  0.00    +0.000 HD
BRANCH  21  25
ATOM     25  C   UNL     1      47.630   2.106   6.018  0.00  0.00    +0.000 C 
ATOM     26  N   UNL     1      47.890   3.062   5.073  0.00  0.00    +0.000 N 
ATOM     27  O   UNL     1      48.122   0.989   5.906  0.00  0.00    +0.000 OA
ATOM     28  H   UNL     1      47.542   4.008   5.069  0.00  0.00    +0.000 HD
ATOM     29  H   UNL     1      48.494   2.787   4.309  0.00  0.00    +0.000 HD
ENDBRANCH  21  25
ENDBRANCH  16  17
ENDBRANCH   1  16
TORSDOF 5
ENDMDL
MODEL 6
REMARK VINA RESULT:    -7.221      3.851      7.877
REMARK INTER + INTRA:         -10.222
REMARK INTER:                  -9.821
REMARK INTRA:                  -0.401
REMARK UNBOUND:                -0.890
REMARK  Name = 
REMARK  7 active torsions:
REMARK  status: ('A' for Active; 'I' for Inactive)
REMARK    1  A    between atoms: C_1  and  C_2
REMARK    2  A    between atoms: C_4  and  C_5
REMARK    3  A    between atoms: C_12  and  C_13
REMARK    4  A    between atoms: C_13  and  C_14
REMARK    5  A    between atoms: C_13  and  C_15
REMARK    6  A    between atoms: C_15  and  N_16
REMARK    7  A    between atoms: C_20  and  C_21
REMARK                            x       y       z     vdW  Elec       q    Type
REMARK                         _______ _______ _______ _____ _____    ______ ____
ROOT
ATOM      1  C   UNL     1      45.636   6.538  10.957  0.00  0.00    +0.000 C 
ATOM      2  C   UNL     1      44.359   7.297  11.348  0.00  0.00    +0.000 C 
ENDROOT
BRANCH   1   8
ATOM      3  C   UNL     1      43.112   2.210  11.643  0.00  0.00    +0.000 C 
ATOM      4  C   UNL     1      44.066   3.039  10.832  0.00  0.00    +0.000 A 
ATOM      5  C   UNL     1      44.657   2.515   9.670  0.00  0.00    +0.000 A 
ATOM      6  C   UNL     1      45.567   3.261   8.903  0.00  0.00    +0.000 A 
ATOM      7  C   UNL     1      45.863   4.563   9.351  0.00  0.00    +0.000 A 
ATOM      8  C   UNL     1      45.278   5.124  10.503  0.00  0.00    +0.000 A 
ATOM      9  C   UNL     1      44.374   4.346  11.234  0.00  0.00    +0.000 A 
BRANCH   6  10
ATOM     10  C   UNL     1      46.207   2.712   7.680  0.00  0.00    +0.000 A 
ATOM     11  C   UNL     1      46.365   3.502   6.524  0.00  0.00    +0.000 A 
ATOM     12  C   UNL     1      47.011   3.016   5.383  0.00  0.00    +0.000 A 
ATOM     13  C   UNL     1      47.498   1.715   5.361  0.00  0.00    +0.000 A 
ATOM     14  C   UNL     1      47.336   0.901   6.478  0.00  0.00    +0.000 A 
ATOM     15  C   UNL     1      46.701   1.396   7.623  0.00  0.00    +0.000 A 
ENDBRANCH   6  10
ENDBRANCH   1   8
BRANCH   1  16
ATOM     16  C   UNL     1      46.674   6.505  12.104  0.00  0.00    +0.000 C 
BRANCH  16  17
ATOM     17  N   UNL     1      46.415   5.413  13.055  0.00  0.00    +0.000 N 
ATOM     18  C   UNL     1      47.226   5.474  14.207  0.00  0.00    +0.000 A 
ATOM     19  C   UNL     1      47.105   4.467  15.162  0.00  0.00    +0.000 A 
ATOM     20  C   UNL     1      47.910   4.498  16.304  0.00  0.00    +0.000 A 
ATOM     21  C   UNL     1      48.820   5.540  16.479  0.00  0.00    +0.000 A 
ATOM     22  C   UNL     1      48.858   6.511  15.489  0.00  0.00    +0.000 A 
ATOM     23  N   UNL     1      48.087   6.496  14.378  0.00  0.00    +0.000 NA
ATOM     24  H   UNL     1      46.559   4.498  12.637  0.00  0.00    +0.000 HD
BRANCH  21  25
ATOM     25  C   UNL     1      49.691   5.561  17.678  0.00  0.00    +0.000 C 
ATOM     26  N   UNL     1      49.138   5.832  18.900  0.00  0.00    +0.000 N 
ATOM     27  O   UNL     1      50.895   5.350  17.588  0.00  0.00    +0.000 OA
ATOM     28  H   UNL     1      48.165   6.016  19.088  0.00  0.00    +0.000 HD
ATOM     29  H   UNL     1      49.772   5.843  19.690  0.00  0.00    +0.000 HD
ENDBRANCH  21  25
ENDBRANCH  16  17
ENDBRANCH   1  16
TORSDOF 5
ENDMDL
MODEL 7
REMARK VINA RESULT:    -7.007      4.296      7.779
REMARK INTER + INTRA:          -9.945
REMARK INTER:                  -8.676
REMARK INTRA:                  -1.269
REMARK UNBOUND:                -0.890
REMARK  Name = 
REMARK  7 active torsions:
REMARK  status: ('A' for Active; 'I' for Inactive)
REMARK    1  A    between atoms: C_1  and  C_2
REMARK    2  A    between atoms: C_4  and  C_5
REMARK    3  A    between atoms: C_12  and  C_13
REMARK    4  A    between atoms: C_13  and  C_14
REMARK    5  A    between atoms: C_13  and  C_15
REMARK    6  A    between atoms: C_15  and  N_16
REMARK    7  A    between atoms: C_20  and  C_21
REMARK                            x       y       z     vdW  Elec       q    Type
REMARK                         _______ _______ _______ _____ _____    ______ ____
ROOT
ATOM      1  C   UNL     1      48.599   9.157  12.469  0.00  0.00    +0.000 C 
ATOM      2  C   UNL     1      48.701  10.217  13.576  0.00  0.00    +0.000 C 
ENDROOT
BRANCH   1   8
ATOM      3  C   UNL     1      43.988  10.882  11.316  0.00  0.00    +0.000 C 
ATOM      4  C   UNL     1      44.909   9.727  11.582  0.00  0.00    +0.000 A 
ATOM      5  C   UNL     1      44.428   8.407  11.553  0.00  0.00    +0.000 A 
ATOM      6  C   UNL     1      45.264   7.309  11.815  0.00  0.00    +0.000 A 
ATOM      7  C   UNL     1      46.613   7.590  12.111  0.00  0.00    +0.000 A 
ATOM      8  C   UNL     1      47.131   8.899  12.135  0.00  0.00    +0.000 A 
ATOM      9  C   UNL     1      46.263   9.962  11.863  0.00  0.00    +0.000 A 
BRANCH   6  10
ATOM     10  C   UNL     1      44.762   5.911  11.800  0.00  0.00    +0.000 A 
ATOM     11  C   UNL     1      45.573   4.842  12.227  0.00  0.00    +0.000 A 
ATOM     12  C   UNL     1      45.098   3.527  12.266  0.00  0.00    +0.000 A 
ATOM     13  C   UNL     1      43.801   3.244  11.856  0.00  0.00    +0.000 A 
ATOM     14  C   UNL     1      42.982   4.275  11.406  0.00  0.00    +0.000 A 
ATOM     15  C   UNL     1      43.457   5.592  11.382  0.00  0.00    +0.000 A 
ENDBRANCH   6  10
ENDBRANCH   1   8
BRANCH   1  16
ATOM     16  C   UNL     1      49.320   7.841  12.847  0.00  0.00    +0.000 C 
BRANCH  16  17
ATOM     17  N   UNL     1      49.814   7.857  14.232  0.00  0.00    +0.000 N 
ATOM     18  C   UNL     1      49.207   6.883  15.051  0.00  0.00    +0.000 A 
ATOM     19  C   UNL     1      49.559   6.829  16.398  0.00  0.00    +0.000 A 
ATOM     20  C   UNL     1      48.958   5.883  17.232  0.00  0.00    +0.000 A 
ATOM     21  C   UNL     1      48.017   4.998  16.707  0.00  0.00    +0.000 A 
ATOM     22  C   UNL     1      47.742   5.108  15.352  0.00  0.00    +0.000 A 
ATOM     23  N   UNL     1      48.315   6.018  14.531  0.00  0.00    +0.000 NA
ATOM     24  H   UNL     1      49.669   8.757  14.681  0.00  0.00    +0.000 HD
BRANCH  21  25
ATOM     25  C   UNL     1      47.361   4.010  17.595  0.00  0.00    +0.000 C 
ATOM     26  N   UNL     1      47.730   3.948  18.912  0.00  0.00    +0.000 N 
ATOM     27  O   UNL     1      46.505   3.246  17.166  0.00  0.00    +0.000 OA
ATOM     28  H   UNL     1      48.417   4.528  19.368  0.00  0.00    +0.000 HD
ATOM     29  H   UNL     1      47.259   3.254  19.479  0.00  0.00    +0.000 HD
ENDBRANCH  21  25
ENDBRANCH  16  17
ENDBRANCH   1  16
TORSDOF 5
ENDMDL
MODEL 8
REMARK VINA RESULT:    -6.950      4.880      8.286
REMARK INTER + INTRA:          -9.872
REMARK INTER:                  -9.065
REMARK INTRA:                  -0.807
REMARK UNBOUND:                -0.890
REMARK  Name = 
REMARK  7 active torsions:
REMARK  status: ('A' for Active; 'I' for Inactive)
REMARK    1  A    between atoms: C_1  and  C_2
REMARK    2  A    between atoms: C_4  and  C_5
REMARK    3  A    between atoms: C_12  and  C_13
REMARK    4  A    between atoms: C_13  and  C_14
REMARK    5  A    between atoms: C_13  and  C_15
REMARK    6  A    between atoms: C_15  and  N_16
REMARK    7  A    between atoms: C_20  and  C_21
REMARK                            x       y       z     vdW  Elec       q    Type
REMARK                         _______ _______ _______ _____ _____    ______ ____
ROOT
ATOM      1  C   UNL     1      48.722   7.010  13.840  0.00  0.00    +0.000 C 
ATOM      2  C   UNL     1      49.793   8.006  13.371  0.00  0.00    +0.000 C 
ENDROOT
BRANCH   1   8
ATOM      3  C   UNL     1      44.834   9.818  12.237  0.00  0.00    +0.000 C 
ATOM      4  C   UNL     1      45.587   8.519  12.222  0.00  0.00    +0.000 A 
ATOM      5  C   UNL     1      45.126   7.436  11.455  0.00  0.00    +0.000 A 
ATOM      6  C   UNL     1      45.800   6.204  11.436  0.00  0.00    +0.000 A 
ATOM      7  C   UNL     1      46.964   6.101  12.224  0.00  0.00    +0.000 A 
ATOM      8  C   UNL     1      47.460   7.170  12.993  0.00  0.00    +0.000 A 
ATOM      9  C   UNL     1      46.759   8.380  12.978  0.00  0.00    +0.000 A 
BRANCH   6  10
ATOM     10  C   UNL     1      45.314   5.049  10.639  0.00  0.00    +0.000 A 
ATOM     11  C   UNL     1      45.491   5.002   9.242  0.00  0.00    +0.000 A 
ATOM     12  C   UNL     1      45.086   3.899   8.484  0.00  0.00    +0.000 A 
ATOM     13  C   UNL     1      44.470   2.819   9.104  0.00  0.00    +0.000 A 
ATOM     14  C   UNL     1      44.259   2.844  10.479  0.00  0.00    +0.000 A 
ATOM     15  C   UNL     1      44.680   3.944  11.236  0.00  0.00    +0.000 A 
ENDBRANCH   6  10
ENDBRANCH   1   8
BRANCH   1  16
ATOM     16  C   UNL     1      48.399   7.158  15.346  0.00  0.00    +0.000 C 
BRANCH  16  17
ATOM     17  N   UNL     1      48.034   5.875  15.964  0.00  0.00    +0.000 N 
ATOM     18  C   UNL     1      49.128   5.214  16.562  0.00  0.00    +0.000 A 
ATOM     19  C   UNL     1      48.917   3.965  17.141  0.00  0.00    +0.000 A 
ATOM     20  C   UNL     1      49.989   3.284  17.725  0.00  0.00    +0.000 A 
ATOM     21  C   UNL     1      51.256   3.865  17.727  0.00  0.00    +0.000 A 
ATOM     22  C   UNL     1      51.371   5.120  17.147  0.00  0.00    +0.000 A 
ATOM     23  N   UNL     1      50.344   5.792  16.578  0.00  0.00    +0.000 NA
ATOM     24  H   UNL     1      47.625   5.229  15.295  0.00  0.00    +0.000 HD
BRANCH  21  25
ATOM     25  C   UNL     1      52.398   3.134  18.324  0.00  0.00    +0.000 C 
ATOM     26  N   UNL     1      52.365   1.766  18.372  0.00  0.00    +0.000 N 
ATOM     27  O   UNL     1      53.364   3.736  18.781  0.00  0.00    +0.000 OA
ATOM     28  H   UNL     1      51.626   1.174  18.025  0.00  0.00    +0.000 HD
ATOM     29  H   UNL     1      53.164   1.310  18.794  0.00  0.00    +0.000 HD
ENDBRANCH  21  25
ENDBRANCH  16  17
ENDBRANCH   1  16
TORSDOF 5
ENDMDL
MODEL 9
REMARK VINA RESULT:    -6.856      4.551      6.241
REMARK INTER + INTRA:          -9.750
REMARK INTER:                  -8.974
REMARK INTRA:                  -0.775
REMARK UNBOUND:                -0.890
REMARK  Name = 
REMARK  7 active torsions:
REMARK  status: ('A' for Active; 'I' for Inactive)
REMARK    1  A    between atoms: C_1  and  C_2
REMARK    2  A    between atoms: C_4  and  C_5
REMARK    3  A    between atoms: C_12  and  C_13
REMARK    4  A    between atoms: C_13  and  C_14
REMARK    5  A    between atoms: C_13  and  C_15
REMARK    6  A    between atoms: C_15  and  N_16
REMARK    7  A    between atoms: C_20  and  C_21
REMARK                            x       y       z     vdW  Elec       q    Type
REMARK                         _______ _______ _______ _____ _____    ______ ____
ROOT
ATOM      1  C   UNL     1      48.512   4.474  16.682  0.00  0.00    +0.000 C 
ATOM      2  C   UNL     1      49.006   3.073  17.071  0.00  0.00    +0.000 C 
ENDROOT
BRANCH   1   8
ATOM      3  C   UNL     1      48.336   4.907  21.717  0.00  0.00    +0.000 C 
ATOM      4  C   UNL     1      48.269   5.544  20.359  0.00  0.00    +0.000 A 
ATOM      5  C   UNL     1      48.036   6.923  20.229  0.00  0.00    +0.000 A 
ATOM      6  C   UNL     1      47.951   7.542  18.971  0.00  0.00    +0.000 A 
ATOM      7  C   UNL     1      48.109   6.716  17.840  0.00  0.00    +0.000 A 
ATOM      8  C   UNL     1      48.356   5.334  17.936  0.00  0.00    +0.000 A 
ATOM      9  C   UNL     1      48.438   4.760  19.209  0.00  0.00    +0.000 A 
BRANCH   6  10
ATOM     10  C   UNL     1      47.693   8.998  18.821  0.00  0.00    +0.000 A 
ATOM     11  C   UNL     1      46.921   9.701  19.766  0.00  0.00    +0.000 A 
ATOM     12  C   UNL     1      46.712  11.081  19.666  0.00  0.00    +0.000 A 
ATOM     13  C   UNL     1      47.255  11.791  18.603  0.00  0.00    +0.000 A 
ATOM     14  C   UNL     1      48.002  11.120  17.639  0.00  0.00    +0.000 A 
ATOM     15  C   UNL     1      48.221   9.742  17.751  0.00  0.00    +0.000 A 
ENDBRANCH   6  10
ENDBRANCH   1   8
BRANCH   1  16
ATOM     16  C   UNL     1      47.193   4.430  15.874  0.00  0.00    +0.000 C 
BRANCH  16  17
ATOM     17  N   UNL     1      47.175   5.421  14.787  0.00  0.00    +0.000 N 
ATOM     18  C   UNL     1      46.435   5.000  13.663  0.00  0.00    +0.000 A 
ATOM     19  C   UNL     1      46.382   5.834  12.548  0.00  0.00    +0.000 A 
ATOM     20  C   UNL     1      45.669   5.430  11.416  0.00  0.00    +0.000 A 
ATOM     21  C   UNL     1      45.012   4.201  11.417  0.00  0.00    +0.000 A 
ATOM     22  C   UNL     1      45.100   3.444  12.576  0.00  0.00    +0.000 A 
ATOM     23  N   UNL     1      45.786   3.819  13.680  0.00  0.00    +0.000 NA
ATOM     24  H   UNL     1      48.109   5.650  14.461  0.00  0.00    +0.000 HD
BRANCH  21  25
ATOM     25  C   UNL     1      44.275   3.761  10.209  0.00  0.00    +0.000 C 
ATOM     26  N   UNL     1      44.014   4.668   9.218  0.00  0.00    +0.000 N 
ATOM     27  O   UNL     1      43.891   2.603  10.091  0.00  0.00    +0.000 OA
ATOM     28  H   UNL     1      44.285   5.639   9.211  0.00  0.00    +0.000 HD
ATOM     29  H   UNL     1      43.503   4.324   8.415  0.00  0.00    +0.000 HD
ENDBRANCH  21  25
ENDBRANCH  16  17
ENDBRANCH   1  16
TORSDOF 5
ENDMDL
