MODEL 1
REMARK VINA RESULT:    -8.360      0.000      0.000
REMARK INTER + INTRA:         -11.771
REMARK INTER:                 -10.803
REMARK INTRA:                  -0.967
REMARK UNBOUND:                -0.967
REMARK  Name = 
REMARK  5 active torsions:
REMARK  status: ('A' for Active; 'I' for Inactive)
REMARK    1  A    between atoms: C_2  and  C_4
REMARK    2  A    between atoms: C_7  and  O_8
REMARK    3  A    between atoms: O_8  and  C_9
REMARK    4  A    between atoms: C_9  and  C_10
REMARK    5  A    between atoms: C_15  and  C_16
REMARK                            x       y       z     vdW  Elec       q    Type
REMARK                         _______ _______ _______ _____ _____    ______ ____
ROOT
ATOM      1  C   UNL     1      43.654   4.047  11.275  0.00  0.00    +0.000 C 
ENDROOT
BRANCH   1   2
ATOM      2  C   UNL     1      44.886   4.547  11.994  0.00  0.00    +0.000 A 
ATOM      3  C   UNL     1      45.549   3.702  12.891  0.00  0.00    +0.000 A 
ATOM      4  C   UNL     1      46.710   4.134  13.515  0.00  0.00    +0.000 A 
ATOM      5  F   UNL     1      47.332   3.318  14.377  0.00  0.00    +0.000 F 
ATOM      6  C   UNL     1      47.240   5.394  13.264  0.00  0.00    +0.000 A 
ATOM      7  C   UNL     1      46.607   6.278  12.374  0.00  0.00    +0.000 A 
ATOM      8  C   UNL     1      45.430   5.820  11.741  0.00  0.00    +0.000 A 
BRANCH   7   9
ATOM      9  C   UNL     1      47.134   7.641  12.128  0.00  0.00    +0.000 A 
ATOM     10  C   UNL     1      46.317   8.782  12.235  0.00  0.00    +0.000 A 
ATOM     11  C   UNL     1      46.830  10.071  12.050  0.00  0.00    +0.000 A 
ATOM     12  C   UNL     1      48.173  10.249  11.736  0.00  0.00    +0.000 A 
ATOM     13  C   UNL     1      49.001   9.140  11.604  0.00  0.00    +0.000 A 
ATOM     14  C   UNL     1      48.487   7.854  11.802  0.00  0.00    +0.000 A 
ENDBRANCH   7   9
ENDBRANCH   1   2
BRANCH   1  15
ATOM     15  O   UNL     1      43.719   4.337   9.875  0.00  0.00    +0.000 OA
BRANCH  15  19
ATOM     16  C   UNL     1      46.523   2.461   7.531  0.00  0.00    +0.000 A 
ATOM     17  C   UNL     1      45.800   1.653   8.398  0.00  0.00    +0.000 A 
ATOM     18  C   UNL     1      44.842   2.246   9.220  0.00  0.00    +0.000 A 
ATOM     19  C   UNL     1      44.626   3.620   9.146  0.00  0.00    +0.000 A 
ATOM     20  C   UNL     1      45.403   4.345   8.244  0.00  0.00    +0.000 A 
ATOM     21  N   UNL     1      46.351   3.808   7.434  0.00  0.00    +0.000 NA
BRANCH  16  23
ATOM     22  N   UNL     1      48.646   2.624   6.371  0.00  0.00    +0.000 N 
ATOM     23  C   UNL     1      47.557   1.844   6.643  0.00  0.00    +0.000 C 
ATOM     24  O   UNL     1      47.447   0.710   6.190  0.00  0.00    +0.000 OA
ATOM     25  H   UNL     1      49.384   2.264   5.784  0.00  0.00    +0.000 HD
ATOM     26  H   UNL     1      48.710   3.554   6.774  0.00  0.00    +0.000 HD
ENDBRANCH  16  23
ENDBRANCH  15  19
ENDBRANCH   1  15
TORSDOF 5
ENDMDL
MODEL 2
REMARK VINA RESULT:    -7.779      1.714      2.390
REMARK INTER + INTRA:         -11.020
REMARK INTER:                 -10.047
REMARK INTRA:                  -0.973
REMARK UNBOUND:                -0.967
REMARK  Name = 
REMARK  5 active torsions:
REMARK  status: ('A' for Active; 'I' for Inactive)
REMARK    1  A    between atoms: C_2  and  C_4
REMARK    2  A    between atoms: C_7  and  O_8
REMARK    3  A    between atoms: O_8  and  C_9
REMARK    4  A    between atoms: C_9  and  C_10
REMARK    5  A    between atoms: C_15  and  C_16
REMARK                            x       y       z     vdW  Elec       q    Type
REMARK                         _______ _______ _______ _____ _____    ______ ____
ROOT
ATOM      1  C   UNL     1      44.086   4.033  11.562  0.00  0.00    +0.000 C 
ENDROOT
BRANCH   1   2
ATOM      2  C   UNL     1      44.869   5.253  11.993  0.00  0.00    +0.000 A 
ATOM      3  C   UNL     1      46.028   5.090  12.759  0.00  0.00    +0.000 A 
ATOM      4  C   UNL     1      46.781   6.200  13.115  0.00  0.00    +0.000 A 
ATOM      5  F   UNL     1      47.886   6.032  13.855  0.00  0.00    +0.000 F 
ATOM      6  C   UNL     1      46.412   7.481  12.719  0.00  0.00    +0.000 A 
ATOM      7  C   UNL     1      45.254   7.693  11.952  0.00  0.00    +0.000 A 
ATOM      8  C   UNL     1      44.504   6.552  11.592  0.00  0.00    +0.000 A 
BRANCH   7   9
ATOM      9  C   UNL     1      44.823   9.055  11.559  0.00  0.00    +0.000 A 
ATOM     10  C   UNL     1      43.644   9.275  10.822  0.00  0.00    +0.000 A 
ATOM     11  C   UNL     1      43.215  10.566  10.495  0.00  0.00    +0.000 A 
ATOM     12  C   UNL     1      43.966  11.671  10.882  0.00  0.00    +0.000 A 
ATOM     13  C   UNL     1      45.147  11.484  11.593  0.00  0.00    +0.000 A 
ATOM     14  C   UNL     1      45.566  10.192  11.930  0.00  0.00    +0.000 A 
ENDBRANCH   7   9
ENDBRANCH   1   2
BRANCH   1  15
ATOM     15  O   UNL     1      43.742   4.104  10.174  0.00  0.00    +0.000 OA
BRANCH  15  19
ATOM     16  C   UNL     1      46.507   2.438   7.634  0.00  0.00    +0.000 A 
ATOM     17  C   UNL     1      46.373   3.819   7.584  0.00  0.00    +0.000 A 
ATOM     18  C   UNL     1      45.441   4.429   8.422  0.00  0.00    +0.000 A 
ATOM     19  C   UNL     1      44.680   3.650   9.291  0.00  0.00    +0.000 A 
ATOM     20  C   UNL     1      44.888   2.272   9.266  0.00  0.00    +0.000 A 
ATOM     21  N   UNL     1      45.777   1.638   8.459  0.00  0.00    +0.000 NA
BRANCH  16  23
ATOM     22  N   UNL     1      48.593   2.513   6.399  0.00  0.00    +0.000 N 
ATOM     23  C   UNL     1      47.500   1.765   6.740  0.00  0.00    +0.000 C 
ATOM     24  O   UNL     1      47.355   0.615   6.340  0.00  0.00    +0.000 OA
ATOM     25  H   UNL     1      49.304   2.114   5.804  0.00  0.00    +0.000 HD
ATOM     26  H   UNL     1      48.686   3.457   6.759  0.00  0.00    +0.000 HD
ENDBRANCH  16  23
ENDBRANCH  15  19
ENDBRANCH   1  15
TORSDOF 5
ENDMDL
MODEL 3
REMARK VINA RESULT:    -7.724      3.774      7.292
REMARK INTER + INTRA:         -10.949
REMARK INTER:                 -10.433
REMARK INTRA:                  -0.515
REMARK UNBOUND:                -0.967
REMARK  Name = 
REMARK  5 active torsions:
REMARK  status: ('A' for Active; 'I' for Inactive)
REMARK    1  A    between atoms: C_2  and  C_4
REMARK    2  A    between atoms: C_7  and  O_8
REMARK    3  A    between atoms: O_8  and  C_9
REMARK    4  A    between atoms: C_9  and  C_10
REMARK    5  A    between atoms: C_15  and  C_16
REMARK                            x       y       z     vdW  Elec       q    Type
REMARK                         _______ _______ _______ _____ _____    ______ ____
ROOT
ATOM      1  C   UNL     1      45.340   6.349  11.107  0.00  0.00    +0.000 C 
ENDROOT
BRANCH   1   2
ATOM      2  C   UNL     1      45.078   4.948  10.603  0.00  0.00    +0.000 A 
ATOM      3  C   UNL     1      44.150   4.140  11.268  0.00  0.00    +0.000 A 
ATOM      4  C   UNL     1      43.865   2.871  10.782  0.00  0.00    +0.000 A 
ATOM      5  F   UNL     1      42.980   2.104  11.432  0.00  0.00    +0.000 F 
ATOM      6  C   UNL     1      44.480   2.384   9.634  0.00  0.00    +0.000 A 
ATOM      7  C   UNL     1      45.421   3.158   8.935  0.00  0.00    +0.000 A 
ATOM      8  C   UNL     1      45.693   4.449   9.439  0.00  0.00    +0.000 A 
BRANCH   7   9
ATOM      9  C   UNL     1      46.118   2.636   7.735  0.00  0.00    +0.000 A 
ATOM     10  C   UNL     1      46.279   3.415   6.575  0.00  0.00    +0.000 A 
ATOM     11  C   UNL     1      46.980   2.936   5.462  0.00  0.00    +0.000 A 
ATOM     12  C   UNL     1      47.522   1.656   5.477  0.00  0.00    +0.000 A 
ATOM     13  C   UNL     1      47.362   0.854   6.603  0.00  0.00    +0.000 A 
ATOM     14  C   UNL     1      46.672   1.342   7.718  0.00  0.00    +0.000 A 
ENDBRANCH   7   9
ENDBRANCH   1   2
BRANCH   1  15
ATOM     15  O   UNL     1      46.718   6.526  11.450  0.00  0.00    +0.000 OA
BRANCH  15  19
ATOM     16  C   UNL     1      48.069   5.638  15.226  0.00  0.00    +0.000 A 
ATOM     17  C   UNL     1      46.947   4.946  14.792  0.00  0.00    +0.000 A 
ATOM     18  C   UNL     1      46.446   5.220  13.519  0.00  0.00    +0.000 A 
ATOM     19  C   UNL     1      47.082   6.163  12.715  0.00  0.00    +0.000 A 
ATOM     20  C   UNL     1      48.203   6.804  13.242  0.00  0.00    +0.000 A 
ATOM     21  N   UNL     1      48.716   6.574  14.478  0.00  0.00    +0.000 NA
BRANCH  16  23
ATOM     22  N   UNL     1      47.742   5.515  17.625  0.00  0.00    +0.000 N 
ATOM     23  C   UNL     1      48.620   5.360  16.589  0.00  0.00    +0.000 C 
ATOM     24  O   UNL     1      49.780   5.010  16.774  0.00  0.00    +0.000 OA
ATOM     25  H   UNL     1      48.048   5.336  18.570  0.00  0.00    +0.000 HD
ATOM     26  H   UNL     1      46.785   5.794  17.434  0.00  0.00    +0.000 HD
ENDBRANCH  16  23
ENDBRANCH  15  19
ENDBRANCH   1  15
TORSDOF 5
ENDMDL
MODEL 4
REMARK VINA RESULT:    -7.694      3.423      7.080
REMARK INTER + INTRA:         -10.911
REMARK INTER:                 -10.162
REMARK INTRA:                  -0.749
REMARK UNBOUND:                -0.967
REMARK  Name = 
REMARK  5 active torsions:
REMARK  status: ('A' for Active; 'I' for Inactive)
REMARK    1  A    between atoms: C_2  and  C_4
REMARK    2  A    between atoms: C_7  and  O_8
REMARK    3  A    between atoms: O_8  and  C_9
REMARK    4  A    between atoms: C_9  and  C_10
REMARK    5  A    between atoms: C_15  and  C_16
REMARK                            x       y       z     vdW  Elec       q    Type
REMARK                         _______ _______ _______ _____ _____    ______ ____
ROOT
ATOM      1  C   UNL     1      44.613   6.526  11.081  0.00  0.00    +0.000 C 
ENDROOT
BRANCH   1   2
ATOM      2  C   UNL     1      44.555   5.066  10.692  0.00  0.00    +0.000 A 
ATOM      3  C   UNL     1      43.749   4.190  11.427  0.00  0.00    +0.000 A 
ATOM      4  C   UNL     1      43.649   2.860  11.045  0.00  0.00    +0.000 A 
ATOM      5  F   UNL     1      42.879   2.029  11.762  0.00  0.00    +0.000 F 
ATOM      6  C   UNL     1      44.332   2.374   9.936  0.00  0.00    +0.000 A 
ATOM      7  C   UNL     1      45.155   3.215   9.170  0.00  0.00    +0.000 A 
ATOM      8  C   UNL     1      45.240   4.568   9.567  0.00  0.00    +0.000 A 
BRANCH   7   9
ATOM      9  C   UNL     1      45.923   2.703   8.010  0.00  0.00    +0.000 A 
ATOM     10  C   UNL     1      46.184   3.503   6.882  0.00  0.00    +0.000 A 
ATOM     11  C   UNL     1      46.951   3.032   5.811  0.00  0.00    +0.000 A 
ATOM     12  C   UNL     1      47.462   1.739   5.834  0.00  0.00    +0.000 A 
ATOM     13  C   UNL     1      47.205   0.917   6.926  0.00  0.00    +0.000 A 
ATOM     14  C   UNL     1      46.448   1.396   8.001  0.00  0.00    +0.000 A 
ENDBRANCH   7   9
ENDBRANCH   1   2
BRANCH   1  15
ATOM     15  O   UNL     1      44.800   6.679  12.492  0.00  0.00    +0.000 OA
BRANCH  15  19
ATOM     16  C   UNL     1      48.627   7.373  13.811  0.00  0.00    +0.000 A 
ATOM     17  C   UNL     1      47.898   8.485  13.414  0.00  0.00    +0.000 A 
ATOM     18  C   UNL     1      46.596   8.299  12.952  0.00  0.00    +0.000 A 
ATOM     19  C   UNL     1      46.057   7.015  12.907  0.00  0.00    +0.000 A 
ATOM     20  C   UNL     1      46.870   5.963  13.327  0.00  0.00    +0.000 A 
ATOM     21  N   UNL     1      48.144   6.101  13.775  0.00  0.00    +0.000 NA
BRANCH  16  23
ATOM     22  N   UNL     1      50.973   7.776  13.347  0.00  0.00    +0.000 N 
ATOM     23  C   UNL     1      50.027   7.553  14.309  0.00  0.00    +0.000 C 
ATOM     24  O   UNL     1      50.315   7.511  15.499  0.00  0.00    +0.000 OA
ATOM     25  H   UNL     1      51.936   7.913  13.617  0.00  0.00    +0.000 HD
ATOM     26  H   UNL     1      50.696   7.817  12.372  0.00  0.00    +0.000 HD
ENDBRANCH  16  23
ENDBRANCH  15  19
ENDBRANCH   1  15
TORSDOF 5
ENDMDL
MODEL 5
REMARK VINA RESULT:    -7.620      4.071      7.393
REMARK INTER + INTRA:         -10.815
REMARK INTER:                 -10.272
REMARK INTRA:                  -0.542
REMARK UNBOUND:                -0.967
REMARK  Name = 
REMARK  5 active torsions:
REMARK  status: ('A' for Active; 'I' for Inactive)
REMARK    1  A    between atoms: C_2  and  C_4
REMARK    2  A    between atoms: C_7  and  O_8
REMARK    3  A    between atoms: O_8  and  C_9
REMARK    4  A    between atoms: C_9  and  C_10
REMARK    5  A    between atoms: C_15  and  C_16
REMARK                            x       y       z     vdW  Elec       q    Type
REMARK                         _______ _______ _______ _____ _____    ______ ____
ROOT
ATOM      1  C   UNL     1      46.234   7.292  12.511  0.00  0.00    +0.000 C 
ENDROOT
BRANCH   1   2
ATOM      2  C   UNL     1      45.324   6.344  11.764  0.00  0.00    +0.000 A 
ATOM      3  C   UNL     1      43.952   6.350  12.035  0.00  0.00    +0.000 A 
ATOM      4  C   UNL     1      43.103   5.520  11.317  0.00  0.00    +0.000 A 
ATOM      5  F   UNL     1      41.791   5.530  11.590  0.00  0.00    +0.000 F 
ATOM      6  C   UNL     1      43.587   4.680  10.320  0.00  0.00    +0.000 A 
ATOM      7  C   UNL     1      44.958   4.637  10.016  0.00  0.00    +0.000 A 
ATOM      8  C   UNL     1      45.807   5.493  10.751  0.00  0.00    +0.000 A 
BRANCH   7   9
ATOM      9  C   UNL     1      45.495   3.715   8.988  0.00  0.00    +0.000 A 
ATOM     10  C   UNL     1      46.114   4.191   7.817  0.00  0.00    +0.000 A 
ATOM     11  C   UNL     1      46.664   3.318   6.872  0.00  0.00    +0.000 A 
ATOM     12  C   UNL     1      46.592   1.943   7.066  0.00  0.00    +0.000 A 
ATOM     13  C   UNL     1      45.969   1.441   8.204  0.00  0.00    +0.000 A 
ATOM     14  C   UNL     1      45.432   2.318   9.153  0.00  0.00    +0.000 A 
ENDBRANCH   7   9
ENDBRANCH   1   2
BRANCH   1  15
ATOM     15  O   UNL     1      47.508   6.692  12.769  0.00  0.00    +0.000 OA
BRANCH  15  19
ATOM     16  C   UNL     1      47.736   4.636  16.318  0.00  0.00    +0.000 A 
ATOM     17  C   UNL     1      48.517   5.779  16.213  0.00  0.00    +0.000 A 
ATOM     18  C   UNL     1      48.479   6.507  15.024  0.00  0.00    +0.000 A 
ATOM     19  C   UNL     1      47.659   6.081  13.981  0.00  0.00    +0.000 A 
ATOM     20  C   UNL     1      46.913   4.920  14.184  0.00  0.00    +0.000 A 
ATOM     21  N   UNL     1      46.929   4.179  15.321  0.00  0.00    +0.000 NA
BRANCH  16  23
ATOM     22  N   UNL     1      46.881   2.801  17.652  0.00  0.00    +0.000 N 
ATOM     23  C   UNL     1      47.766   3.841  17.585  0.00  0.00    +0.000 C 
ATOM     24  O   UNL     1      48.534   4.095  18.506  0.00  0.00    +0.000 OA
ATOM     25  H   UNL     1      46.855   2.220  18.477  0.00  0.00    +0.000 HD
ATOM     26  H   UNL     1      46.269   2.612  16.865  0.00  0.00    +0.000 HD
ENDBRANCH  16  23
ENDBRANCH  15  19
ENDBRANCH   1  15
TORSDOF 5
ENDMDL
MODEL 6
REMARK VINA RESULT:    -6.927      4.870      7.867
REMARK INTER + INTRA:          -9.920
REMARK INTER:                  -9.299
REMARK INTRA:                  -0.621
REMARK UNBOUND:                -0.967
REMARK  Name = 
REMARK  5 active torsions:
REMARK  status: ('A' for Active; 'I' for Inactive)
REMARK    1  A    between atoms: C_2  and  C_4
REMARK    2  A    between atoms: C_7  and  O_8
REMARK    3  A    between atoms: O_8  and  C_9
REMARK    4  A    between atoms: C_9  and  C_10
REMARK    5  A    between atoms: C_15  and  C_16
REMARK                            x       y       z     vdW  Elec       q    Type
REMARK                         _______ _______ _______ _____ _____    ______ ____
ROOT
ATOM      1  C   UNL     1      46.001   5.209  14.019  0.00  0.00    +0.000 C 
ENDROOT
BRANCH   1   2
ATOM      2  C   UNL     1      45.138   4.945  12.806  0.00  0.00    +0.000 A 
ATOM      3  C   UNL     1      43.794   5.332  12.821  0.00  0.00    +0.000 A 
ATOM      4  C   UNL     1      43.009   5.142  11.693  0.00  0.00    +0.000 A 
ATOM      5  F   UNL     1      41.721   5.510  11.722  0.00  0.00    +0.000 F 
ATOM      6  C   UNL     1      43.532   4.577  10.535  0.00  0.00    +0.000 A 
ATOM      7  C   UNL     1      44.875   4.170  10.475  0.00  0.00    +0.000 A 
ATOM      8  C   UNL     1      45.663   4.378  11.629  0.00  0.00    +0.000 A 
BRANCH   7   9
ATOM      9  C   UNL     1      45.437   3.526   9.264  0.00  0.00    +0.000 A 
ATOM     10  C   UNL     1      45.957   4.282   8.197  0.00  0.00    +0.000 A 
ATOM     11  C   UNL     1      46.531   3.670   7.077  0.00  0.00    +0.000 A 
ATOM     12  C   UNL     1      46.583   2.283   6.990  0.00  0.00    +0.000 A 
ATOM     13  C   UNL     1      46.060   1.509   8.020  0.00  0.00    +0.000 A 
ATOM     14  C   UNL     1      45.499   2.124   9.143  0.00  0.00    +0.000 A 
ENDBRANCH   7   9
ENDBRANCH   1   2
BRANCH   1  15
ATOM     15  O   UNL     1      46.525   3.990  14.556  0.00  0.00    +0.000 OA
BRANCH  15  19
ATOM     16  C   UNL     1      49.480   4.030  17.409  0.00  0.00    +0.000 A 
ATOM     17  C   UNL     1      48.990   5.265  17.009  0.00  0.00    +0.000 A 
ATOM     18  C   UNL     1      47.991   5.303  16.037  0.00  0.00    +0.000 A 
ATOM     19  C   UNL     1      47.504   4.112  15.501  0.00  0.00    +0.000 A 
ATOM     20  C   UNL     1      48.062   2.923  15.968  0.00  0.00    +0.000 A 
ATOM     21  N   UNL     1      49.041   2.843  16.905  0.00  0.00    +0.000 NA
BRANCH  16  23
ATOM     22  N   UNL     1      51.539   3.047  18.230  0.00  0.00    +0.000 N 
ATOM     23  C   UNL     1      50.553   3.969  18.450  0.00  0.00    +0.000 C 
ATOM     24  O   UNL     1      50.560   4.698  19.435  0.00  0.00    +0.000 OA
ATOM     25  H   UNL     1      52.297   2.960  18.891  0.00  0.00    +0.000 HD
ATOM     26  H   UNL     1      51.508   2.468  17.397  0.00  0.00    +0.000 HD
ENDBRANCH  16  23
ENDBRANCH  15  19
ENDBRANCH   1  15
TORSDOF 5
ENDMDL
MODEL 7
REMARK VINA RESULT:    -6.614      3.877      7.181
REMARK INTER + INTRA:          -9.515
REMARK INTER:                  -8.717
REMARK INTRA:                  -0.799
REMARK UNBOUND:                -0.967
REMARK  Name = 
REMARK  5 active torsions:
REMARK  status: ('A' for Active; 'I' for Inactive)
REMARK    1  A    between atoms: C_2  and  C_4
REMARK    2  A    between atoms: C_7  and  O_8
REMARK    3  A    between atoms: O_8  and  C_9
REMARK    4  A    between atoms: C_9  and  C_10
REMARK    5  A    between atoms: C_15  and  C_16
REMARK                            x       y       z     vdW  Elec       q    Type
REMARK                         _______ _______ _______ _____ _____    ______ ____
ROOT
ATOM      1  C   UNL     1      45.989   4.756  14.044  0.00  0.00    +0.000 C 
ENDROOT
BRANCH   1   2
ATOM      2  C   UNL     1      45.145   4.653  12.793  0.00  0.00    +0.000 A 
ATOM      3  C   UNL     1      43.843   5.164  12.799  0.00  0.00    +0.000 A 
ATOM      4  C   UNL     1      43.080   5.121  11.640  0.00  0.00    +0.000 A 
ATOM      5  F   UNL     1      41.831   5.606  11.660  0.00  0.00    +0.000 F 
ATOM      6  C   UNL     1      43.586   4.584  10.462  0.00  0.00    +0.000 A 
ATOM      7  C   UNL     1      44.887   4.057  10.410  0.00  0.00    +0.000 A 
ATOM      8  C   UNL     1      45.653   4.115  11.596  0.00  0.00    +0.000 A 
BRANCH   7   9
ATOM      9  C   UNL     1      45.426   3.441   9.174  0.00  0.00    +0.000 A 
ATOM     10  C   UNL     1      45.827   4.220   8.073  0.00  0.00    +0.000 A 
ATOM     11  C   UNL     1      46.381   3.639   6.927  0.00  0.00    +0.000 A 
ATOM     12  C   UNL     1      46.531   2.259   6.847  0.00  0.00    +0.000 A 
ATOM     13  C   UNL     1      46.125   1.460   7.911  0.00  0.00    +0.000 A 
ATOM     14  C   UNL     1      45.583   2.047   9.060  0.00  0.00    +0.000 A 
ENDBRANCH   7   9
ENDBRANCH   1   2
BRANCH   1  15
ATOM     15  O   UNL     1      47.371   4.938  13.721  0.00  0.00    +0.000 OA
BRANCH  15  19
ATOM     16  C   UNL     1      48.619   8.829  13.296  0.00  0.00    +0.000 A 
ATOM     17  C   UNL     1      48.257   8.164  12.133  0.00  0.00    +0.000 A 
ATOM     18  C   UNL     1      47.834   6.839  12.226  0.00  0.00    +0.000 A 
ATOM     19  C   UNL     1      47.774   6.220  13.472  0.00  0.00    +0.000 A 
ATOM     20  C   UNL     1      48.160   6.972  14.581  0.00  0.00    +0.000 A 
ATOM     21  N   UNL     1      48.586   8.260  14.533  0.00  0.00    +0.000 NA
BRANCH  16  23
ATOM     22  N   UNL     1      48.579  11.089  14.174  0.00  0.00    +0.000 N 
ATOM     23  C   UNL     1      49.078  10.251  13.216  0.00  0.00    +0.000 C 
ATOM     24  O   UNL     1      49.855  10.646  12.355  0.00  0.00    +0.000 OA
ATOM     25  H   UNL     1      48.854  12.060  14.181  0.00  0.00    +0.000 HD
ATOM     26  H   UNL     1      47.946  10.724  14.879  0.00  0.00    +0.000 HD
ENDBRANCH  16  23
ENDBRANCH  15  19
ENDBRANCH   1  15
TORSDOF 5
ENDMDL
MODEL 8
REMARK VINA RESULT:    -6.474      5.507      8.542
REMARK INTER + INTRA:          -9.334
REMARK INTER:                  -8.607
REMARK INTRA:                  -0.727
REMARK UNBOUND:                -0.967
REMARK  Name = 
REMARK  5 active torsions:
REMARK  status: ('A' for Active; 'I' for Inactive)
REMARK    1  A    between atoms: C_2  and  C_4
REMARK    2  A    between atoms: C_7  and  O_8
REMARK    3  A    between atoms: O_8  and  C_9
REMARK    4  A    between atoms: C_9  and  C_10
REMARK    5  A    between atoms: C_15  and  C_16
REMARK                            x       y       z     vdW  Elec       q    Type
REMARK                         _______ _______ _______ _____ _____    ______ ____
ROOT
ATOM      1  C   UNL     1      48.420   7.088  14.215  0.00  0.00    +0.000 C 
ENDROOT
BRANCH   1   2
ATOM      2  C   UNL     1      47.218   7.194  13.304  0.00  0.00    +0.000 A 
ATOM      3  C   UNL     1      46.465   8.373  13.293  0.00  0.00    +0.000 A 
ATOM      4  C   UNL     1      45.392   8.498  12.422  0.00  0.00    +0.000 A 
ATOM      5  F   UNL     1      44.674   9.629  12.425  0.00  0.00    +0.000 F 
ATOM      6  C   UNL     1      45.048   7.472  11.548  0.00  0.00    +0.000 A 
ATOM      7  C   UNL     1      45.772   6.269  11.527  0.00  0.00    +0.000 A 
ATOM      8  C   UNL     1      46.866   6.161  12.414  0.00  0.00    +0.000 A 
BRANCH   7   9
ATOM      9  C   UNL     1      45.391   5.150  10.633  0.00  0.00    +0.000 A 
ATOM     10  C   UNL     1      44.667   4.039  11.104  0.00  0.00    +0.000 A 
ATOM     11  C   UNL     1      44.267   3.008  10.247  0.00  0.00    +0.000 A 
ATOM     12  C   UNL     1      44.599   3.054   8.897  0.00  0.00    +0.000 A 
ATOM     13  C   UNL     1      45.332   4.129   8.406  0.00  0.00    +0.000 A 
ATOM     14  C   UNL     1      45.719   5.164   9.264  0.00  0.00    +0.000 A 
ENDBRANCH   7   9
ENDBRANCH   1   2
BRANCH   1  15
ATOM     15  O   UNL     1      48.505   5.790  14.812  0.00  0.00    +0.000 OA
BRANCH  15  19
ATOM     16  C   UNL     1      48.270   5.353  18.890  0.00  0.00    +0.000 A 
ATOM     17  C   UNL     1      48.750   6.569  18.424  0.00  0.00    +0.000 A 
ATOM     18  C   UNL     1      48.854   6.762  17.047  0.00  0.00    +0.000 A 
ATOM     19  C   UNL     1      48.471   5.744  16.177  0.00  0.00    +0.000 A 
ATOM     20  C   UNL     1      48.002   4.559  16.743  0.00  0.00    +0.000 A 
ATOM     21  N   UNL     1      47.894   4.328  18.076  0.00  0.00    +0.000 NA
BRANCH  16  23
ATOM     22  N   UNL     1      47.097   5.742  20.975  0.00  0.00    +0.000 N 
ATOM     23  C   UNL     1      48.153   5.126  20.364  0.00  0.00    +0.000 C 
ATOM     24  O   UNL     1      48.943   4.429  20.990  0.00  0.00    +0.000 OA
ATOM     25  H   UNL     1      46.956   5.624  21.968  0.00  0.00    +0.000 HD
ATOM     26  H   UNL     1      46.455   6.302  20.423  0.00  0.00    +0.000 HD
ENDBRANCH  16  23
ENDBRANCH  15  19
ENDBRANCH   1  15
TORSDOF 5
ENDMDL
MODEL 9
REMARK VINA RESULT:    -6.188      3.390      5.866
REMARK INTER + INTRA:          -8.964
REMARK INTER:                  -8.071
REMARK INTRA:                  -0.893
REMARK UNBOUND:                -0.967
REMARK  Name = 
REMARK  5 active torsions:
REMARK  status: ('A' for Active; 'I' for Inactive)
REMARK    1  A    between atoms: C_2  and  C_4
REMARK    2  A    between atoms: C_7  and  O_8
REMARK    3  A    between atoms: O_8  and  C_9
REMARK    4  A    between atoms: C_9  and  C_10
REMARK    5  A    between atoms: C_15  and  C_16
REMARK                            x       y       z     vdW  Elec       q    Type
REMARK                         _______ _______ _______ _____ _____    ______ ____
ROOT
ATOM      1  C   UNL     1      47.540   7.803  12.074  0.00  0.00    +0.000 C 
ENDROOT
BRANCH   1   2
ATOM      2  C   UNL     1      48.235   7.746  13.415  0.00  0.00    +0.000 A 
ATOM      3  C   UNL     1      48.964   8.854  13.860  0.00  0.00    +0.000 A 
ATOM      4  C   UNL     1      49.561   8.829  15.113  0.00  0.00    +0.000 A 
ATOM      5  F   UNL     1      50.262   9.894  15.525  0.00  0.00    +0.000 F 
ATOM      6  C   UNL     1      49.445   7.722  15.946  0.00  0.00    +0.000 A 
ATOM      7  C   UNL     1      48.727   6.586  15.540  0.00  0.00    +0.000 A 
ATOM      8  C   UNL     1      48.119   6.630  14.266  0.00  0.00    +0.000 A 
BRANCH   7   9
ATOM      9  C   UNL     1      48.631   5.381  16.399  0.00  0.00    +0.000 A 
ATOM     10  C   UNL     1      49.617   5.071  17.354  0.00  0.00    +0.000 A 
ATOM     11  C   UNL     1      49.498   3.960  18.196  0.00  0.00    +0.000 A 
ATOM     12  C   UNL     1      48.396   3.119  18.090  0.00  0.00    +0.000 A 
ATOM     13  C   UNL     1      47.414   3.387  17.141  0.00  0.00    +0.000 A 
ATOM     14  C   UNL     1      47.530   4.507  16.310  0.00  0.00    +0.000 A 
ENDBRANCH   7   9
ENDBRANCH   1   2
BRANCH   1  15
ATOM     15  O   UNL     1      46.118   7.748  12.225  0.00  0.00    +0.000 OA
BRANCH  15  19
ATOM     16  C   UNL     1      44.454   4.098  11.343  0.00  0.00    +0.000 A 
ATOM     17  C   UNL     1      44.270   4.566  12.636  0.00  0.00    +0.000 A 
ATOM     18  C   UNL     1      44.823   5.797  12.985  0.00  0.00    +0.000 A 
ATOM     19  C   UNL     1      45.533   6.529  12.036  0.00  0.00    +0.000 A 
ATOM     20  C   UNL     1      45.663   5.973  10.763  0.00  0.00    +0.000 A 
ATOM     21  N   UNL     1      45.148   4.774  10.387  0.00  0.00    +0.000 NA
BRANCH  16  23
ATOM     22  N   UNL     1      44.468   2.157   9.889  0.00  0.00    +0.000 N 
ATOM     23  C   UNL     1      43.870   2.777  10.950  0.00  0.00    +0.000 C 
ATOM     24  O   UNL     1      42.920   2.274  11.540  0.00  0.00    +0.000 OA
ATOM     25  H   UNL     1      44.127   1.260   9.577  0.00  0.00    +0.000 HD
ATOM     26  H   UNL     1      45.260   2.598   9.432  0.00  0.00    +0.000 HD
ENDBRANCH  16  23
ENDBRANCH  15  19
ENDBRANCH   1  15
TORSDOF 5
ENDMDL
