MODEL 1
REMARK VINA RESULT:    -8.118      0.000      0.000
REMARK INTER + INTRA:         -13.104
REMARK INTER:                 -11.915
REMARK INTRA:                  -1.189
REMARK UNBOUND:                -1.189
REMARK  Name = 
REMARK  8 active torsions:
REMARK  status: ('A' for Active; 'I' for Inactive)
REMARK    1  A    between atoms: C_2  and  C_3
REMARK    2  A    between atoms: C_3  and  N_4
REMARK    3  A    between atoms: C_3  and  C_27
REMARK    4  A    between atoms: C_5  and  C_7
REMARK    5  A    between atoms: C_10  and  C_11
REMARK    6  A    between atoms: C_11  and  N_12
REMARK    7  A    between atoms: C_13  and  C_15
REMARK    8  A    between atoms: C_27  and  C_29
REMARK                            x       y       z     vdW  Elec       q    Type
REMARK                         _______ _______ _______ _____ _____    ______ ____
ROOT
ATOM      1  C   UNL     1      47.002   5.413  13.809  0.00  0.00    +0.000 A 
ATOM      2  C   UNL     1      46.737   4.270  14.573  0.00  0.00    +0.000 A 
ATOM      3  C   UNL     1      47.365   4.081  15.806  0.00  0.00    +0.000 A 
ATOM      4  C   UNL     1      48.271   5.030  16.299  0.00  0.00    +0.000 A 
ATOM      5  C   UNL     1      48.570   6.153  15.510  0.00  0.00    +0.000 A 
ATOM      6  C   UNL     1      47.940   6.345  14.272  0.00  0.00    +0.000 A 
ENDROOT
BRANCH   1   8
ATOM      7  N   UNL     1      45.308   4.732  12.202  0.00  0.00    +0.000 N 
ATOM      8  C   UNL     1      46.332   5.608  12.490  0.00  0.00    +0.000 C 
ATOM      9  O   UNL     1      46.677   6.505  11.730  0.00  0.00    +0.000 OA
ATOM     10  H   UNL     1      44.880   4.190  12.945  0.00  0.00    +0.000 HD
BRANCH   7  11
ATOM     11  C   UNL     1      44.556   4.823  10.952  0.00  0.00    +0.000 C 
BRANCH  11  13
ATOM     12  N   UNL     1      42.032   5.879  11.450  0.00  0.00    +0.000 NA
ATOM     13  C   UNL     1      43.176   5.399  11.224  0.00  0.00    +0.000 C 
ENDBRANCH  11  13
BRANCH  11  14
ATOM     14  C   UNL     1      44.416   3.449  10.311  0.00  0.00    +0.000 C 
ATOM     15  O   UNL     1      43.593   2.629  10.727  0.00  0.00    +0.000 OA
BRANCH  14  16
ATOM     16  C   UNL     1      45.296   3.088   9.147  0.00  0.00    +0.000 A 
ATOM     17  C   UNL     1      45.658   1.769   8.836  0.00  0.00    +0.000 A 
ATOM     18  C   UNL     1      46.460   1.501   7.720  0.00  0.00    +0.000 A 
ATOM     19  C   UNL     1      46.913   2.542   6.912  0.00  0.00    +0.000 A 
ATOM     20  C   UNL     1      46.566   3.856   7.218  0.00  0.00    +0.000 A 
ATOM     21  C   UNL     1      45.761   4.129   8.330  0.00  0.00    +0.000 A 
ENDBRANCH  14  16
ENDBRANCH  11  14
ENDBRANCH   7  11
ENDBRANCH   1   8
BRANCH   4  22
ATOM     22  C   UNL     1      48.946   4.815  17.631  0.00  0.00    +0.000 C 
BRANCH  22  23
ATOM     23  N   UNL     1      50.280   4.296  17.461  0.00  0.00    +0.000 N 
ATOM     24  C   UNL     1      51.178   4.280  18.498  0.00  0.00    +0.000 C 
ATOM     25  O   UNL     1      50.877   4.656  19.627  0.00  0.00    +0.000 OA
ATOM     26  H   UNL     1      50.619   4.207  16.509  0.00  0.00    +0.000 HD
BRANCH  24  27
ATOM     27  C   UNL     1      52.507   3.726  18.203  0.00  0.00    +0.000 A 
ATOM     28  C   UNL     1      53.634   4.522  18.346  0.00  0.00    +0.000 A 
ATOM     29  S   UNL     1      55.096   3.708  18.015  0.00  0.00    +0.000 S 
ATOM     30  C   UNL     1      54.270   2.273  17.616  0.00  0.00    +0.000 A 
ATOM     31  N   UNL     1      54.944   1.167  17.210  0.00  0.00    +0.000 NA
ATOM     32  C   UNL     1      54.190   0.163  16.910  0.00  0.00    +0.000 A 
ATOM     33  N   UNL     1      52.822   0.164  16.989  0.00  0.00    +0.000 N 
ATOM     34  C   UNL     1      52.101   1.244  17.427  0.00  0.00    +0.000 A 
ATOM     35  O   UNL     1      50.878   1.196  17.540  0.00  0.00    +0.000 OA
ATOM     36  C   UNL     1      52.898   2.412  17.757  0.00  0.00    +0.000 A 
ATOM     37  H   UNL     1      52.290  -0.660  16.750  0.00  0.00    +0.000 HD
ENDBRANCH  24  27
ENDBRANCH  22  23
ENDBRANCH   4  22
TORSDOF 8
ENDMDL
MODEL 2
REMARK VINA RESULT:    -7.702      3.245      3.940
REMARK INTER + INTRA:         -12.492
REMARK INTER:                 -11.648
REMARK INTRA:                  -0.844
REMARK UNBOUND:                -1.189
REMARK  Name = 
REMARK  8 active torsions:
REMARK  status: ('A' for Active; 'I' for Inactive)
REMARK    1  A    between atoms: C_2  and  C_3
REMARK    2  A    between atoms: C_3  and  N_4
REMARK    3  A    between atoms: C_3  and  C_27
REMARK    4  A    between atoms: C_5  and  C_7
REMARK    5  A    between atoms: C_10  and  C_11
REMARK    6  A    between atoms: C_11  and  N_12
REMARK    7  A    between atoms: C_13  and  C_15
REMARK    8  A    between atoms: C_27  and  C_29
REMARK                            x       y       z     vdW  Elec       q    Type
REMARK                         _______ _______ _______ _____ _____    ______ ____
ROOT
ATOM      1  C   UNL     1      47.050   6.842  12.269  0.00  0.00    +0.000 A 
ATOM      2  C   UNL     1      48.092   7.638  11.779  0.00  0.00    +0.000 A 
ATOM      3  C   UNL     1      49.243   7.849  12.543  0.00  0.00    +0.000 A 
ATOM      4  C   UNL     1      49.373   7.268  13.811  0.00  0.00    +0.000 A 
ATOM      5  C   UNL     1      48.308   6.508  14.320  0.00  0.00    +0.000 A 
ATOM      6  C   UNL     1      47.153   6.295  13.555  0.00  0.00    +0.000 A 
ENDROOT
BRANCH   1   8
ATOM      7  N   UNL     1      45.555   5.317  11.107  0.00  0.00    +0.000 N 
ATOM      8  C   UNL     1      45.822   6.624  11.452  0.00  0.00    +0.000 C 
ATOM      9  O   UNL     1      45.102   7.560  11.126  0.00  0.00    +0.000 OA
ATOM     10  H   UNL     1      46.007   4.558  11.606  0.00  0.00    +0.000 HD
BRANCH   7  11
ATOM     11  C   UNL     1      44.375   4.960  10.322  0.00  0.00    +0.000 C 
BRANCH  11  13
ATOM     12  N   UNL     1      42.075   5.453  11.809  0.00  0.00    +0.000 NA
ATOM     13  C   UNL     1      43.118   5.229  11.135  0.00  0.00    +0.000 C 
ENDBRANCH  11  13
BRANCH  11  14
ATOM     14  C   UNL     1      44.419   3.491   9.926  0.00  0.00    +0.000 C 
ATOM     15  O   UNL     1      43.737   2.648  10.515  0.00  0.00    +0.000 OA
BRANCH  14  16
ATOM     16  C   UNL     1      45.308   3.062   8.793  0.00  0.00    +0.000 A 
ATOM     17  C   UNL     1      45.770   3.940   7.801  0.00  0.00    +0.000 A 
ATOM     18  C   UNL     1      46.618   3.478   6.788  0.00  0.00    +0.000 A 
ATOM     19  C   UNL     1      47.007   2.140   6.750  0.00  0.00    +0.000 A 
ATOM     20  C   UNL     1      46.546   1.258   7.725  0.00  0.00    +0.000 A 
ATOM     21  C   UNL     1      45.701   1.716   8.742  0.00  0.00    +0.000 A 
ENDBRANCH  14  16
ENDBRANCH  11  14
ENDBRANCH   7  11
ENDBRANCH   1   8
BRANCH   4  22
ATOM     22  C   UNL     1      50.619   7.504  14.629  0.00  0.00    +0.000 C 
BRANCH  22  23
ATOM     23  N   UNL     1      50.317   7.549  16.037  0.00  0.00    +0.000 N 
ATOM     24  C   UNL     1      50.847   6.634  16.911  0.00  0.00    +0.000 C 
ATOM     25  O   UNL     1      51.638   5.769  16.549  0.00  0.00    +0.000 OA
ATOM     26  H   UNL     1      49.502   8.087  16.315  0.00  0.00    +0.000 HD
BRANCH  24  27
ATOM     27  C   UNL     1      50.467   6.782  18.324  0.00  0.00    +0.000 A 
ATOM     28  C   UNL     1      50.808   7.937  19.013  0.00  0.00    +0.000 A 
ATOM     29  S   UNL     1      50.244   7.967  20.623  0.00  0.00    +0.000 S 
ATOM     30  C   UNL     1      49.568   6.412  20.473  0.00  0.00    +0.000 A 
ATOM     31  N   UNL     1      48.943   5.816  21.521  0.00  0.00    +0.000 NA
ATOM     32  C   UNL     1      48.507   4.626  21.275  0.00  0.00    +0.000 A 
ATOM     33  N   UNL     1      48.632   3.982  20.071  0.00  0.00    +0.000 N 
ATOM     34  C   UNL     1      49.223   4.557  18.976  0.00  0.00    +0.000 A 
ATOM     35  O   UNL     1      49.270   3.975  17.894  0.00  0.00    +0.000 OA
ATOM     36  C   UNL     1      49.753   5.889  19.202  0.00  0.00    +0.000 A 
ATOM     37  H   UNL     1      48.258   3.053  19.941  0.00  0.00    +0.000 HD
ENDBRANCH  24  27
ENDBRANCH  22  23
ENDBRANCH   4  22
TORSDOF 8
ENDMDL
MODEL 3
REMARK VINA RESULT:    -7.279      1.686      2.373
REMARK INTER + INTRA:         -11.872
REMARK INTER:                 -10.895
REMARK INTRA:                  -0.977
REMARK UNBOUND:                -1.189
REMARK  Name = 
REMARK  8 active torsions:
REMARK  status: ('A' for Active; 'I' for Inactive)
REMARK    1  A    between atoms: C_2  and  C_3
REMARK    2  A    between atoms: C_3  and  N_4
REMARK    3  A    between atoms: C_3  and  C_27
REMARK    4  A    between atoms: C_5  and  C_7
REMARK    5  A    between atoms: C_10  and  C_11
REMARK    6  A    between atoms: C_11  and  N_12
REMARK    7  A    between atoms: C_13  and  C_15
REMARK    8  A    between atoms: C_27  and  C_29
REMARK                            x       y       z     vdW  Elec       q    Type
REMARK                         _______ _______ _______ _____ _____    ______ ____
ROOT
ATOM      1  C   UNL     1      46.794   7.310  12.884  0.00  0.00    +0.000 A 
ATOM      2  C   UNL     1      47.419   6.301  13.627  0.00  0.00    +0.000 A 
ATOM      3  C   UNL     1      48.420   6.616  14.549  0.00  0.00    +0.000 A 
ATOM      4  C   UNL     1      48.816   7.946  14.746  0.00  0.00    +0.000 A 
ATOM      5  C   UNL     1      48.221   8.951  13.968  0.00  0.00    +0.000 A 
ATOM      6  C   UNL     1      47.215   8.637  13.042  0.00  0.00    +0.000 A 
ENDROOT
BRANCH   1   8
ATOM      7  N   UNL     1      45.587   5.629  11.607  0.00  0.00    +0.000 N 
ATOM      8  C   UNL     1      45.729   6.969  11.897  0.00  0.00    +0.000 C 
ATOM      9  O   UNL     1      45.027   7.838  11.396  0.00  0.00    +0.000 OA
ATOM     10  H   UNL     1      45.989   4.931  12.224  0.00  0.00    +0.000 HD
BRANCH   7  11
ATOM     11  C   UNL     1      44.571   5.155  10.670  0.00  0.00    +0.000 C 
BRANCH  11  13
ATOM     12  N   UNL     1      42.038   5.581  11.738  0.00  0.00    +0.000 NA
ATOM     13  C   UNL     1      43.187   5.388  11.254  0.00  0.00    +0.000 C 
ENDBRANCH  11  13
BRANCH  11  14
ATOM     14  C   UNL     1      44.758   3.672  10.382  0.00  0.00    +0.000 C 
ATOM     15  O   UNL     1      44.336   2.811  11.159  0.00  0.00    +0.000 OA
BRANCH  14  16
ATOM     16  C   UNL     1      45.469   3.251   9.127  0.00  0.00    +0.000 A 
ATOM     17  C   UNL     1      45.921   4.158   8.157  0.00  0.00    +0.000 A 
ATOM     18  C   UNL     1      46.600   3.698   7.022  0.00  0.00    +0.000 A 
ATOM     19  C   UNL     1      46.827   2.336   6.840  0.00  0.00    +0.000 A 
ATOM     20  C   UNL     1      46.374   1.427   7.793  0.00  0.00    +0.000 A 
ATOM     21  C   UNL     1      45.697   1.881   8.931  0.00  0.00    +0.000 A 
ENDBRANCH  14  16
ENDBRANCH  11  14
ENDBRANCH   7  11
ENDBRANCH   1   8
BRANCH   4  22
ATOM     22  C   UNL     1      49.900   8.274  15.743  0.00  0.00    +0.000 C 
BRANCH  22  23
ATOM     23  N   UNL     1      50.682   7.108  16.066  0.00  0.00    +0.000 N 
ATOM     24  C   UNL     1      50.643   6.545  17.316  0.00  0.00    +0.000 C 
ATOM     25  O   UNL     1      49.909   6.973  18.201  0.00  0.00    +0.000 OA
ATOM     26  H   UNL     1      51.454   6.888  15.445  0.00  0.00    +0.000 HD
BRANCH  24  27
ATOM     27  C   UNL     1      51.484   5.357  17.524  0.00  0.00    +0.000 A 
ATOM     28  C   UNL     1      52.821   5.507  17.862  0.00  0.00    +0.000 A 
ATOM     29  S   UNL     1      53.635   4.030  18.118  0.00  0.00    +0.000 S 
ATOM     30  C   UNL     1      52.240   3.133  17.734  0.00  0.00    +0.000 A 
ATOM     31  N   UNL     1      52.259   1.774  17.734  0.00  0.00    +0.000 NA
ATOM     32  C   UNL     1      51.142   1.226  17.392  0.00  0.00    +0.000 A 
ATOM     33  N   UNL     1      50.003   1.913  17.061  0.00  0.00    +0.000 N 
ATOM     34  C   UNL     1      49.926   3.282  17.082  0.00  0.00    +0.000 A 
ATOM     35  O   UNL     1      48.875   3.869  16.833  0.00  0.00    +0.000 OA
ATOM     36  C   UNL     1      51.163   3.953  17.437  0.00  0.00    +0.000 A 
ATOM     37  H   UNL     1      49.156   1.422  16.814  0.00  0.00    +0.000 HD
ENDBRANCH  24  27
ENDBRANCH  22  23
ENDBRANCH   4  22
TORSDOF 8
ENDMDL
MODEL 4
REMARK VINA RESULT:    -6.923      3.305      5.021
REMARK INTER + INTRA:         -11.349
REMARK INTER:                 -10.097
REMARK INTRA:                  -1.253
REMARK UNBOUND:                -1.189
REMARK  Name = 
REMARK  8 active torsions:
REMARK  status: ('A' for Active; 'I' for Inactive)
REMARK    1  A    between atoms: C_2  and  C_3
REMARK    2  A    between atoms: C_3  and  N_4
REMARK    3  A    between atoms: C_3  and  C_27
REMARK    4  A    between atoms: C_5  and  C_7
REMARK    5  A    between atoms: C_10  and  C_11
REMARK    6  A    between atoms: C_11  and  N_12
REMARK    7  A    between atoms: C_13  and  C_15
REMARK    8  A    between atoms: C_27  and  C_29
REMARK                            x       y       z     vdW  Elec       q    Type
REMARK                         _______ _______ _______ _____ _____    ______ ____
ROOT
ATOM      1  C   UNL     1      46.948   5.463  13.744  0.00  0.00    +0.000 A 
ATOM      2  C   UNL     1      46.753   4.288  14.479  0.00  0.00    +0.000 A 
ATOM      3  C   UNL     1      47.442   4.076  15.675  0.00  0.00    +0.000 A 
ATOM      4  C   UNL     1      48.341   5.036  16.159  0.00  0.00    +0.000 A 
ATOM      5  C   UNL     1      48.570   6.193  15.398  0.00  0.00    +0.000 A 
ATOM      6  C   UNL     1      47.878   6.408  14.197  0.00  0.00    +0.000 A 
ENDROOT
BRANCH   1   8
ATOM      7  N   UNL     1      45.349   4.676  12.089  0.00  0.00    +0.000 N 
ATOM      8  C   UNL     1      46.213   5.682  12.464  0.00  0.00    +0.000 C 
ATOM      9  O   UNL     1      46.372   6.704  11.808  0.00  0.00    +0.000 OA
ATOM     10  H   UNL     1      45.045   3.988  12.770  0.00  0.00    +0.000 HD
BRANCH   7  11
ATOM     11  C   UNL     1      44.553   4.770  10.867  0.00  0.00    +0.000 C 
BRANCH  11  13
ATOM     12  N   UNL     1      42.011   5.722  11.473  0.00  0.00    +0.000 NA
ATOM     13  C   UNL     1      43.164   5.291  11.198  0.00  0.00    +0.000 C 
ENDBRANCH  11  13
BRANCH  11  14
ATOM     14  C   UNL     1      44.439   3.408  10.196  0.00  0.00    +0.000 C 
ATOM     15  O   UNL     1      43.647   2.556  10.608  0.00  0.00    +0.000 OA
BRANCH  14  16
ATOM     16  C   UNL     1      45.307   3.099   9.008  0.00  0.00    +0.000 A 
ATOM     17  C   UNL     1      45.750   4.075   8.104  0.00  0.00    +0.000 A 
ATOM     18  C   UNL     1      46.578   3.721   7.033  0.00  0.00    +0.000 A 
ATOM     19  C   UNL     1      46.965   2.395   6.849  0.00  0.00    +0.000 A 
ATOM     20  C   UNL     1      46.523   1.417   7.737  0.00  0.00    +0.000 A 
ATOM     21  C   UNL     1      45.697   1.766   8.812  0.00  0.00    +0.000 A 
ENDBRANCH  14  16
ENDBRANCH  11  14
ENDBRANCH   7  11
ENDBRANCH   1   8
BRANCH   4  22
ATOM     22  C   UNL     1      49.082   4.797  17.451  0.00  0.00    +0.000 C 
BRANCH  22  23
ATOM     23  N   UNL     1      49.021   5.954  18.309  0.00  0.00    +0.000 N 
ATOM     24  C   UNL     1      49.969   6.180  19.274  0.00  0.00    +0.000 C 
ATOM     25  O   UNL     1      50.937   5.441  19.421  0.00  0.00    +0.000 OA
ATOM     26  H   UNL     1      48.128   6.435  18.367  0.00  0.00    +0.000 HD
BRANCH  24  27
ATOM     27  C   UNL     1      49.800   7.394  20.085  0.00  0.00    +0.000 A 
ATOM     28  C   UNL     1      49.614   7.288  21.456  0.00  0.00    +0.000 A 
ATOM     29  S   UNL     1      49.489   8.793  22.250  0.00  0.00    +0.000 S 
ATOM     30  C   UNL     1      49.624   9.641  20.779  0.00  0.00    +0.000 A 
ATOM     31  N   UNL     1      49.565  10.998  20.745  0.00  0.00    +0.000 NA
ATOM     32  C   UNL     1      49.649  11.505  19.561  0.00  0.00    +0.000 A 
ATOM     33  N   UNL     1      49.797  10.778  18.409  0.00  0.00    +0.000 N 
ATOM     34  C   UNL     1      49.897   9.411  18.398  0.00  0.00    +0.000 A 
ATOM     35  O   UNL     1      50.085   8.791  17.353  0.00  0.00    +0.000 OA
ATOM     36  C   UNL     1      49.786   8.784  19.702  0.00  0.00    +0.000 A 
ATOM     37  H   UNL     1      49.868  11.238  17.513  0.00  0.00    +0.000 HD
ENDBRANCH  24  27
ENDBRANCH  22  23
ENDBRANCH   4  22
TORSDOF 8
ENDMDL
MODEL 5
REMARK VINA RESULT:    -6.850      2.814      3.938
REMARK INTER + INTRA:         -11.243
REMARK INTER:                 -10.054
REMARK INTRA:                  -1.189
REMARK UNBOUND:                -1.189
REMARK  Name = 
REMARK  8 active torsions:
REMARK  status: ('A' for Active; 'I' for Inactive)
REMARK    1  A    between atoms: C_2  and  C_3
REMARK    2  A    between atoms: C_3  and  N_4
REMARK    3  A    between atoms: C_3  and  C_27
REMARK    4  A    between atoms: C_5  and  C_7
REMARK    5  A    between atoms: C_10  and  C_11
REMARK    6  A    between atoms: C_11  and  N_12
REMARK    7  A    between atoms: C_13  and  C_15
REMARK    8  A    between atoms: C_27  and  C_29
REMARK                            x       y       z     vdW  Elec       q    Type
REMARK                         _______ _______ _______ _____ _____    ______ ____
ROOT
ATOM      1  C   UNL     1      46.893   7.250  11.965  0.00  0.00    +0.000 A 
ATOM      2  C   UNL     1      47.224   8.608  12.031  0.00  0.00    +0.000 A 
ATOM      3  C   UNL     1      48.524   9.006  12.352  0.00  0.00    +0.000 A 
ATOM      4  C   UNL     1      49.518   8.053  12.613  0.00  0.00    +0.000 A 
ATOM      5  C   UNL     1      49.173   6.693  12.591  0.00  0.00    +0.000 A 
ATOM      6  C   UNL     1      47.868   6.291  12.269  0.00  0.00    +0.000 A 
ENDROOT
BRANCH   1   8
ATOM      7  N   UNL     1      45.277   5.471  11.590  0.00  0.00    +0.000 N 
ATOM      8  C   UNL     1      45.502   6.830  11.627  0.00  0.00    +0.000 C 
ATOM      9  O   UNL     1      44.625   7.657  11.408  0.00  0.00    +0.000 OA
ATOM     10  H   UNL     1      45.936   4.836  12.029  0.00  0.00    +0.000 HD
BRANCH   7  11
ATOM     11  C   UNL     1      43.956   4.924  11.288  0.00  0.00    +0.000 C 
BRANCH  11  13
ATOM     12  N   UNL     1      42.459   4.741  13.626  0.00  0.00    +0.000 NA
ATOM     13  C   UNL     1      43.138   4.825  12.566  0.00  0.00    +0.000 C 
ENDBRANCH  11  13
BRANCH  11  14
ATOM     14  C   UNL     1      44.079   3.545  10.655  0.00  0.00    +0.000 C 
ATOM     15  O   UNL     1      43.456   2.578  11.101  0.00  0.00    +0.000 OA
BRANCH  14  16
ATOM     16  C   UNL     1      44.976   3.361   9.464  0.00  0.00    +0.000 A 
ATOM     17  C   UNL     1      45.453   4.426   8.686  0.00  0.00    +0.000 A 
ATOM     18  C   UNL     1      46.307   4.184   7.604  0.00  0.00    +0.000 A 
ATOM     19  C   UNL     1      46.687   2.883   7.283  0.00  0.00    +0.000 A 
ATOM     20  C   UNL     1      46.213   1.817   8.044  0.00  0.00    +0.000 A 
ATOM     21  C   UNL     1      45.361   2.053   9.129  0.00  0.00    +0.000 A 
ENDBRANCH  14  16
ENDBRANCH  11  14
ENDBRANCH   7  11
ENDBRANCH   1   8
BRANCH   4  22
ATOM     22  C   UNL     1      50.919   8.494  12.961  0.00  0.00    +0.000 C 
BRANCH  22  23
ATOM     23  N   UNL     1      51.358   7.903  14.200  0.00  0.00    +0.000 N 
ATOM     24  C   UNL     1      51.175   8.541  15.400  0.00  0.00    +0.000 C 
ATOM     25  O   UNL     1      50.588   9.615  15.485  0.00  0.00    +0.000 OA
ATOM     26  H   UNL     1      52.039   7.154  14.134  0.00  0.00    +0.000 HD
BRANCH  24  27
ATOM     27  C   UNL     1      51.665   7.838  16.595  0.00  0.00    +0.000 A 
ATOM     28  C   UNL     1      52.757   8.336  17.290  0.00  0.00    +0.000 A 
ATOM     29  S   UNL     1      53.158   7.430  18.679  0.00  0.00    +0.000 S 
ATOM     30  C   UNL     1      51.917   6.307  18.371  0.00  0.00    +0.000 A 
ATOM     31  N   UNL     1      51.723   5.236  19.184  0.00  0.00    +0.000 NA
ATOM     32  C   UNL     1      50.768   4.451  18.814  0.00  0.00    +0.000 A 
ATOM     33  N   UNL     1      49.983   4.645  17.708  0.00  0.00    +0.000 N 
ATOM     34  C   UNL     1      50.117   5.728  16.879  0.00  0.00    +0.000 A 
ATOM     35  O   UNL     1      49.361   5.904  15.925  0.00  0.00    +0.000 OA
ATOM     36  C   UNL     1      51.193   6.635  17.235  0.00  0.00    +0.000 A 
ATOM     37  H   UNL     1      49.243   3.997  17.479  0.00  0.00    +0.000 HD
ENDBRANCH  24  27
ENDBRANCH  22  23
ENDBRANCH   4  22
TORSDOF 8
ENDMDL
MODEL 6
REMARK VINA RESULT:    -6.839      3.897      9.608
REMARK INTER + INTRA:         -11.226
REMARK INTER:                  -9.735
REMARK INTRA:                  -1.491
REMARK UNBOUND:                -1.189
REMARK  Name = 
REMARK  8 active torsions:
REMARK  status: ('A' for Active; 'I' for Inactive)
REMARK    1  A    between atoms: C_2  and  C_3
REMARK    2  A    between atoms: C_3  and  N_4
REMARK    3  A    between atoms: C_3  and  C_27
REMARK    4  A    between atoms: C_5  and  C_7
REMARK    5  A    between atoms: C_10  and  C_11
REMARK    6  A    between atoms: C_11  and  N_12
REMARK    7  A    between atoms: C_13  and  C_15
REMARK    8  A    between atoms: C_27  and  C_29
REMARK                            x       y       z     vdW  Elec       q    Type
REMARK                         _______ _______ _______ _____ _____    ______ ____
ROOT
ATOM      1  C   UNL     1      48.775   7.850  16.115  0.00  0.00    +0.000 A 
ATOM      2  C   UNL     1      49.045   6.760  15.278  0.00  0.00    +0.000 A 
ATOM      3  C   UNL     1      48.910   6.878  13.893  0.00  0.00    +0.000 A 
ATOM      4  C   UNL     1      48.501   8.089  13.318  0.00  0.00    +0.000 A 
ATOM      5  C   UNL     1      48.187   9.167  14.161  0.00  0.00    +0.000 A 
ATOM      6  C   UNL     1      48.323   9.050  15.552  0.00  0.00    +0.000 A 
ENDROOT
BRANCH   1   8
ATOM      7  N   UNL     1      49.865   6.814  18.027  0.00  0.00    +0.000 N 
ATOM      8  C   UNL     1      48.918   7.717  17.594  0.00  0.00    +0.000 C 
ATOM      9  O   UNL     1      48.234   8.385  18.359  0.00  0.00    +0.000 OA
ATOM     10  H   UNL     1      50.582   6.486  17.388  0.00  0.00    +0.000 HD
BRANCH   7  11
ATOM     11  C   UNL     1      50.119   6.599  19.449  0.00  0.00    +0.000 C 
BRANCH  11  13
ATOM     12  N   UNL     1      52.789   7.133  20.019  0.00  0.00    +0.000 NA
ATOM     13  C   UNL     1      51.578   6.892  19.761  0.00  0.00    +0.000 C 
ENDBRANCH  11  13
BRANCH  11  14
ATOM     14  C   UNL     1      49.794   5.163  19.840  0.00  0.00    +0.000 C 
ATOM     15  O   UNL     1      49.863   4.788  21.013  0.00  0.00    +0.000 OA
BRANCH  14  16
ATOM     16  C   UNL     1      49.380   4.188  18.774  0.00  0.00    +0.000 A 
ATOM     17  C   UNL     1      48.047   3.999  18.380  0.00  0.00    +0.000 A 
ATOM     18  C   UNL     1      47.735   3.091  17.361  0.00  0.00    +0.000 A 
ATOM     19  C   UNL     1      48.742   2.361  16.734  0.00  0.00    +0.000 A 
ATOM     20  C   UNL     1      50.067   2.534  17.125  0.00  0.00    +0.000 A 
ATOM     21  C   UNL     1      50.386   3.443  18.141  0.00  0.00    +0.000 A 
ENDBRANCH  14  16
ENDBRANCH  11  14
ENDBRANCH   7  11
ENDBRANCH   1   8
BRANCH   4  22
ATOM     22  C   UNL     1      48.355   8.206  11.821  0.00  0.00    +0.000 C 
BRANCH  22  23
ATOM     23  N   UNL     1      47.646   7.075  11.276  0.00  0.00    +0.000 N 
ATOM     24  C   UNL     1      46.280   6.983  11.354  0.00  0.00    +0.000 C 
ATOM     25  O   UNL     1      45.593   7.876  11.842  0.00  0.00    +0.000 OA
ATOM     26  H   UNL     1      48.191   6.239  11.091  0.00  0.00    +0.000 HD
BRANCH  24  27
ATOM     27  C   UNL     1      45.671   5.783  10.762  0.00  0.00    +0.000 A 
ATOM     28  C   UNL     1      45.811   5.536   9.404  0.00  0.00    +0.000 A 
ATOM     29  S   UNL     1      45.089   4.076   8.894  0.00  0.00    +0.000 S 
ATOM     30  C   UNL     1      44.516   3.749  10.464  0.00  0.00    +0.000 A 
ATOM     31  N   UNL     1      43.778   2.638  10.722  0.00  0.00    +0.000 NA
ATOM     32  C   UNL     1      43.384   2.532  11.946  0.00  0.00    +0.000 A 
ATOM     33  N   UNL     1      43.670   3.434  12.938  0.00  0.00    +0.000 N 
ATOM     34  C   UNL     1      44.440   4.549  12.734  0.00  0.00    +0.000 A 
ATOM     35  O   UNL     1      44.725   5.310  13.656  0.00  0.00    +0.000 OA
ATOM     36  C   UNL     1      44.892   4.731  11.366  0.00  0.00    +0.000 A 
ATOM     37  H   UNL     1      43.339   3.286  13.881  0.00  0.00    +0.000 HD
ENDBRANCH  24  27
ENDBRANCH  22  23
ENDBRANCH   4  22
TORSDOF 8
ENDMDL
MODEL 7
REMARK VINA RESULT:    -6.742      3.411     10.002
REMARK INTER + INTRA:         -11.084
REMARK INTER:                  -9.705
REMARK INTRA:                  -1.379
REMARK UNBOUND:                -1.189
REMARK  Name = 
REMARK  8 active torsions:
REMARK  status: ('A' for Active; 'I' for Inactive)
REMARK    1  A    between atoms: C_2  and  C_3
REMARK    2  A    between atoms: C_3  and  N_4
REMARK    3  A    between atoms: C_3  and  C_27
REMARK    4  A    between atoms: C_5  and  C_7
REMARK    5  A    between atoms: C_10  and  C_11
REMARK    6  A    between atoms: C_11  and  N_12
REMARK    7  A    between atoms: C_13  and  C_15
REMARK    8  A    between atoms: C_27  and  C_29
REMARK                            x       y       z     vdW  Elec       q    Type
REMARK                         _______ _______ _______ _____ _____    ______ ____
ROOT
ATOM      1  C   UNL     1      50.616   7.519  15.014  0.00  0.00    +0.000 A 
ATOM      2  C   UNL     1      49.348   6.942  15.149  0.00  0.00    +0.000 A 
ATOM      3  C   UNL     1      48.402   7.062  14.128  0.00  0.00    +0.000 A 
ATOM      4  C   UNL     1      48.706   7.762  12.952  0.00  0.00    +0.000 A 
ATOM      5  C   UNL     1      49.962   8.378  12.838  0.00  0.00    +0.000 A 
ATOM      6  C   UNL     1      50.913   8.259  13.861  0.00  0.00    +0.000 A 
ENDROOT
BRANCH   1   8
ATOM      7  N   UNL     1      51.813   6.120  16.603  0.00  0.00    +0.000 N 
ATOM      8  C   UNL     1      51.621   7.392  16.109  0.00  0.00    +0.000 C 
ATOM      9  O   UNL     1      52.236   8.368  16.522  0.00  0.00    +0.000 OA
ATOM     10  H   UNL     1      51.497   5.316  16.070  0.00  0.00    +0.000 HD
BRANCH   7  11
ATOM     11  C   UNL     1      52.780   5.852  17.665  0.00  0.00    +0.000 C 
BRANCH  11  13
ATOM     12  N   UNL     1      55.206   5.068  16.551  0.00  0.00    +0.000 NA
ATOM     13  C   UNL     1      54.106   5.424  17.055  0.00  0.00    +0.000 C 
ENDBRANCH  11  13
BRANCH  11  14
ATOM     14  C   UNL     1      52.269   4.756  18.590  0.00  0.00    +0.000 C 
ATOM     15  O   UNL     1      52.926   4.386  19.567  0.00  0.00    +0.000 OA
BRANCH  14  16
ATOM     16  C   UNL     1      50.938   4.117  18.308  0.00  0.00    +0.000 A 
ATOM     17  C   UNL     1      50.776   3.026  17.443  0.00  0.00    +0.000 A 
ATOM     18  C   UNL     1      49.510   2.462  17.246  0.00  0.00    +0.000 A 
ATOM     19  C   UNL     1      48.397   2.984  17.901  0.00  0.00    +0.000 A 
ATOM     20  C   UNL     1      48.546   4.073  18.756  0.00  0.00    +0.000 A 
ATOM     21  C   UNL     1      49.810   4.639  18.959  0.00  0.00    +0.000 A 
ENDBRANCH  14  16
ENDBRANCH  11  14
ENDBRANCH   7  11
ENDBRANCH   1   8
BRANCH   4  22
ATOM     22  C   UNL     1      47.676   7.887  11.857  0.00  0.00    +0.000 C 
BRANCH  22  23
ATOM     23  N   UNL     1      46.958   6.651  11.673  0.00  0.00    +0.000 N 
ATOM     24  C   UNL     1      45.594   6.592  11.797  0.00  0.00    +0.000 C 
ATOM     25  O   UNL     1      44.916   7.590  12.019  0.00  0.00    +0.000 OA
ATOM     26  H   UNL     1      47.500   5.794  11.726  0.00  0.00    +0.000 HD
BRANCH  24  27
ATOM     27  C   UNL     1      44.975   5.275  11.585  0.00  0.00    +0.000 A 
ATOM     28  C   UNL     1      44.277   4.666  12.618  0.00  0.00    +0.000 A 
ATOM     29  S   UNL     1      43.580   3.170  12.186  0.00  0.00    +0.000 S 
ATOM     30  C   UNL     1      44.231   3.258  10.616  0.00  0.00    +0.000 A 
ATOM     31  N   UNL     1      44.030   2.259   9.718  0.00  0.00    +0.000 NA
ATOM     32  C   UNL     1      44.607   2.443   8.578  0.00  0.00    +0.000 A 
ATOM     33  N   UNL     1      45.359   3.541   8.252  0.00  0.00    +0.000 N 
ATOM     34  C   UNL     1      45.560   4.590   9.112  0.00  0.00    +0.000 A 
ATOM     35  O   UNL     1      46.194   5.586   8.772  0.00  0.00    +0.000 OA
ATOM     36  C   UNL     1      44.951   4.426  10.420  0.00  0.00    +0.000 A 
ATOM     37  H   UNL     1      45.776   3.630   7.337  0.00  0.00    +0.000 HD
ENDBRANCH  24  27
ENDBRANCH  22  23
ENDBRANCH   4  22
TORSDOF 8
ENDMDL
MODEL 8
REMARK VINA RESULT:    -6.643      5.153      6.980
REMARK INTER + INTRA:         -10.939
REMARK INTER:                  -9.629
REMARK INTRA:                  -1.309
REMARK UNBOUND:                -1.189
REMARK  Name = 
REMARK  8 active torsions:
REMARK  status: ('A' for Active; 'I' for Inactive)
REMARK    1  A    between atoms: C_2  and  C_3
REMARK    2  A    between atoms: C_3  and  N_4
REMARK    3  A    between atoms: C_3  and  C_27
REMARK    4  A    between atoms: C_5  and  C_7
REMARK    5  A    between atoms: C_10  and  C_11
REMARK    6  A    between atoms: C_11  and  N_12
REMARK    7  A    between atoms: C_13  and  C_15
REMARK    8  A    between atoms: C_27  and  C_29
REMARK                            x       y       z     vdW  Elec       q    Type
REMARK                         _______ _______ _______ _____ _____    ______ ____
ROOT
ATOM      1  C   UNL     1      44.940   9.112  11.743  0.00  0.00    +0.000 A 
ATOM      2  C   UNL     1      45.937   8.956  12.714  0.00  0.00    +0.000 A 
ATOM      3  C   UNL     1      46.279   7.684  13.180  0.00  0.00    +0.000 A 
ATOM      4  C   UNL     1      45.631   6.545  12.685  0.00  0.00    +0.000 A 
ATOM      5  C   UNL     1      44.601   6.707  11.745  0.00  0.00    +0.000 A 
ATOM      6  C   UNL     1      44.256   7.983  11.276  0.00  0.00    +0.000 A 
ENDROOT
BRANCH   1   8
ATOM      7  N   UNL     1      43.987  10.524  10.007  0.00  0.00    +0.000 N 
ATOM      8  C   UNL     1      44.575  10.473  11.252  0.00  0.00    +0.000 C 
ATOM      9  O   UNL     1      44.784  11.470  11.933  0.00  0.00    +0.000 OA
ATOM     10  H   UNL     1      43.592   9.683   9.598  0.00  0.00    +0.000 HD
BRANCH   7  11
ATOM     11  C   UNL     1      43.565  11.791   9.414  0.00  0.00    +0.000 C 
BRANCH  11  13
ATOM     12  N   UNL     1      40.788  11.960   9.438  0.00  0.00    +0.000 NA
ATOM     13  C   UNL     1      42.048  11.883   9.428  0.00  0.00    +0.000 C 
ENDBRANCH  11  13
BRANCH  11  14
ATOM     14  C   UNL     1      44.068  11.906   7.982  0.00  0.00    +0.000 C 
ATOM     15  O   UNL     1      43.298  11.804   7.023  0.00  0.00    +0.000 OA
BRANCH  14  16
ATOM     16  C   UNL     1      45.530  12.150   7.734  0.00  0.00    +0.000 A 
ATOM     17  C   UNL     1      46.430  12.523   8.742  0.00  0.00    +0.000 A 
ATOM     18  C   UNL     1      47.786  12.709   8.446  0.00  0.00    +0.000 A 
ATOM     19  C   UNL     1      48.253  12.534   7.145  0.00  0.00    +0.000 A 
ATOM     20  C   UNL     1      47.365  12.173   6.134  0.00  0.00    +0.000 A 
ATOM     21  C   UNL     1      46.009  11.982   6.426  0.00  0.00    +0.000 A 
ENDBRANCH  14  16
ENDBRANCH  11  14
ENDBRANCH   7  11
ENDBRANCH   1   8
BRANCH   4  22
ATOM     22  C   UNL     1      46.007   5.176  13.197  0.00  0.00    +0.000 C 
BRANCH  22  23
ATOM     23  N   UNL     1      46.642   5.259  14.487  0.00  0.00    +0.000 N 
ATOM     24  C   UNL     1      47.285   4.180  15.038  0.00  0.00    +0.000 C 
ATOM     25  O   UNL     1      47.394   3.113  14.443  0.00  0.00    +0.000 OA
ATOM     26  H   UNL     1      46.367   6.032  15.085  0.00  0.00    +0.000 HD
BRANCH  24  27
ATOM     27  C   UNL     1      47.897   4.387  16.359  0.00  0.00    +0.000 A 
ATOM     28  C   UNL     1      47.545   3.565  17.420  0.00  0.00    +0.000 A 
ATOM     29  S   UNL     1      48.386   3.910  18.863  0.00  0.00    +0.000 S 
ATOM     30  C   UNL     1      49.213   5.208  18.136  0.00  0.00    +0.000 A 
ATOM     31  N   UNL     1      50.090   5.965  18.845  0.00  0.00    +0.000 NA
ATOM     32  C   UNL     1      50.619   6.934  18.176  0.00  0.00    +0.000 A 
ATOM     33  N   UNL     1      50.358   7.207  16.859  0.00  0.00    +0.000 N 
ATOM     34  C   UNL     1      49.509   6.450  16.094  0.00  0.00    +0.000 A 
ATOM     35  O   UNL     1      49.338   6.688  14.900  0.00  0.00    +0.000 OA
ATOM     36  C   UNL     1      48.866   5.358  16.802  0.00  0.00    +0.000 A 
ATOM     37  H   UNL     1      50.816   7.976  16.390  0.00  0.00    +0.000 HD
ENDBRANCH  24  27
ENDBRANCH  22  23
ENDBRANCH   4  22
TORSDOF 8
ENDMDL
MODEL 9
REMARK VINA RESULT:    -6.588      4.053     10.527
REMARK INTER + INTRA:         -10.858
REMARK INTER:                 -10.057
REMARK INTRA:                  -0.801
REMARK UNBOUND:                -1.189
REMARK  Name = 
REMARK  8 active torsions:
REMARK  status: ('A' for Active; 'I' for Inactive)
REMARK    1  A    between atoms: C_2  and  C_3
REMARK    2  A    between atoms: C_3  and  N_4
REMARK    3  A    between atoms: C_3  and  C_27
REMARK    4  A    between atoms: C_5  and  C_7
REMARK    5  A    between atoms: C_10  and  C_11
REMARK    6  A    between atoms: C_11  and  N_12
REMARK    7  A    between atoms: C_13  and  C_15
REMARK    8  A    between atoms: C_27  and  C_29
REMARK                            x       y       z     vdW  Elec       q    Type
REMARK                         _______ _______ _______ _____ _____    ______ ____
ROOT
ATOM      1  C   UNL     1      47.350   5.896  13.630  0.00  0.00    +0.000 A 
ATOM      2  C   UNL     1      46.495   4.787  13.626  0.00  0.00    +0.000 A 
ATOM      3  C   UNL     1      45.698   4.510  12.513  0.00  0.00    +0.000 A 
ATOM      4  C   UNL     1      45.740   5.337  11.382  0.00  0.00    +0.000 A 
ATOM      5  C   UNL     1      46.564   6.473  11.405  0.00  0.00    +0.000 A 
ATOM      6  C   UNL     1      47.365   6.753  12.521  0.00  0.00    +0.000 A 
ENDROOT
BRANCH   1   8
ATOM      7  N   UNL     1      47.744   5.678  16.020  0.00  0.00    +0.000 N 
ATOM      8  C   UNL     1      48.196   6.190  14.823  0.00  0.00    +0.000 C 
ATOM      9  O   UNL     1      49.230   6.839  14.722  0.00  0.00    +0.000 OA
ATOM     10  H   UNL     1      47.051   4.937  16.025  0.00  0.00    +0.000 HD
BRANCH   7  11
ATOM     11  C   UNL     1      48.486   5.877  17.263  0.00  0.00    +0.000 C 
BRANCH  11  13
ATOM     12  N   UNL     1      50.493   3.963  17.475  0.00  0.00    +0.000 NA
ATOM     13  C   UNL     1      49.584   4.831  17.379  0.00  0.00    +0.000 C 
ENDBRANCH  11  13
BRANCH  11  14
ATOM     14  C   UNL     1      47.556   5.772  18.464  0.00  0.00    +0.000 C 
ATOM     15  O   UNL     1      46.862   4.769  18.651  0.00  0.00    +0.000 OA
BRANCH  14  16
ATOM     16  C   UNL     1      47.485   6.913  19.440  0.00  0.00    +0.000 A 
ATOM     17  C   UNL     1      47.636   6.752  20.825  0.00  0.00    +0.000 A 
ATOM     18  C   UNL     1      47.585   7.862  21.675  0.00  0.00    +0.000 A 
ATOM     19  C   UNL     1      47.377   9.138  21.156  0.00  0.00    +0.000 A 
ATOM     20  C   UNL     1      47.217   9.308  19.783  0.00  0.00    +0.000 A 
ATOM     21  C   UNL     1      47.271   8.201  18.927  0.00  0.00    +0.000 A 
ENDBRANCH  14  16
ENDBRANCH  11  14
ENDBRANCH   7  11
ENDBRANCH   1   8
BRANCH   4  22
ATOM     22  C   UNL     1      44.874   5.030  10.186  0.00  0.00    +0.000 C 
BRANCH  22  23
ATOM     23  N   UNL     1      45.501   4.061   9.323  0.00  0.00    +0.000 N 
ATOM     24  C   UNL     1      45.030   2.777   9.227  0.00  0.00    +0.000 C 
ATOM     25  O   UNL     1      44.028   2.404   9.829  0.00  0.00    +0.000 OA
ATOM     26  H   UNL     1      46.445   4.269   9.011  0.00  0.00    +0.000 HD
BRANCH  24  27
ATOM     27  C   UNL     1      45.753   1.881   8.313  0.00  0.00    +0.000 A 
ATOM     28  C   UNL     1      45.798   0.519   8.572  0.00  0.00    +0.000 A 
ATOM     29  S   UNL     1      46.632  -0.379   7.385  0.00  0.00    +0.000 S 
ATOM     30  C   UNL     1      47.009   1.030   6.507  0.00  0.00    +0.000 A 
ATOM     31  N   UNL     1      47.747   0.969   5.369  0.00  0.00    +0.000 NA
ATOM     32  C   UNL     1      47.984   2.116   4.825  0.00  0.00    +0.000 A 
ATOM     33  N   UNL     1      47.541   3.317   5.312  0.00  0.00    +0.000 N 
ATOM     34  C   UNL     1      46.764   3.425   6.436  0.00  0.00    +0.000 A 
ATOM     35  O   UNL     1      46.335   4.512   6.818  0.00  0.00    +0.000 OA
ATOM     36  C   UNL     1      46.485   2.166   7.103  0.00  0.00    +0.000 A 
ATOM     37  H   UNL     1      47.752   4.180   4.832  0.00  0.00    +0.000 HD
ENDBRANCH  24  27
ENDBRANCH  22  23
ENDBRANCH   4  22
TORSDOF 8
ENDMDL
