MODEL 1
REMARK VINA RESULT:    -8.426      0.000      0.000
REMARK INTER + INTRA:         -13.155
REMARK INTER:                 -12.614
REMARK INTRA:                  -0.541
REMARK UNBOUND:                -0.541
REMARK  Name = 
REMARK  9 active torsions:
REMARK  status: ('A' for Active; 'I' for Inactive)
REMARK    1  A    between atoms: N_1  and  C_2
REMARK    2  A    between atoms: C_2  and  C_3
REMARK    3  A    between atoms: C_2  and  C_19
REMARK    4  A    between atoms: C_3  and  C_4
REMARK    5  A    between atoms: C_7  and  C_8
REMARK    6  A    between atoms: C_8  and  N_9
REMARK    7  A    between atoms: N_9  and  C_10
REMARK    8  A    between atoms: C_10  and  C_11
REMARK    9  A    between atoms: C_19  and  C_21
REMARK                            x       y       z     vdW  Elec       q    Type
REMARK                         _______ _______ _______ _____ _____    ______ ____
ROOT
ATOM      1  C   UNL     1      47.691   4.282  16.088  0.00  0.00    +0.000 C 
ENDROOT
BRANCH   1   2
ATOM      2  N   UNL     1      46.300   3.972  16.506  0.00  0.00    +0.000 NA
ATOM      3  H   UNL     1      46.137   4.365  17.431  0.00  0.00    +0.000 HD
ATOM      4  H   UNL     1      46.233   2.955  16.609  0.00  0.00    +0.000 HD
ENDBRANCH   1   2
BRANCH   1   5
ATOM      5  C   UNL     1      48.500   4.828  17.278  0.00  0.00    +0.000 C 
ATOM      6  O   UNL     1      47.929   5.523  18.128  0.00  0.00    +0.000 OA
BRANCH   5   7
ATOM      7  C   UNL     1      49.940   4.521  17.448  0.00  0.00    +0.000 A 
ATOM      8  C   UNL     1      50.802   5.548  17.816  0.00  0.00    +0.000 A 
ATOM      9  S   UNL     1      52.396   5.035  18.127  0.00  0.00    +0.000 S 
ATOM     10  C   UNL     1      51.995   3.420  17.784  0.00  0.00    +0.000 A 
ATOM     11  N   UNL     1      52.911   2.427  17.948  0.00  0.00    +0.000 NA
ATOM     12  C   UNL     1      52.452   1.238  17.742  0.00  0.00    +0.000 A 
ATOM     13  N   UNL     1      51.175   0.958  17.338  0.00  0.00    +0.000 N 
ATOM     14  C   UNL     1      50.313   1.943  16.929  0.00  0.00    +0.000 A 
ATOM     15  O   UNL     1      49.364   1.672  16.204  0.00  0.00    +0.000 OA
ATOM     16  C   UNL     1      50.686   3.284  17.347  0.00  0.00    +0.000 A 
ATOM     17  H   UNL     1      50.919   0.017  17.079  0.00  0.00    +0.000 HD
ENDBRANCH   5   7
ENDBRANCH   1   5
BRANCH   1  18
ATOM     18  C   UNL     1      47.769   5.249  14.887  0.00  0.00    +0.000 C 
BRANCH  18  19
ATOM     19  C   UNL     1      46.728   5.054  13.807  0.00  0.00    +0.000 A 
ATOM     20  C   UNL     1      46.435   3.775  13.319  0.00  0.00    +0.000 A 
ATOM     21  C   UNL     1      45.457   3.600  12.340  0.00  0.00    +0.000 A 
ATOM     22  C   UNL     1      44.754   4.700  11.827  0.00  0.00    +0.000 A 
ATOM     23  C   UNL     1      45.055   5.979  12.308  0.00  0.00    +0.000 A 
ATOM     24  C   UNL     1      46.030   6.152  13.292  0.00  0.00    +0.000 A 
BRANCH  22  25
ATOM     25  C   UNL     1      43.682   4.502  10.784  0.00  0.00    +0.000 C 
BRANCH  25  26
ATOM     26  N   UNL     1      44.103   3.490   9.821  0.00  0.00    +0.000 NA
ATOM     27  H   UNL     1      43.283   2.971   9.506  0.00  0.00    +0.000 HD
BRANCH  26  28
ATOM     28  C   UNL     1      44.785   4.069   8.671  0.00  0.00    +0.000 C 
BRANCH  28  29
ATOM     29  C   UNL     1      45.719   3.061   8.062  0.00  0.00    +0.000 A 
ATOM     30  C   UNL     1      46.602   3.412   7.029  0.00  0.00    +0.000 A 
ATOM     31  C   UNL     1      47.469   2.459   6.507  0.00  0.00    +0.000 A 
ATOM     32  C   UNL     1      47.422   1.177   7.028  0.00  0.00    +0.000 A 
ATOM     33  N   UNL     1      46.581   0.794   8.013  0.00  0.00    +0.000 NA
ATOM     34  C   UNL     1      45.754   1.743   8.504  0.00  0.00    +0.000 A 
ENDBRANCH  28  29
ENDBRANCH  26  28
ENDBRANCH  25  26
ENDBRANCH  22  25
ENDBRANCH  18  19
ENDBRANCH   1  18
TORSDOF 9
ENDMDL
MODEL 2
REMARK VINA RESULT:    -8.156      2.193      2.965
REMARK INTER + INTRA:         -12.750
REMARK INTER:                 -11.563
REMARK INTRA:                  -1.187
REMARK UNBOUND:                -0.541
REMARK  Name = 
REMARK  9 active torsions:
REMARK  status: ('A' for Active; 'I' for Inactive)
REMARK    1  A    between atoms: N_1  and  C_2
REMARK    2  A    between atoms: C_2  and  C_3
REMARK    3  A    between atoms: C_2  and  C_19
REMARK    4  A    between atoms: C_3  and  C_4
REMARK    5  A    between atoms: C_7  and  C_8
REMARK    6  A    between atoms: C_8  and  N_9
REMARK    7  A    between atoms: N_9  and  C_10
REMARK    8  A    between atoms: C_10  and  C_11
REMARK    9  A    between atoms: C_19  and  C_21
REMARK                            x       y       z     vdW  Elec       q    Type
REMARK                         _______ _______ _______ _____ _____    ______ ____
ROOT
ATOM      1  C   UNL     1      48.573   7.555  13.396  0.00  0.00    +0.000 C 
ENDROOT
BRANCH   1   2
ATOM      2  N   UNL     1      48.874   6.154  13.004  0.00  0.00    +0.000 NA
ATOM      3  H   UNL     1      49.056   6.122  12.003  0.00  0.00    +0.000 HD
ATOM      4  H   UNL     1      48.024   5.605  13.160  0.00  0.00    +0.000 HD
ENDBRANCH   1   2
BRANCH   1   5
ATOM      5  C   UNL     1      48.446   7.668  14.925  0.00  0.00    +0.000 C 
ATOM      6  O   UNL     1      47.851   8.637  15.412  0.00  0.00    +0.000 OA
BRANCH   5   7
ATOM      7  C   UNL     1      48.994   6.631  15.832  0.00  0.00    +0.000 A 
ATOM      8  C   UNL     1      50.191   6.887  16.491  0.00  0.00    +0.000 A 
ATOM      9  S   UNL     1      50.632   5.686  17.615  0.00  0.00    +0.000 S 
ATOM     10  C   UNL     1      49.238   4.779  17.266  0.00  0.00    +0.000 A 
ATOM     11  N   UNL     1      48.955   3.645  17.964  0.00  0.00    +0.000 NA
ATOM     12  C   UNL     1      47.823   3.102  17.662  0.00  0.00    +0.000 A 
ATOM     13  N   UNL     1      46.974   3.563  16.693  0.00  0.00    +0.000 N 
ATOM     14  C   UNL     1      47.346   4.548  15.814  0.00  0.00    +0.000 A 
ATOM     15  O   UNL     1      46.777   4.661  14.735  0.00  0.00    +0.000 OA
ATOM     16  C   UNL     1      48.492   5.335  16.239  0.00  0.00    +0.000 A 
ATOM     17  H   UNL     1      46.165   3.022  16.427  0.00  0.00    +0.000 HD
ENDBRANCH   5   7
ENDBRANCH   1   5
BRANCH   1  18
ATOM     18  C   UNL     1      47.320   8.129  12.701  0.00  0.00    +0.000 C 
BRANCH  18  19
ATOM     19  C   UNL     1      46.332   7.116  12.166  0.00  0.00    +0.000 A 
ATOM     20  C   UNL     1      46.525   6.521  10.914  0.00  0.00    +0.000 A 
ATOM     21  C   UNL     1      45.623   5.569  10.439  0.00  0.00    +0.000 A 
ATOM     22  C   UNL     1      44.507   5.197  11.203  0.00  0.00    +0.000 A 
ATOM     23  C   UNL     1      44.310   5.800  12.450  0.00  0.00    +0.000 A 
ATOM     24  C   UNL     1      45.216   6.747  12.928  0.00  0.00    +0.000 A 
BRANCH  22  25
ATOM     25  C   UNL     1      43.547   4.151  10.692  0.00  0.00    +0.000 C 
BRANCH  25  26
ATOM     26  N   UNL     1      43.962   3.695   9.370  0.00  0.00    +0.000 NA
ATOM     27  H   UNL     1      44.576   4.397   8.955  0.00  0.00    +0.000 HD
BRANCH  26  28
ATOM     28  C   UNL     1      44.650   2.412   9.417  0.00  0.00    +0.000 C 
BRANCH  28  29
ATOM     29  C   UNL     1      45.673   2.333   8.318  0.00  0.00    +0.000 A 
ATOM     30  C   UNL     1      45.946   3.434   7.492  0.00  0.00    +0.000 A 
ATOM     31  C   UNL     1      46.916   3.331   6.501  0.00  0.00    +0.000 A 
ATOM     32  C   UNL     1      47.580   2.125   6.359  0.00  0.00    +0.000 A 
ATOM     33  N   UNL     1      47.341   1.038   7.124  0.00  0.00    +0.000 NA
ATOM     34  C   UNL     1      46.397   1.169   8.081  0.00  0.00    +0.000 A 
ENDBRANCH  28  29
ENDBRANCH  26  28
ENDBRANCH  25  26
ENDBRANCH  22  25
ENDBRANCH  18  19
ENDBRANCH   1  18
TORSDOF 9
ENDMDL
MODEL 3
REMARK VINA RESULT:    -8.077      1.468      2.295
REMARK INTER + INTRA:         -12.632
REMARK INTER:                 -11.540
REMARK INTRA:                  -1.091
REMARK UNBOUND:                -0.541
REMARK  Name = 
REMARK  9 active torsions:
REMARK  status: ('A' for Active; 'I' for Inactive)
REMARK    1  A    between atoms: N_1  and  C_2
REMARK    2  A    between atoms: C_2  and  C_3
REMARK    3  A    between atoms: C_2  and  C_19
REMARK    4  A    between atoms: C_3  and  C_4
REMARK    5  A    between atoms: C_7  and  C_8
REMARK    6  A    between atoms: C_8  and  N_9
REMARK    7  A    between atoms: N_9  and  C_10
REMARK    8  A    between atoms: C_10  and  C_11
REMARK    9  A    between atoms: C_19  and  C_21
REMARK                            x       y       z     vdW  Elec       q    Type
REMARK                         _______ _______ _______ _____ _____    ______ ____
ROOT
ATOM      1  C   UNL     1      47.270   4.813  16.120  0.00  0.00    +0.000 C 
ENDROOT
BRANCH   1   2
ATOM      2  N   UNL     1      47.888   6.032  16.703  0.00  0.00    +0.000 NA
ATOM      3  H   UNL     1      48.861   5.836  16.926  0.00  0.00    +0.000 HD
ATOM      4  H   UNL     1      47.419   6.213  17.596  0.00  0.00    +0.000 HD
ENDBRANCH   1   2
BRANCH   1   5
ATOM      5  C   UNL     1      47.544   3.592  17.016  0.00  0.00    +0.000 C 
ATOM      6  O   UNL     1      46.590   2.927  17.438  0.00  0.00    +0.000 OA
BRANCH   5   7
ATOM      7  C   UNL     1      48.923   3.175  17.364  0.00  0.00    +0.000 A 
ATOM      8  C   UNL     1      49.430   2.009  16.801  0.00  0.00    +0.000 A 
ATOM      9  S   UNL     1      51.070   1.725  17.158  0.00  0.00    +0.000 S 
ATOM     10  C   UNL     1      51.168   3.150  18.078  0.00  0.00    +0.000 A 
ATOM     11  N   UNL     1      52.354   3.554  18.610  0.00  0.00    +0.000 NA
ATOM     12  C   UNL     1      52.309   4.698  19.206  0.00  0.00    +0.000 A 
ATOM     13  N   UNL     1      51.175   5.449  19.363  0.00  0.00    +0.000 N 
ATOM     14  C   UNL     1      49.932   4.954  19.058  0.00  0.00    +0.000 A 
ATOM     15  O   UNL     1      48.931   5.443  19.568  0.00  0.00    +0.000 OA
ATOM     16  C   UNL     1      49.942   3.789  18.190  0.00  0.00    +0.000 A 
ATOM     17  H   UNL     1      51.188   6.273  19.944  0.00  0.00    +0.000 HD
ENDBRANCH   5   7
ENDBRANCH   1   5
BRANCH   1  18
ATOM     18  C   UNL     1      47.715   4.535  14.669  0.00  0.00    +0.000 C 
BRANCH  18  19
ATOM     19  C   UNL     1      46.625   4.569  13.620  0.00  0.00    +0.000 A 
ATOM     20  C   UNL     1      46.141   5.788  13.130  0.00  0.00    +0.000 A 
ATOM     21  C   UNL     1      45.154   5.811  12.145  0.00  0.00    +0.000 A 
ATOM     22  C   UNL     1      44.628   4.617  11.632  0.00  0.00    +0.000 A 
ATOM     23  C   UNL     1      45.105   3.399  12.129  0.00  0.00    +0.000 A 
ATOM     24  C   UNL     1      46.098   3.377  13.110  0.00  0.00    +0.000 A 
BRANCH  22  25
ATOM     25  C   UNL     1      43.576   4.648  10.551  0.00  0.00    +0.000 C 
BRANCH  25  26
ATOM     26  N   UNL     1      43.955   3.757   9.460  0.00  0.00    +0.000 NA
ATOM     27  H   UNL     1      43.141   3.592   8.868  0.00  0.00    +0.000 HD
BRANCH  26  28
ATOM     28  C   UNL     1      45.041   4.300   8.653  0.00  0.00    +0.000 C 
BRANCH  28  29
ATOM     29  C   UNL     1      45.850   3.182   8.057  0.00  0.00    +0.000 A 
ATOM     30  C   UNL     1      46.748   3.410   7.003  0.00  0.00    +0.000 A 
ATOM     31  C   UNL     1      47.498   2.356   6.492  0.00  0.00    +0.000 A 
ATOM     32  C   UNL     1      47.322   1.101   7.047  0.00  0.00    +0.000 A 
ATOM     33  N   UNL     1      46.463   0.835   8.054  0.00  0.00    +0.000 NA
ATOM     34  C   UNL     1      45.751   1.879   8.532  0.00  0.00    +0.000 A 
ENDBRANCH  28  29
ENDBRANCH  26  28
ENDBRANCH  25  26
ENDBRANCH  22  25
ENDBRANCH  18  19
ENDBRANCH   1  18
TORSDOF 9
ENDMDL
MODEL 4
REMARK VINA RESULT:    -7.823      2.150      3.489
REMARK INTER + INTRA:         -12.251
REMARK INTER:                 -10.957
REMARK INTRA:                  -1.294
REMARK UNBOUND:                -0.541
REMARK  Name = 
REMARK  9 active torsions:
REMARK  status: ('A' for Active; 'I' for Inactive)
REMARK    1  A    between atoms: N_1  and  C_2
REMARK    2  A    between atoms: C_2  and  C_3
REMARK    3  A    between atoms: C_2  and  C_19
REMARK    4  A    between atoms: C_3  and  C_4
REMARK    5  A    between atoms: C_7  and  C_8
REMARK    6  A    between atoms: C_8  and  N_9
REMARK    7  A    between atoms: N_9  and  C_10
REMARK    8  A    between atoms: C_10  and  C_11
REMARK    9  A    between atoms: C_19  and  C_21
REMARK                            x       y       z     vdW  Elec       q    Type
REMARK                         _______ _______ _______ _____ _____    ______ ____
ROOT
ATOM      1  C   UNL     1      47.721   4.080  15.968  0.00  0.00    +0.000 C 
ENDROOT
BRANCH   1   2
ATOM      2  N   UNL     1      46.537   4.020  16.864  0.00  0.00    +0.000 NA
ATOM      3  H   UNL     1      45.750   4.472  16.404  0.00  0.00    +0.000 HD
ATOM      4  H   UNL     1      46.752   4.586  17.690  0.00  0.00    +0.000 HD
ENDBRANCH   1   2
BRANCH   1   5
ATOM      5  C   UNL     1      49.005   4.291  16.789  0.00  0.00    +0.000 C 
ATOM      6  O   UNL     1      49.671   3.306  17.132  0.00  0.00    +0.000 OA
BRANCH   5   7
ATOM      7  C   UNL     1      49.480   5.646  17.158  0.00  0.00    +0.000 A 
ATOM      8  C   UNL     1      50.733   6.056  16.716  0.00  0.00    +0.000 A 
ATOM      9  S   UNL     1      51.095   7.681  17.076  0.00  0.00    +0.000 S 
ATOM     10  C   UNL     1      49.590   7.899  17.835  0.00  0.00    +0.000 A 
ATOM     11  N   UNL     1      49.219   9.123  18.301  0.00  0.00    +0.000 NA
ATOM     12  C   UNL     1      48.017   9.171  18.772  0.00  0.00    +0.000 A 
ATOM     13  N   UNL     1      47.175   8.097  18.865  0.00  0.00    +0.000 N 
ATOM     14  C   UNL     1      47.608   6.816  18.635  0.00  0.00    +0.000 A 
ATOM     15  O   UNL     1      46.998   5.864  19.105  0.00  0.00    +0.000 OA
ATOM     16  C   UNL     1      48.858   6.724  17.897  0.00  0.00    +0.000 A 
ATOM     17  H   UNL     1      46.296   8.181  19.354  0.00  0.00    +0.000 HD
ENDBRANCH   5   7
ENDBRANCH   1   5
BRANCH   1  18
ATOM     18  C   UNL     1      47.598   5.151  14.863  0.00  0.00    +0.000 C 
BRANCH  18  19
ATOM     19  C   UNL     1      46.526   4.915  13.823  0.00  0.00    +0.000 A 
ATOM     20  C   UNL     1      45.796   5.986  13.292  0.00  0.00    +0.000 A 
ATOM     21  C   UNL     1      44.827   5.763  12.315  0.00  0.00    +0.000 A 
ATOM     22  C   UNL     1      44.563   4.465  11.851  0.00  0.00    +0.000 A 
ATOM     23  C   UNL     1      45.286   3.395  12.390  0.00  0.00    +0.000 A 
ATOM     24  C   UNL     1      46.261   3.620  13.363  0.00  0.00    +0.000 A 
BRANCH  22  25
ATOM     25  C   UNL     1      43.528   4.234  10.778  0.00  0.00    +0.000 C 
BRANCH  25  26
ATOM     26  N   UNL     1      44.020   3.255   9.813  0.00  0.00    +0.000 NA
ATOM     27  H   UNL     1      43.242   2.670   9.509  0.00  0.00    +0.000 HD
BRANCH  26  28
ATOM     28  C   UNL     1      44.639   3.884   8.654  0.00  0.00    +0.000 C 
BRANCH  28  29
ATOM     29  C   UNL     1      45.654   2.957   8.045  0.00  0.00    +0.000 A 
ATOM     30  C   UNL     1      46.525   3.389   7.033  0.00  0.00    +0.000 A 
ATOM     31  C   UNL     1      47.468   2.511   6.509  0.00  0.00    +0.000 A 
ATOM     32  C   UNL     1      47.507   1.221   7.009  0.00  0.00    +0.000 A 
ATOM     33  N   UNL     1      46.681   0.761   7.974  0.00  0.00    +0.000 NA
ATOM     34  C   UNL     1      45.779   1.637   8.465  0.00  0.00    +0.000 A 
ENDBRANCH  28  29
ENDBRANCH  26  28
ENDBRANCH  25  26
ENDBRANCH  22  25
ENDBRANCH  18  19
ENDBRANCH   1  18
TORSDOF 9
ENDMDL
MODEL 5
REMARK VINA RESULT:    -7.702      4.561      6.866
REMARK INTER + INTRA:         -12.071
REMARK INTER:                 -10.448
REMARK INTRA:                  -1.623
REMARK UNBOUND:                -0.541
REMARK  Name = 
REMARK  9 active torsions:
REMARK  status: ('A' for Active; 'I' for Inactive)
REMARK    1  A    between atoms: N_1  and  C_2
REMARK    2  A    between atoms: C_2  and  C_3
REMARK    3  A    between atoms: C_2  and  C_19
REMARK    4  A    between atoms: C_3  and  C_4
REMARK    5  A    between atoms: C_7  and  C_8
REMARK    6  A    between atoms: C_8  and  N_9
REMARK    7  A    between atoms: N_9  and  C_10
REMARK    8  A    between atoms: C_10  and  C_11
REMARK    9  A    between atoms: C_19  and  C_21
REMARK                            x       y       z     vdW  Elec       q    Type
REMARK                         _______ _______ _______ _____ _____    ______ ____
ROOT
ATOM      1  C   UNL     1      48.876   7.636  12.970  0.00  0.00    +0.000 C 
ENDROOT
BRANCH   1   2
ATOM      2  N   UNL     1      50.356   7.516  13.030  0.00  0.00    +0.000 NA
ATOM      3  H   UNL     1      50.724   8.253  13.627  0.00  0.00    +0.000 HD
ATOM      4  H   UNL     1      50.714   7.701  12.088  0.00  0.00    +0.000 HD
ENDBRANCH   1   2
BRANCH   1   5
ATOM      5  C   UNL     1      48.423   8.977  13.573  0.00  0.00    +0.000 C 
ATOM      6  O   UNL     1      48.377   9.101  14.804  0.00  0.00    +0.000 OA
BRANCH   5   7
ATOM      7  C   UNL     1      48.064  10.135  12.720  0.00  0.00    +0.000 A 
ATOM      8  C   UNL     1      49.037  11.092  12.451  0.00  0.00    +0.000 A 
ATOM      9  S   UNL     1      48.545  12.283  11.339  0.00  0.00    +0.000 S 
ATOM     10  C   UNL     1      47.014  11.565  11.171  0.00  0.00    +0.000 A 
ATOM     11  N   UNL     1      46.112  12.055  10.277  0.00  0.00    +0.000 NA
ATOM     12  C   UNL     1      45.025  11.363  10.184  0.00  0.00    +0.000 A 
ATOM     13  N   UNL     1      44.740  10.258  10.939  0.00  0.00    +0.000 N 
ATOM     14  C   UNL     1      45.516   9.894  12.010  0.00  0.00    +0.000 A 
ATOM     15  O   UNL     1      45.052   9.190  12.898  0.00  0.00    +0.000 OA
ATOM     16  C   UNL     1      46.845  10.484  12.022  0.00  0.00    +0.000 A 
ATOM     17  H   UNL     1      43.823   9.839  10.900  0.00  0.00    +0.000 HD
ENDBRANCH   5   7
ENDBRANCH   1   5
BRANCH   1  18
ATOM     18  C   UNL     1      48.138   6.459  13.642  0.00  0.00    +0.000 C 
BRANCH  18  19
ATOM     19  C   UNL     1      46.873   5.989  12.960  0.00  0.00    +0.000 A 
ATOM     20  C   UNL     1      46.572   6.394  11.654  0.00  0.00    +0.000 A 
ATOM     21  C   UNL     1      45.415   5.937  11.022  0.00  0.00    +0.000 A 
ATOM     22  C   UNL     1      44.534   5.069  11.684  0.00  0.00    +0.000 A 
ATOM     23  C   UNL     1      44.831   4.673  12.993  0.00  0.00    +0.000 A 
ATOM     24  C   UNL     1      45.992   5.126  13.622  0.00  0.00    +0.000 A 
BRANCH  22  25
ATOM     25  C   UNL     1      43.296   4.560  10.987  0.00  0.00    +0.000 C 
BRANCH  25  26
ATOM     26  N   UNL     1      43.635   4.090   9.648  0.00  0.00    +0.000 NA
ATOM     27  H   UNL     1      44.251   4.771   9.204  0.00  0.00    +0.000 HD
BRANCH  26  28
ATOM     28  C   UNL     1      44.283   2.786   9.666  0.00  0.00    +0.000 C 
BRANCH  28  29
ATOM     29  C   UNL     1      45.387   2.742   8.647  0.00  0.00    +0.000 A 
ATOM     30  C   UNL     1      46.027   1.540   8.312  0.00  0.00    +0.000 A 
ATOM     31  C   UNL     1      47.028   1.534   7.347  0.00  0.00    +0.000 A 
ATOM     32  C   UNL     1      47.367   2.736   6.750  0.00  0.00    +0.000 A 
ATOM     33  N   UNL     1      46.785   3.917   7.051  0.00  0.00    +0.000 NA
ATOM     34  C   UNL     1      45.814   3.891   7.988  0.00  0.00    +0.000 A 
ENDBRANCH  28  29
ENDBRANCH  26  28
ENDBRANCH  25  26
ENDBRANCH  22  25
ENDBRANCH  18  19
ENDBRANCH   1  18
TORSDOF 9
ENDMDL
MODEL 6
REMARK VINA RESULT:    -7.605      2.679      3.613
REMARK INTER + INTRA:         -11.924
REMARK INTER:                 -10.538
REMARK INTRA:                  -1.387
REMARK UNBOUND:                -0.541
REMARK  Name = 
REMARK  9 active torsions:
REMARK  status: ('A' for Active; 'I' for Inactive)
REMARK    1  A    between atoms: N_1  and  C_2
REMARK    2  A    between atoms: C_2  and  C_3
REMARK    3  A    between atoms: C_2  and  C_19
REMARK    4  A    between atoms: C_3  and  C_4
REMARK    5  A    between atoms: C_7  and  C_8
REMARK    6  A    between atoms: C_8  and  N_9
REMARK    7  A    between atoms: N_9  and  C_10
REMARK    8  A    between atoms: C_10  and  C_11
REMARK    9  A    between atoms: C_19  and  C_21
REMARK                            x       y       z     vdW  Elec       q    Type
REMARK                         _______ _______ _______ _____ _____    ______ ____
ROOT
ATOM      1  C   UNL     1      47.365   8.030  14.235  0.00  0.00    +0.000 C 
ENDROOT
BRANCH   1   2
ATOM      2  N   UNL     1      48.021   9.254  14.766  0.00  0.00    +0.000 NA
ATOM      3  H   UNL     1      47.889   9.290  15.774  0.00  0.00    +0.000 HD
ATOM      4  H   UNL     1      47.519  10.059  14.380  0.00  0.00    +0.000 HD
ENDBRANCH   1   2
BRANCH   1   5
ATOM      5  C   UNL     1      48.292   6.813  14.396  0.00  0.00    +0.000 C 
ATOM      6  O   UNL     1      49.224   6.654  13.597  0.00  0.00    +0.000 OA
BRANCH   5   7
ATOM      7  C   UNL     1      48.116   5.839  15.499  0.00  0.00    +0.000 A 
ATOM      8  C   UNL     1      47.419   4.663  15.246  0.00  0.00    +0.000 A 
ATOM      9  S   UNL     1      47.420   3.564  16.547  0.00  0.00    +0.000 S 
ATOM     10  C   UNL     1      48.353   4.618  17.499  0.00  0.00    +0.000 A 
ATOM     11  N   UNL     1      48.789   4.238  18.732  0.00  0.00    +0.000 NA
ATOM     12  C   UNL     1      49.563   5.094  19.311  0.00  0.00    +0.000 A 
ATOM     13  N   UNL     1      49.899   6.315  18.790  0.00  0.00    +0.000 N 
ATOM     14  C   UNL     1      49.280   6.821  17.675  0.00  0.00    +0.000 A 
ATOM     15  O   UNL     1      49.276   8.027  17.465  0.00  0.00    +0.000 OA
ATOM     16  C   UNL     1      48.584   5.831  16.870  0.00  0.00    +0.000 A 
ATOM     17  H   UNL     1      50.408   6.983  19.349  0.00  0.00    +0.000 HD
ENDBRANCH   5   7
ENDBRANCH   1   5
BRANCH   1  18
ATOM     18  C   UNL     1      46.899   8.171  12.771  0.00  0.00    +0.000 C 
BRANCH  18  19
ATOM     19  C   UNL     1      46.061   7.036  12.226  0.00  0.00    +0.000 A 
ATOM     20  C   UNL     1      46.352   6.465  10.982  0.00  0.00    +0.000 A 
ATOM     21  C   UNL     1      45.590   5.402  10.497  0.00  0.00    +0.000 A 
ATOM     22  C   UNL     1      44.519   4.891  11.245  0.00  0.00    +0.000 A 
ATOM     23  C   UNL     1      44.223   5.469  12.484  0.00  0.00    +0.000 A 
ATOM     24  C   UNL     1      44.990   6.528  12.971  0.00  0.00    +0.000 A 
BRANCH  22  25
ATOM     25  C   UNL     1      43.712   3.726  10.725  0.00  0.00    +0.000 C 
BRANCH  25  26
ATOM     26  N   UNL     1      44.578   2.568  10.529  0.00  0.00    +0.000 NA
ATOM     27  H   UNL     1      44.400   1.892  11.272  0.00  0.00    +0.000 HD
BRANCH  26  28
ATOM     28  C   UNL     1      44.369   1.935   9.233  0.00  0.00    +0.000 C 
BRANCH  28  29
ATOM     29  C   UNL     1      45.507   2.264   8.308  0.00  0.00    +0.000 A 
ATOM     30  C   UNL     1      46.518   1.332   8.031  0.00  0.00    +0.000 A 
ATOM     31  C   UNL     1      47.542   1.663   7.150  0.00  0.00    +0.000 A 
ATOM     32  C   UNL     1      47.530   2.923   6.578  0.00  0.00    +0.000 A 
ATOM     33  N   UNL     1      46.582   3.854   6.825  0.00  0.00    +0.000 NA
ATOM     34  C   UNL     1      45.599   3.502   7.680  0.00  0.00    +0.000 A 
ENDBRANCH  28  29
ENDBRANCH  26  28
ENDBRANCH  25  26
ENDBRANCH  22  25
ENDBRANCH  18  19
ENDBRANCH   1  18
TORSDOF 9
ENDMDL
MODEL 7
REMARK VINA RESULT:    -7.487      4.912      6.701
REMARK INTER + INTRA:         -11.748
REMARK INTER:                 -10.266
REMARK INTRA:                  -1.483
REMARK UNBOUND:                -0.541
REMARK  Name = 
REMARK  9 active torsions:
REMARK  status: ('A' for Active; 'I' for Inactive)
REMARK    1  A    between atoms: N_1  and  C_2
REMARK    2  A    between atoms: C_2  and  C_3
REMARK    3  A    between atoms: C_2  and  C_19
REMARK    4  A    between atoms: C_3  and  C_4
REMARK    5  A    between atoms: C_7  and  C_8
REMARK    6  A    between atoms: C_8  and  N_9
REMARK    7  A    between atoms: N_9  and  C_10
REMARK    8  A    between atoms: C_10  and  C_11
REMARK    9  A    between atoms: C_19  and  C_21
REMARK                            x       y       z     vdW  Elec       q    Type
REMARK                         _______ _______ _______ _____ _____    ______ ____
ROOT
ATOM      1  C   UNL     1      48.923   7.407  13.176  0.00  0.00    +0.000 C 
ENDROOT
BRANCH   1   2
ATOM      2  N   UNL     1      50.340   7.305  13.613  0.00  0.00    +0.000 NA
ATOM      3  H   UNL     1      50.571   8.118  14.180  0.00  0.00    +0.000 HD
ATOM      4  H   UNL     1      50.922   7.365  12.772  0.00  0.00    +0.000 HD
ENDBRANCH   1   2
BRANCH   1   5
ATOM      5  C   UNL     1      48.372   8.814  13.468  0.00  0.00    +0.000 C 
ATOM      6  O   UNL     1      48.183   9.157  14.642  0.00  0.00    +0.000 OA
BRANCH   5   7
ATOM      7  C   UNL     1      48.087   9.780  12.381  0.00  0.00    +0.000 A 
ATOM      8  C   UNL     1      46.787  10.252  12.232  0.00  0.00    +0.000 A 
ATOM      9  S   UNL     1      46.624  11.467  11.050  0.00  0.00    +0.000 S 
ATOM     10  C   UNL     1      48.284  11.412  10.694  0.00  0.00    +0.000 A 
ATOM     11  N   UNL     1      48.833  12.284   9.805  0.00  0.00    +0.000 NA
ATOM     12  C   UNL     1      50.116  12.196   9.694  0.00  0.00    +0.000 A 
ATOM     13  N   UNL     1      50.892  11.281  10.353  0.00  0.00    +0.000 N 
ATOM     14  C   UNL     1      50.342  10.239  11.056  0.00  0.00    +0.000 A 
ATOM     15  O   UNL     1      51.000   9.231  11.281  0.00  0.00    +0.000 OA
ATOM     16  C   UNL     1      48.941  10.415  11.399  0.00  0.00    +0.000 A 
ATOM     17  H   UNL     1      51.871  11.188  10.127  0.00  0.00    +0.000 HD
ENDBRANCH   5   7
ENDBRANCH   1   5
BRANCH   1  18
ATOM     18  C   UNL     1      48.012   6.326  13.796  0.00  0.00    +0.000 C 
BRANCH  18  19
ATOM     19  C   UNL     1      46.774   5.966  13.005  0.00  0.00    +0.000 A 
ATOM     20  C   UNL     1      46.604   6.423  11.693  0.00  0.00    +0.000 A 
ATOM     21  C   UNL     1      45.471   6.066  10.962  0.00  0.00    +0.000 A 
ATOM     22  C   UNL     1      44.483   5.248  11.529  0.00  0.00    +0.000 A 
ATOM     23  C   UNL     1      44.649   4.800  12.844  0.00  0.00    +0.000 A 
ATOM     24  C   UNL     1      45.786   5.152  13.573  0.00  0.00    +0.000 A 
BRANCH  22  25
ATOM     25  C   UNL     1      43.270   4.847  10.725  0.00  0.00    +0.000 C 
BRANCH  25  26
ATOM     26  N   UNL     1      43.682   4.328   9.426  0.00  0.00    +0.000 NA
ATOM     27  H   UNL     1      44.363   4.967   9.014  0.00  0.00    +0.000 HD
BRANCH  26  28
ATOM     28  C   UNL     1      44.261   2.994   9.520  0.00  0.00    +0.000 C 
BRANCH  28  29
ATOM     29  C   UNL     1      45.405   2.857   8.555  0.00  0.00    +0.000 A 
ATOM     30  C   UNL     1      46.026   1.620   8.326  0.00  0.00    +0.000 A 
ATOM     31  C   UNL     1      47.065   1.526   7.407  0.00  0.00    +0.000 A 
ATOM     32  C   UNL     1      47.460   2.678   6.748  0.00  0.00    +0.000 A 
ATOM     33  N   UNL     1      46.898   3.890   6.946  0.00  0.00    +0.000 NA
ATOM     34  C   UNL     1      45.888   3.949   7.841  0.00  0.00    +0.000 A 
ENDBRANCH  28  29
ENDBRANCH  26  28
ENDBRANCH  25  26
ENDBRANCH  22  25
ENDBRANCH  18  19
ENDBRANCH   1  18
TORSDOF 9
ENDMDL
MODEL 8
REMARK VINA RESULT:    -7.422      3.031      4.132
REMARK INTER + INTRA:         -11.651
REMARK INTER:                 -10.372
REMARK INTRA:                  -1.279
REMARK UNBOUND:                -0.541
REMARK  Name = 
REMARK  9 active torsions:
REMARK  status: ('A' for Active; 'I' for Inactive)
REMARK    1  A    between atoms: N_1  and  C_2
REMARK    2  A    between atoms: C_2  and  C_3
REMARK    3  A    between atoms: C_2  and  C_19
REMARK    4  A    between atoms: C_3  and  C_4
REMARK    5  A    between atoms: C_7  and  C_8
REMARK    6  A    between atoms: C_8  and  N_9
REMARK    7  A    between atoms: N_9  and  C_10
REMARK    8  A    between atoms: C_10  and  C_11
REMARK    9  A    between atoms: C_19  and  C_21
REMARK                            x       y       z     vdW  Elec       q    Type
REMARK                         _______ _______ _______ _____ _____    ______ ____
ROOT
ATOM      1  C   UNL     1      48.225   8.480  12.811  0.00  0.00    +0.000 C 
ENDROOT
BRANCH   1   2
ATOM      2  N   UNL     1      48.492   7.890  11.473  0.00  0.00    +0.000 NA
ATOM      3  H   UNL     1      49.439   7.517  11.459  0.00  0.00    +0.000 HD
ATOM      4  H   UNL     1      48.473   8.656  10.794  0.00  0.00    +0.000 HD
ENDBRANCH   1   2
BRANCH   1   5
ATOM      5  C   UNL     1      49.108   7.811  13.878  0.00  0.00    +0.000 C 
ATOM      6  O   UNL     1      49.932   6.956  13.531  0.00  0.00    +0.000 OA
BRANCH   5   7
ATOM      7  C   UNL     1      49.018   8.184  15.310  0.00  0.00    +0.000 A 
ATOM      8  C   UNL     1      49.266   9.503  15.673  0.00  0.00    +0.000 A 
ATOM      9  S   UNL     1      48.980   9.833  17.319  0.00  0.00    +0.000 S 
ATOM     10  C   UNL     1      48.512   8.226  17.610  0.00  0.00    +0.000 A 
ATOM     11  N   UNL     1      48.052   7.847  18.834  0.00  0.00    +0.000 NA
ATOM     12  C   UNL     1      47.645   6.623  18.895  0.00  0.00    +0.000 A 
ATOM     13  N   UNL     1      47.704   5.732  17.858  0.00  0.00    +0.000 N 
ATOM     14  C   UNL     1      48.385   6.012  16.701  0.00  0.00    +0.000 A 
ATOM     15  O   UNL     1      48.777   5.103  15.980  0.00  0.00    +0.000 OA
ATOM     16  C   UNL     1      48.661   7.423  16.489  0.00  0.00    +0.000 A 
ATOM     17  H   UNL     1      47.481   4.760  18.011  0.00  0.00    +0.000 HD
ENDBRANCH   5   7
ENDBRANCH   1   5
BRANCH   1  18
ATOM     18  C   UNL     1      46.738   8.423  13.219  0.00  0.00    +0.000 C 
BRANCH  18  19
ATOM     19  C   UNL     1      45.972   7.196  12.776  0.00  0.00    +0.000 A 
ATOM     20  C   UNL     1      44.981   7.288  11.791  0.00  0.00    +0.000 A 
ATOM     21  C   UNL     1      44.297   6.149  11.370  0.00  0.00    +0.000 A 
ATOM     22  C   UNL     1      44.586   4.894  11.926  0.00  0.00    +0.000 A 
ATOM     23  C   UNL     1      45.570   4.804  12.917  0.00  0.00    +0.000 A 
ATOM     24  C   UNL     1      46.259   5.944  13.334  0.00  0.00    +0.000 A 
BRANCH  22  25
ATOM     25  C   UNL     1      43.857   3.661  11.450  0.00  0.00    +0.000 C 
BRANCH  25  26
ATOM     26  N   UNL     1      44.803   2.717  10.864  0.00  0.00    +0.000 NA
ATOM     27  H   UNL     1      44.908   1.921  11.493  0.00  0.00    +0.000 HD
BRANCH  26  28
ATOM     28  C   UNL     1      44.378   2.250   9.551  0.00  0.00    +0.000 C 
BRANCH  28  29
ATOM     29  C   UNL     1      45.466   2.487   8.541  0.00  0.00    +0.000 A 
ATOM     30  C   UNL     1      46.310   1.449   8.118  0.00  0.00    +0.000 A 
ATOM     31  C   UNL     1      47.290   1.699   7.163  0.00  0.00    +0.000 A 
ATOM     32  C   UNL     1      47.403   2.986   6.666  0.00  0.00    +0.000 A 
ATOM     33  N   UNL     1      46.620   4.016   7.053  0.00  0.00    +0.000 NA
ATOM     34  C   UNL     1      45.675   3.741   7.978  0.00  0.00    +0.000 A 
ENDBRANCH  28  29
ENDBRANCH  26  28
ENDBRANCH  25  26
ENDBRANCH  22  25
ENDBRANCH  18  19
ENDBRANCH   1  18
TORSDOF 9
ENDMDL
MODEL 9
REMARK VINA RESULT:    -7.335      2.934      3.908
REMARK INTER + INTRA:         -11.522
REMARK INTER:                 -10.260
REMARK INTRA:                  -1.262
REMARK UNBOUND:                -0.541
REMARK  Name = 
REMARK  9 active torsions:
REMARK  status: ('A' for Active; 'I' for Inactive)
REMARK    1  A    between atoms: N_1  and  C_2
REMARK    2  A    between atoms: C_2  and  C_3
REMARK    3  A    between atoms: C_2  and  C_19
REMARK    4  A    between atoms: C_3  and  C_4
REMARK    5  A    between atoms: C_7  and  C_8
REMARK    6  A    between atoms: C_8  and  N_9
REMARK    7  A    between atoms: N_9  and  C_10
REMARK    8  A    between atoms: C_10  and  C_11
REMARK    9  A    between atoms: C_19  and  C_21
REMARK                            x       y       z     vdW  Elec       q    Type
REMARK                         _______ _______ _______ _____ _____    ______ ____
ROOT
ATOM      1  C   UNL     1      48.777   9.814  14.807  0.00  0.00    +0.000 C 
ENDROOT
BRANCH   1   2
ATOM      2  N   UNL     1      49.230  11.106  15.385  0.00  0.00    +0.000 NA
ATOM      3  H   UNL     1      50.196  11.011  15.689  0.00  0.00    +0.000 HD
ATOM      4  H   UNL     1      48.676  11.272  16.230  0.00  0.00    +0.000 HD
ENDBRANCH   1   2
BRANCH   1   5
ATOM      5  C   UNL     1      49.765   8.691  15.165  0.00  0.00    +0.000 C 
ATOM      6  O   UNL     1      50.745   8.493  14.436  0.00  0.00    +0.000 OA
BRANCH   5   7
ATOM      7  C   UNL     1      49.589   7.855  16.376  0.00  0.00    +0.000 A 
ATOM      8  C   UNL     1      50.168   8.277  17.568  0.00  0.00    +0.000 A 
ATOM      9  S   UNL     1      49.764   7.313  18.913  0.00  0.00    +0.000 S 
ATOM     10  C   UNL     1      48.799   6.294  17.954  0.00  0.00    +0.000 A 
ATOM     11  N   UNL     1      48.077   5.288  18.519  0.00  0.00    +0.000 NA
ATOM     12  C   UNL     1      47.317   4.649  17.694  0.00  0.00    +0.000 A 
ATOM     13  N   UNL     1      47.251   4.893  16.349  0.00  0.00    +0.000 N 
ATOM     14  C   UNL     1      48.142   5.726  15.721  0.00  0.00    +0.000 A 
ATOM     15  O   UNL     1      48.341   5.622  14.517  0.00  0.00    +0.000 OA
ATOM     16  C   UNL     1      48.856   6.628  16.610  0.00  0.00    +0.000 A 
ATOM     17  H   UNL     1      46.728   4.277  15.746  0.00  0.00    +0.000 HD
ENDBRANCH   5   7
ENDBRANCH   1   5
BRANCH   1  18
ATOM     18  C   UNL     1      48.547   9.872  13.282  0.00  0.00    +0.000 C 
BRANCH  18  19
ATOM     19  C   UNL     1      47.631   8.816  12.706  0.00  0.00    +0.000 A 
ATOM     20  C   UNL     1      48.137   7.798  11.889  0.00  0.00    +0.000 A 
ATOM     21  C   UNL     1      47.291   6.812  11.382  0.00  0.00    +0.000 A 
ATOM     22  C   UNL     1      45.920   6.827  11.677  0.00  0.00    +0.000 A 
ATOM     23  C   UNL     1      45.412   7.850  12.485  0.00  0.00    +0.000 A 
ATOM     24  C   UNL     1      46.261   8.832  12.998  0.00  0.00    +0.000 A 
BRANCH  22  25
ATOM     25  C   UNL     1      45.013   5.745  11.143  0.00  0.00    +0.000 C 
BRANCH  25  26
ATOM     26  N   UNL     1      45.426   5.367   9.796  0.00  0.00    +0.000 NA
ATOM     27  H   UNL     1      46.400   5.065   9.821  0.00  0.00    +0.000 HD
BRANCH  26  28
ATOM     28  C   UNL     1      44.599   4.303   9.241  0.00  0.00    +0.000 C 
BRANCH  28  29
ATOM     29  C   UNL     1      45.459   3.306   8.516  0.00  0.00    +0.000 A 
ATOM     30  C   UNL     1      46.328   3.700   7.487  0.00  0.00    +0.000 A 
ATOM     31  C   UNL     1      47.126   2.753   6.854  0.00  0.00    +0.000 A 
ATOM     32  C   UNL     1      47.025   1.435   7.265  0.00  0.00    +0.000 A 
ATOM     33  N   UNL     1      46.195   1.011   8.243  0.00  0.00    +0.000 NA
ATOM     34  C   UNL     1      45.435   1.954   8.841  0.00  0.00    +0.000 A 
ENDBRANCH  28  29
ENDBRANCH  26  28
ENDBRANCH  25  26
ENDBRANCH  22  25
ENDBRANCH  18  19
ENDBRANCH   1  18
TORSDOF 9
ENDMDL
