MODEL 1
REMARK VINA RESULT:    -8.121      0.000      0.000
REMARK INTER + INTRA:         -10.221
REMARK INTER:                 -10.020
REMARK INTRA:                  -0.201
REMARK UNBOUND:                -0.201
REMARK  Name = 
REMARK  4 active torsions:
REMARK  status: ('A' for Active; 'I' for Inactive)
REMARK    1  A    between atoms: C_5  and  N_6
REMARK    2  A    between atoms: N_6  and  C_7
REMARK    3  A    between atoms: C_7  and  C_8
REMARK    4  A    between atoms: C_12  and  C_13
REMARK                            x       y       z     vdW  Elec       q    Type
REMARK                         _______ _______ _______ _____ _____    ______ ____
ROOT
ATOM      1  C   UNL     1      43.956   4.903  11.054  0.00  0.00    +0.000 C 
ATOM      2  C   UNL     1      43.208   3.946  11.980  0.00  0.00    +0.000 C 
ATOM      3  C   UNL     1      42.717   5.341  11.816  0.00  0.00    +0.000 C 
ENDROOT
BRANCH   1   4
ATOM      4  C   UNL     1      45.310   5.412  11.559  0.00  0.00    +0.000 A 
ATOM      5  C   UNL     1      45.969   6.488  10.948  0.00  0.00    +0.000 A 
ATOM      6  C   UNL     1      47.099   7.066  11.524  0.00  0.00    +0.000 A 
ATOM      7  C   UNL     1      47.584   6.588  12.742  0.00  0.00    +0.000 A 
ATOM      8  C   UNL     1      46.981   5.495  13.381  0.00  0.00    +0.000 A 
ATOM      9  C   UNL     1      45.887   4.891  12.735  0.00  0.00    +0.000 A 
BRANCH   8  10
ATOM     10  C   UNL     1      47.392   5.057  14.728  0.00  0.00    +0.000 A 
ATOM     11  C   UNL     1      48.209   5.833  15.563  0.00  0.00    +0.000 A 
ATOM     12  C   UNL     1      48.632   5.340  16.797  0.00  0.00    +0.000 A 
ATOM     13  C   UNL     1      48.219   4.075  17.179  0.00  0.00    +0.000 A 
ATOM     14  N   UNL     1      47.432   3.289  16.419  0.00  0.00    +0.000 NA
ATOM     15  C   UNL     1      47.049   3.794  15.221  0.00  0.00    +0.000 A 
ENDBRANCH   8  10
ENDBRANCH   1   4
BRANCH   1  16
ATOM     16  N   UNL     1      43.882   4.647   9.602  0.00  0.00    +0.000 N 
ATOM     17  H   UNL     1      42.962   4.454   9.207  0.00  0.00    +0.000 HD
BRANCH  16  22
ATOM     18 CL   UNL     1      47.661   1.253   6.766  0.00  0.00    +0.000 Cl
ATOM     19  C   UNL     1      46.573   2.263   7.617  0.00  0.00    +0.000 A 
ATOM     20  C   UNL     1      46.464   3.616   7.360  0.00  0.00    +0.000 A 
ATOM     21  N   UNL     1      45.582   4.422   8.011  0.00  0.00    +0.000 NA
ATOM     22  C   UNL     1      44.800   3.826   8.936  0.00  0.00    +0.000 A 
ATOM     23  C   UNL     1      44.954   2.458   9.199  0.00  0.00    +0.000 A 
ATOM     24  N   UNL     1      45.827   1.644   8.550  0.00  0.00    +0.000 NA
ENDBRANCH  16  22
ENDBRANCH   1  16
TORSDOF 4
ENDMDL
MODEL 2
REMARK VINA RESULT:    -7.813      2.105      3.657
REMARK INTER + INTRA:          -9.841
REMARK INTER:                  -9.090
REMARK INTRA:                  -0.751
REMARK UNBOUND:                -0.201
REMARK  Name = 
REMARK  4 active torsions:
REMARK  status: ('A' for Active; 'I' for Inactive)
REMARK    1  A    between atoms: C_5  and  N_6
REMARK    2  A    between atoms: N_6  and  C_7
REMARK    3  A    between atoms: C_7  and  C_8
REMARK    4  A    between atoms: C_12  and  C_13
REMARK                            x       y       z     vdW  Elec       q    Type
REMARK                         _______ _______ _______ _____ _____    ______ ____
ROOT
ATOM      1  C   UNL     1      43.755   4.834  11.548  0.00  0.00    +0.000 C 
ATOM      2  C   UNL     1      42.460   5.243  12.246  0.00  0.00    +0.000 C 
ATOM      3  C   UNL     1      42.947   6.035  11.084  0.00  0.00    +0.000 C 
ENDROOT
BRANCH   1   4
ATOM      4  C   UNL     1      45.053   5.112  12.314  0.00  0.00    +0.000 A 
ATOM      5  C   UNL     1      45.649   4.144  13.134  0.00  0.00    +0.000 A 
ATOM      6  C   UNL     1      46.921   4.334  13.671  0.00  0.00    +0.000 A 
ATOM      7  C   UNL     1      47.635   5.497  13.381  0.00  0.00    +0.000 A 
ATOM      8  C   UNL     1      47.074   6.512  12.591  0.00  0.00    +0.000 A 
ATOM      9  C   UNL     1      45.761   6.317  12.124  0.00  0.00    +0.000 A 
BRANCH   8  10
ATOM     10  C   UNL     1      47.856   7.687  12.163  0.00  0.00    +0.000 A 
ATOM     11  C   UNL     1      49.209   7.610  11.804  0.00  0.00    +0.000 A 
ATOM     12  C   UNL     1      49.923   8.764  11.480  0.00  0.00    +0.000 A 
ATOM     13  C   UNL     1      49.262   9.980  11.514  0.00  0.00    +0.000 A 
ATOM     14  N   UNL     1      47.963  10.112  11.847  0.00  0.00    +0.000 NA
ATOM     15  C   UNL     1      47.302   8.972  12.167  0.00  0.00    +0.000 A 
ENDBRANCH   8  10
ENDBRANCH   1   4
BRANCH   1  16
ATOM     16  N   UNL     1      43.744   3.585  10.762  0.00  0.00    +0.000 N 
ATOM     17  H   UNL     1      43.685   2.707  11.278  0.00  0.00    +0.000 HD
BRANCH  16  22
ATOM     18 CL   UNL     1      47.371   2.672   6.306  0.00  0.00    +0.000 Cl
ATOM     19  C   UNL     1      46.281   2.929   7.599  0.00  0.00    +0.000 A 
ATOM     20  C   UNL     1      45.840   1.901   8.411  0.00  0.00    +0.000 A 
ATOM     21  N   UNL     1      44.996   2.099   9.460  0.00  0.00    +0.000 NA
ATOM     22  C   UNL     1      44.604   3.373   9.678  0.00  0.00    +0.000 A 
ATOM     23  C   UNL     1      45.041   4.391   8.819  0.00  0.00    +0.000 A 
ATOM     24  N   UNL     1      45.889   4.204   7.775  0.00  0.00    +0.000 NA
ENDBRANCH  16  22
ENDBRANCH   1  16
TORSDOF 4
ENDMDL
MODEL 3
REMARK VINA RESULT:    -7.754      2.528      4.243
REMARK INTER + INTRA:          -9.768
REMARK INTER:                  -9.721
REMARK INTRA:                  -0.046
REMARK UNBOUND:                -0.201
REMARK  Name = 
REMARK  4 active torsions:
REMARK  status: ('A' for Active; 'I' for Inactive)
REMARK    1  A    between atoms: C_5  and  N_6
REMARK    2  A    between atoms: N_6  and  C_7
REMARK    3  A    between atoms: C_7  and  C_8
REMARK    4  A    between atoms: C_12  and  C_13
REMARK                            x       y       z     vdW  Elec       q    Type
REMARK                         _______ _______ _______ _____ _____    ______ ____
ROOT
ATOM      1  C   UNL     1      43.789   5.064  11.135  0.00  0.00    +0.000 C 
ATOM      2  C   UNL     1      43.276   3.863  11.925  0.00  0.00    +0.000 C 
ATOM      3  C   UNL     1      42.432   5.083  11.820  0.00  0.00    +0.000 C 
ENDROOT
BRANCH   1   4
ATOM      4  C   UNL     1      44.919   5.869  11.785  0.00  0.00    +0.000 A 
ATOM      5  C   UNL     1      46.097   5.258  12.237  0.00  0.00    +0.000 A 
ATOM      6  C   UNL     1      47.192   6.015  12.650  0.00  0.00    +0.000 A 
ATOM      7  C   UNL     1      47.137   7.408  12.600  0.00  0.00    +0.000 A 
ATOM      8  C   UNL     1      45.973   8.071  12.185  0.00  0.00    +0.000 A 
ATOM      9  C   UNL     1      44.863   7.277  11.843  0.00  0.00    +0.000 A 
BRANCH   8  10
ATOM     10  C   UNL     1      45.935   9.534  11.998  0.00  0.00    +0.000 A 
ATOM     11  C   UNL     1      47.092  10.323  11.942  0.00  0.00    +0.000 A 
ATOM     12  C   UNL     1      46.999  11.711  11.840  0.00  0.00    +0.000 A 
ATOM     13  C   UNL     1      45.742  12.286  11.789  0.00  0.00    +0.000 A 
ATOM     14  N   UNL     1      44.597  11.577  11.836  0.00  0.00    +0.000 NA
ATOM     15  C   UNL     1      44.724  10.231  11.945  0.00  0.00    +0.000 A 
ENDBRANCH   8  10
ENDBRANCH   1   4
BRANCH   1  16
ATOM     16  N   UNL     1      43.876   4.932   9.667  0.00  0.00    +0.000 N 
ATOM     17  H   UNL     1      43.000   4.897   9.147  0.00  0.00    +0.000 HD
BRANCH  16  22
ATOM     18 CL   UNL     1      47.530   1.266   7.010  0.00  0.00    +0.000 Cl
ATOM     19  C   UNL     1      46.479   2.355   7.809  0.00  0.00    +0.000 A 
ATOM     20  C   UNL     1      46.447   3.705   7.513  0.00  0.00    +0.000 A 
ATOM     21  N   UNL     1      45.595   4.574   8.122  0.00  0.00    +0.000 NA
ATOM     22  C   UNL     1      44.763   4.045   9.045  0.00  0.00    +0.000 A 
ATOM     23  C   UNL     1      44.839   2.679   9.348  0.00  0.00    +0.000 A 
ATOM     24  N   UNL     1      45.681   1.803   8.740  0.00  0.00    +0.000 NA
ENDBRANCH  16  22
ENDBRANCH   1  16
TORSDOF 4
ENDMDL
MODEL 4
REMARK VINA RESULT:    -7.396      2.852      6.947
REMARK INTER + INTRA:          -9.326
REMARK INTER:                  -8.819
REMARK INTRA:                  -0.507
REMARK UNBOUND:                -0.201
REMARK  Name = 
REMARK  4 active torsions:
REMARK  status: ('A' for Active; 'I' for Inactive)
REMARK    1  A    between atoms: C_5  and  N_6
REMARK    2  A    between atoms: N_6  and  C_7
REMARK    3  A    between atoms: C_7  and  C_8
REMARK    4  A    between atoms: C_12  and  C_13
REMARK                            x       y       z     vdW  Elec       q    Type
REMARK                         _______ _______ _______ _____ _____    ______ ____
ROOT
ATOM      1  C   UNL     1      46.437   7.231  12.564  0.00  0.00    +0.000 C 
ATOM      2  C   UNL     1      46.585   8.615  11.934  0.00  0.00    +0.000 C 
ATOM      3  C   UNL     1      45.884   8.476  13.239  0.00  0.00    +0.000 C 
ENDROOT
BRANCH   1   4
ATOM      4  C   UNL     1      45.432   6.287  11.896  0.00  0.00    +0.000 A 
ATOM      5  C   UNL     1      44.050   6.425  12.084  0.00  0.00    +0.000 A 
ATOM      6  C   UNL     1      43.140   5.689  11.328  0.00  0.00    +0.000 A 
ATOM      7  C   UNL     1      43.597   4.809  10.347  0.00  0.00    +0.000 A 
ATOM      8  C   UNL     1      44.970   4.610  10.137  0.00  0.00    +0.000 A 
ATOM      9  C   UNL     1      45.860   5.316  10.967  0.00  0.00    +0.000 A 
BRANCH   8  10
ATOM     10  C   UNL     1      45.476   3.788   9.021  0.00  0.00    +0.000 A 
ATOM     11  C   UNL     1      45.528   2.388   9.072  0.00  0.00    +0.000 A 
ATOM     12  C   UNL     1      46.087   1.662   8.020  0.00  0.00    +0.000 A 
ATOM     13  C   UNL     1      46.577   2.354   6.927  0.00  0.00    +0.000 A 
ATOM     14  N   UNL     1      46.549   3.698   6.824  0.00  0.00    +0.000 NA
ATOM     15  C   UNL     1      46.010   4.373   7.868  0.00  0.00    +0.000 A 
ENDBRANCH   8  10
ENDBRANCH   1   4
BRANCH   1  16
ATOM     16  N   UNL     1      47.656   6.585  13.087  0.00  0.00    +0.000 N 
ATOM     17  H   UNL     1      48.281   6.146  12.412  0.00  0.00    +0.000 HD
BRANCH  16  22
ATOM     18 CL   UNL     1      47.687   3.203  17.822  0.00  0.00    +0.000 Cl
ATOM     19  C   UNL     1      47.659   4.218  16.444  0.00  0.00    +0.000 A 
ATOM     20  C   UNL     1      48.400   5.382  16.368  0.00  0.00    +0.000 A 
ATOM     21  N   UNL     1      48.407   6.181  15.266  0.00  0.00    +0.000 NA
ATOM     22  C   UNL     1      47.644   5.773  14.228  0.00  0.00    +0.000 A 
ATOM     23  C   UNL     1      46.879   4.605  14.345  0.00  0.00    +0.000 A 
ATOM     24  N   UNL     1      46.871   3.798  15.438  0.00  0.00    +0.000 NA
ENDBRANCH  16  22
ENDBRANCH   1  16
TORSDOF 4
ENDMDL
MODEL 5
REMARK VINA RESULT:    -6.732      3.663      7.584
REMARK INTER + INTRA:          -8.508
REMARK INTER:                  -7.763
REMARK INTRA:                  -0.745
REMARK UNBOUND:                -0.201
REMARK  Name = 
REMARK  4 active torsions:
REMARK  status: ('A' for Active; 'I' for Inactive)
REMARK    1  A    between atoms: C_5  and  N_6
REMARK    2  A    between atoms: N_6  and  C_7
REMARK    3  A    between atoms: C_7  and  C_8
REMARK    4  A    between atoms: C_12  and  C_13
REMARK                            x       y       z     vdW  Elec       q    Type
REMARK                         _______ _______ _______ _____ _____    ______ ____
ROOT
ATOM      1  C   UNL     1      48.958   7.892  12.662  0.00  0.00    +0.000 C 
ATOM      2  C   UNL     1      49.765   8.260  11.419  0.00  0.00    +0.000 C 
ATOM      3  C   UNL     1      49.471   9.305  12.436  0.00  0.00    +0.000 C 
ENDROOT
BRANCH   1   4
ATOM      4  C   UNL     1      47.461   7.643  12.448  0.00  0.00    +0.000 A 
ATOM      5  C   UNL     1      46.504   8.638  12.691  0.00  0.00    +0.000 A 
ATOM      6  C   UNL     1      45.173   8.470  12.314  0.00  0.00    +0.000 A 
ATOM      7  C   UNL     1      44.774   7.302  11.663  0.00  0.00    +0.000 A 
ATOM      8  C   UNL     1      45.684   6.262  11.422  0.00  0.00    +0.000 A 
ATOM      9  C   UNL     1      47.003   6.437  11.879  0.00  0.00    +0.000 A 
BRANCH   8  10
ATOM     10  C   UNL     1      45.319   5.078  10.621  0.00  0.00    +0.000 A 
ATOM     11  C   UNL     1      45.534   4.999   9.238  0.00  0.00    +0.000 A 
ATOM     12  C   UNL     1      45.100   3.888   8.515  0.00  0.00    +0.000 A 
ATOM     13  C   UNL     1      44.463   2.866   9.197  0.00  0.00    +0.000 A 
ATOM     14  N   UNL     1      44.233   2.887  10.524  0.00  0.00    +0.000 NA
ATOM     15  C   UNL     1      44.658   3.986  11.194  0.00  0.00    +0.000 A 
ENDBRANCH   8  10
ENDBRANCH   1   4
BRANCH   1  16
ATOM     16  N   UNL     1      49.603   7.021  13.664  0.00  0.00    +0.000 N 
ATOM     17  H   UNL     1      49.795   6.057  13.393  0.00  0.00    +0.000 HD
BRANCH  16  22
ATOM     18 CL   UNL     1      47.896   6.915  19.225  0.00  0.00    +0.000 Cl
ATOM     19  C   UNL     1      48.426   6.935  17.598  0.00  0.00    +0.000 A 
ATOM     20  C   UNL     1      48.505   5.788  16.832  0.00  0.00    +0.000 A 
ATOM     21  N   UNL     1      48.897   5.797  15.529  0.00  0.00    +0.000 NA
ATOM     22  C   UNL     1      49.209   7.003  15.008  0.00  0.00    +0.000 A 
ATOM     23  C   UNL     1      49.151   8.146  15.817  0.00  0.00    +0.000 A 
ATOM     24  N   UNL     1      48.754   8.148  17.116  0.00  0.00    +0.000 NA
ENDBRANCH  16  22
ENDBRANCH   1  16
TORSDOF 4
ENDMDL
MODEL 6
REMARK VINA RESULT:    -6.322      2.967      4.609
REMARK INTER + INTRA:          -8.001
REMARK INTER:                  -7.316
REMARK INTRA:                  -0.684
REMARK UNBOUND:                -0.201
REMARK  Name = 
REMARK  4 active torsions:
REMARK  status: ('A' for Active; 'I' for Inactive)
REMARK    1  A    between atoms: C_5  and  N_6
REMARK    2  A    between atoms: N_6  and  C_7
REMARK    3  A    between atoms: C_7  and  C_8
REMARK    4  A    between atoms: C_12  and  C_13
REMARK                            x       y       z     vdW  Elec       q    Type
REMARK                         _______ _______ _______ _____ _____    ______ ____
ROOT
ATOM      1  C   UNL     1      47.410   7.924  12.881  0.00  0.00    +0.000 C 
ATOM      2  C   UNL     1      48.036   8.865  11.854  0.00  0.00    +0.000 C 
ATOM      3  C   UNL     1      48.247   7.398  11.726  0.00  0.00    +0.000 C 
ENDROOT
BRANCH   1   4
ATOM      4  C   UNL     1      48.049   7.920  14.273  0.00  0.00    +0.000 A 
ATOM      5  C   UNL     1      48.059   9.062  15.085  0.00  0.00    +0.000 A 
ATOM      6  C   UNL     1      48.468   9.001  16.416  0.00  0.00    +0.000 A 
ATOM      7  C   UNL     1      48.859   7.782  16.971  0.00  0.00    +0.000 A 
ATOM      8  C   UNL     1      48.896   6.613  16.195  0.00  0.00    +0.000 A 
ATOM      9  C   UNL     1      48.545   6.727  14.838  0.00  0.00    +0.000 A 
BRANCH   8  10
ATOM     10  C   UNL     1      49.178   5.293  16.790  0.00  0.00    +0.000 A 
ATOM     11  C   UNL     1      50.423   4.957  17.340  0.00  0.00    +0.000 A 
ATOM     12  C   UNL     1      50.661   3.669  17.821  0.00  0.00    +0.000 A 
ATOM     13  C   UNL     1      49.639   2.740  17.751  0.00  0.00    +0.000 A 
ATOM     14  N   UNL     1      48.422   3.009  17.237  0.00  0.00    +0.000 NA
ATOM     15  C   UNL     1      48.229   4.266  16.768  0.00  0.00    +0.000 A 
ENDBRANCH   8  10
ENDBRANCH   1   4
BRANCH   1  16
ATOM     16  N   UNL     1      45.942   7.769  12.862  0.00  0.00    +0.000 N 
ATOM     17  H   UNL     1      45.413   8.228  13.603  0.00  0.00    +0.000 HD
BRANCH  16  22
ATOM     18 CL   UNL     1      43.284   2.702  11.813  0.00  0.00    +0.000 Cl
ATOM     19  C   UNL     1      44.085   4.186  12.098  0.00  0.00    +0.000 A 
ATOM     20  C   UNL     1      43.887   5.299  11.303  0.00  0.00    +0.000 A 
ATOM     21  N   UNL     1      44.496   6.493  11.538  0.00  0.00    +0.000 NA
ATOM     22  C   UNL     1      45.320   6.541  12.608  0.00  0.00    +0.000 A 
ATOM     23  C   UNL     1      45.527   5.389  13.378  0.00  0.00    +0.000 A 
ATOM     24  N   UNL     1      44.917   4.196  13.155  0.00  0.00    +0.000 NA
ENDBRANCH  16  22
ENDBRANCH   1  16
TORSDOF 4
ENDMDL
MODEL 7
REMARK VINA RESULT:    -6.290      3.453      7.724
REMARK INTER + INTRA:          -7.962
REMARK INTER:                  -7.708
REMARK INTRA:                  -0.254
REMARK UNBOUND:                -0.201
REMARK  Name = 
REMARK  4 active torsions:
REMARK  status: ('A' for Active; 'I' for Inactive)
REMARK    1  A    between atoms: C_5  and  N_6
REMARK    2  A    between atoms: N_6  and  C_7
REMARK    3  A    between atoms: C_7  and  C_8
REMARK    4  A    between atoms: C_12  and  C_13
REMARK                            x       y       z     vdW  Elec       q    Type
REMARK                         _______ _______ _______ _____ _____    ______ ____
ROOT
ATOM      1  C   UNL     1      47.840   6.541  14.286  0.00  0.00    +0.000 C 
ATOM      2  C   UNL     1      49.204   7.064  13.842  0.00  0.00    +0.000 C 
ATOM      3  C   UNL     1      48.456   7.783  14.908  0.00  0.00    +0.000 C 
ENDROOT
BRANCH   1   4
ATOM      4  C   UNL     1      46.683   6.745  13.302  0.00  0.00    +0.000 A 
ATOM      5  C   UNL     1      46.111   8.007  13.086  0.00  0.00    +0.000 A 
ATOM      6  C   UNL     1      45.195   8.219  12.057  0.00  0.00    +0.000 A 
ATOM      7  C   UNL     1      44.847   7.170  11.205  0.00  0.00    +0.000 A 
ATOM      8  C   UNL     1      45.367   5.881  11.395  0.00  0.00    +0.000 A 
ATOM      9  C   UNL     1      46.232   5.687  12.486  0.00  0.00    +0.000 A 
BRANCH   8  10
ATOM     10  C   UNL     1      45.117   4.792  10.432  0.00  0.00    +0.000 A 
ATOM     11  C   UNL     1      45.521   4.856   9.091  0.00  0.00    +0.000 A 
ATOM     12  C   UNL     1      45.193   3.832   8.202  0.00  0.00    +0.000 A 
ATOM     13  C   UNL     1      44.470   2.752   8.678  0.00  0.00    +0.000 A 
ATOM     14  N   UNL     1      44.059   2.637   9.957  0.00  0.00    +0.000 NA
ATOM     15  C   UNL     1      44.385   3.655  10.790  0.00  0.00    +0.000 A 
ENDBRANCH   8  10
ENDBRANCH   1   4
BRANCH   1  16
ATOM     16  N   UNL     1      47.806   5.273  15.041  0.00  0.00    +0.000 N 
ATOM     17  H   UNL     1      46.976   4.689  14.941  0.00  0.00    +0.000 HD
BRANCH  16  22
ATOM     18 CL   UNL     1      49.544   4.829  20.576  0.00  0.00    +0.000 Cl
ATOM     19  C   UNL     1      49.043   4.989  18.947  0.00  0.00    +0.000 A 
ATOM     20  C   UNL     1      49.934   4.949  17.892  0.00  0.00    +0.000 A 
ATOM     21  N   UNL     1      49.543   5.045  16.592  0.00  0.00    +0.000 NA
ATOM     22  C   UNL     1      48.217   5.183  16.377  0.00  0.00    +0.000 A 
ATOM     23  C   UNL     1      47.339   5.254  17.467  0.00  0.00    +0.000 A 
ATOM     24  N   UNL     1      47.719   5.150  18.767  0.00  0.00    +0.000 NA
ENDBRANCH  16  22
ENDBRANCH   1  16
TORSDOF 4
ENDMDL
MODEL 8
REMARK VINA RESULT:    -5.791      3.395      7.188
REMARK INTER + INTRA:          -7.347
REMARK INTER:                  -7.847
REMARK INTRA:                   0.501
REMARK UNBOUND:                -0.201
REMARK  Name = 
REMARK  4 active torsions:
REMARK  status: ('A' for Active; 'I' for Inactive)
REMARK    1  A    between atoms: C_5  and  N_6
REMARK    2  A    between atoms: N_6  and  C_7
REMARK    3  A    between atoms: C_7  and  C_8
REMARK    4  A    between atoms: C_12  and  C_13
REMARK                            x       y       z     vdW  Elec       q    Type
REMARK                         _______ _______ _______ _____ _____    ______ ____
ROOT
ATOM      1  C   UNL     1      48.721   6.973  15.459  0.00  0.00    +0.000 C 
ATOM      2  C   UNL     1      50.218   7.262  15.542  0.00  0.00    +0.000 C 
ATOM      3  C   UNL     1      49.249   8.275  16.040  0.00  0.00    +0.000 C 
ENDROOT
BRANCH   1   4
ATOM      4  C   UNL     1      48.097   7.027  14.061  0.00  0.00    +0.000 A 
ATOM      5  C   UNL     1      48.672   7.774  13.023  0.00  0.00    +0.000 A 
ATOM      6  C   UNL     1      48.211   7.667  11.712  0.00  0.00    +0.000 A 
ATOM      7  C   UNL     1      47.172   6.787  11.408  0.00  0.00    +0.000 A 
ATOM      8  C   UNL     1      46.541   6.038  12.412  0.00  0.00    +0.000 A 
ATOM      9  C   UNL     1      46.984   6.225  13.734  0.00  0.00    +0.000 A 
BRANCH   8  10
ATOM     10  C   UNL     1      45.533   5.008  12.097  0.00  0.00    +0.000 A 
ATOM     11  C   UNL     1      45.090   4.751  10.792  0.00  0.00    +0.000 A 
ATOM     12  C   UNL     1      44.079   3.819  10.556  0.00  0.00    +0.000 A 
ATOM     13  C   UNL     1      43.534   3.151  11.639  0.00  0.00    +0.000 A 
ATOM     14  N   UNL     1      43.923   3.355  12.912  0.00  0.00    +0.000 NA
ATOM     15  C   UNL     1      44.899   4.275  13.106  0.00  0.00    +0.000 A 
ENDBRANCH   8  10
ENDBRANCH   1   4
BRANCH   1  16
ATOM     16  N   UNL     1      48.175   5.932  16.352  0.00  0.00    +0.000 N 
ATOM     17  H   UNL     1      47.693   6.242  17.195  0.00  0.00    +0.000 HD
BRANCH  16  22
ATOM     18 CL   UNL     1      51.098   1.110  17.784  0.00  0.00    +0.000 Cl
ATOM     19  C   UNL     1      50.248   2.525  17.333  0.00  0.00    +0.000 A 
ATOM     20  C   UNL     1      49.049   2.481  16.648  0.00  0.00    +0.000 A 
ATOM     21  N   UNL     1      48.351   3.599  16.310  0.00  0.00    +0.000 NA
ATOM     22  C   UNL     1      48.893   4.778  16.686  0.00  0.00    +0.000 A 
ATOM     23  C   UNL     1      50.126   4.794  17.352  0.00  0.00    +0.000 A 
ATOM     24  N   UNL     1      50.827   3.683  17.700  0.00  0.00    +0.000 NA
ENDBRANCH  16  22
ENDBRANCH   1  16
TORSDOF 4
ENDMDL
MODEL 9
REMARK VINA RESULT:    -5.583      3.777      8.141
REMARK INTER + INTRA:          -7.089
REMARK INTER:                  -6.839
REMARK INTRA:                  -0.251
REMARK UNBOUND:                -0.201
REMARK  Name = 
REMARK  4 active torsions:
REMARK  status: ('A' for Active; 'I' for Inactive)
REMARK    1  A    between atoms: C_5  and  N_6
REMARK    2  A    between atoms: N_6  and  C_7
REMARK    3  A    between atoms: C_7  and  C_8
REMARK    4  A    between atoms: C_12  and  C_13
REMARK                            x       y       z     vdW  Elec       q    Type
REMARK                         _______ _______ _______ _____ _____    ______ ____
ROOT
ATOM      1  C   UNL     1      48.047   4.639  16.594  0.00  0.00    +0.000 C 
ATOM      2  C   UNL     1      46.980   3.665  17.088  0.00  0.00    +0.000 C 
ATOM      3  C   UNL     1      48.241   3.135  16.503  0.00  0.00    +0.000 C 
ENDROOT
BRANCH   1   4
ATOM      4  C   UNL     1      47.730   5.390  15.297  0.00  0.00    +0.000 A 
ATOM      5  C   UNL     1      48.489   6.490  14.874  0.00  0.00    +0.000 A 
ATOM      6  C   UNL     1      48.317   7.044  13.607  0.00  0.00    +0.000 A 
ATOM      7  C   UNL     1      47.388   6.493  12.724  0.00  0.00    +0.000 A 
ATOM      8  C   UNL     1      46.580   5.411  13.107  0.00  0.00    +0.000 A 
ATOM      9  C   UNL     1      46.732   4.923  14.417  0.00  0.00    +0.000 A 
BRANCH   8  10
ATOM     10  C   UNL     1      45.688   4.730  12.150  0.00  0.00    +0.000 A 
ATOM     11  C   UNL     1      45.394   5.250  10.881  0.00  0.00    +0.000 A 
ATOM     12  C   UNL     1      44.484   4.605  10.044  0.00  0.00    +0.000 A 
ATOM     13  C   UNL     1      43.889   3.438  10.492  0.00  0.00    +0.000 A 
ATOM     14  N   UNL     1      44.137   2.892  11.698  0.00  0.00    +0.000 NA
ATOM     15  C   UNL     1      45.017   3.551  12.491  0.00  0.00    +0.000 A 
ENDBRANCH   8  10
ENDBRANCH   1   4
BRANCH   1  16
ATOM     16  N   UNL     1      48.782   5.420  17.609  0.00  0.00    +0.000 N 
ATOM     17  H   UNL     1      48.692   6.435  17.575  0.00  0.00    +0.000 HD
BRANCH  16  22
ATOM     18 CL   UNL     1      54.284   4.169  19.026  0.00  0.00    +0.000 Cl
ATOM     19  C   UNL     1      52.673   4.567  18.608  0.00  0.00    +0.000 A 
ATOM     20  C   UNL     1      52.304   4.902  17.319  0.00  0.00    +0.000 A 
ATOM     21  N   UNL     1      51.021   5.192  16.971  0.00  0.00    +0.000 NA
ATOM     22  C   UNL     1      50.106   5.134  17.962  0.00  0.00    +0.000 A 
ATOM     23  C   UNL     1      50.514   4.823  19.267  0.00  0.00    +0.000 A 
ATOM     24  N   UNL     1      51.790   4.525  19.622  0.00  0.00    +0.000 NA
ENDBRANCH  16  22
ENDBRANCH   1  16
TORSDOF 4
ENDMDL
