MODEL 1
REMARK VINA RESULT:    -7.047      0.000      0.000
REMARK INTER + INTRA:         -12.145
REMARK INTER:                 -10.342
REMARK INTRA:                  -1.803
REMARK UNBOUND:                -1.803
REMARK  Name = 
REMARK  10 active torsions:
REMARK  status: ('A' for Active; 'I' for Inactive)
REMARK    1  A    between atoms: C_1  and  O_2
REMARK    2  A    between atoms: O_2  and  C_3
REMARK    3  A    between atoms: C_3  and  C_5
REMARK    4  A    between atoms: C_5  and  C_6
REMARK    5  A    between atoms: C_6  and  N_7
REMARK    6  A    between atoms: C_6  and  C_20
REMARK    7  A    between atoms: C_8  and  C_10
REMARK    8  A    between atoms: C_23  and  C_24
REMARK    9  A    between atoms: C_24  and  C_25
REMARK   10  A    between atoms: C_24  and  N_26
REMARK                            x       y       z     vdW  Elec       q    Type
REMARK                         _______ _______ _______ _____ _____    ______ ____
ROOT
ATOM      1  C   UNL     1      48.701   5.838  16.783  0.00  0.00    +0.000 C 
ENDROOT
BRANCH   1   2
ATOM      2  C   UNL     1      48.436   7.083  17.624  0.00  0.00    +0.000 A 
ATOM      3  C   UNL     1      48.802   8.344  17.140  0.00  0.00    +0.000 A 
ATOM      4  C   UNL     1      48.518   9.494  17.879  0.00  0.00    +0.000 A 
ATOM      5  C   UNL     1      47.829   9.418  19.101  0.00  0.00    +0.000 A 
ATOM      6  C   UNL     1      47.521   8.153  19.614  0.00  0.00    +0.000 A 
ATOM      7  C   UNL     1      47.819   7.000  18.883  0.00  0.00    +0.000 A 
BRANCH   5   8
ATOM      8  C   UNL     1      47.349  10.704  19.761  0.00  0.00    +0.000 C 
ATOM      9  C   UNL     1      46.116  10.412  20.636  0.00  0.00    +0.000 C 
BRANCH   8  10
ATOM     10  N   UNL     1      48.384  11.520  20.380  0.00  0.00    +0.000 NA
ATOM     11  C   UNL     1      48.743  12.771  19.715  0.00  0.00    +0.000 C 
ATOM     12  C   UNL     1      50.168  12.772  19.148  0.00  0.00    +0.000 C 
ATOM     13  O   UNL     1      51.123  12.423  20.156  0.00  0.00    +0.000 OA
ATOM     14  C   UNL     1      50.855  11.107  20.657  0.00  0.00    +0.000 C 
ATOM     15  C   UNL     1      49.433  10.978  21.231  0.00  0.00    +0.000 C 
ENDBRANCH   8  10
ENDBRANCH   5   8
ENDBRANCH   1   2
BRANCH   1  16
ATOM     16  N   UNL     1      47.726   5.809  15.690  0.00  0.00    +0.000 N 
ATOM     17  C   UNL     1      48.024   6.212  14.412  0.00  0.00    +0.000 C 
ATOM     18  O   UNL     1      49.151   6.563  14.076  0.00  0.00    +0.000 OA
ATOM     19  H   UNL     1      46.747   5.826  15.970  0.00  0.00    +0.000 HD
BRANCH  17  20
ATOM     20  C   UNL     1      46.939   6.136  13.430  0.00  0.00    +0.000 A 
ATOM     21  C   UNL     1      46.419   7.299  12.880  0.00  0.00    +0.000 A 
ATOM     22  S   UNL     1      45.138   7.025  11.789  0.00  0.00    +0.000 S 
ATOM     23  C   UNL     1      45.204   5.346  12.050  0.00  0.00    +0.000 A 
ATOM     24  N   UNL     1      44.309   4.506  11.462  0.00  0.00    +0.000 NA
ATOM     25  C   UNL     1      44.448   3.265  11.789  0.00  0.00    +0.000 A 
ATOM     26  N   UNL     1      45.423   2.783  12.631  0.00  0.00    +0.000 N 
ATOM     27  C   UNL     1      46.387   3.582  13.193  0.00  0.00    +0.000 A 
ATOM     28  O   UNL     1      47.304   3.118  13.855  0.00  0.00    +0.000 OA
ATOM     29  C   UNL     1      46.226   4.995  12.911  0.00  0.00    +0.000 A 
ATOM     30  H   UNL     1      45.502   1.793  12.814  0.00  0.00    +0.000 HD
ENDBRANCH  17  20
ENDBRANCH   1  16
BRANCH   1  31
ATOM     31  C   UNL     1      48.644   4.569  17.642  0.00  0.00    +0.000 C 
BRANCH  31  32
ATOM     32  C   UNL     1      47.797   3.500  17.003  0.00  0.00    +0.000 C 
ATOM     33  O   UNL     1      46.580   3.421  17.082  0.00  0.00    +0.000 OA
BRANCH  32  35
ATOM     34  C   UNL     1      49.847   2.301  17.024  0.00  0.00    +0.000 C 
ATOM     35  O   UNL     1      48.613   2.610  16.372  0.00  0.00    +0.000 OA
ENDBRANCH  32  35
ENDBRANCH  31  32
ENDBRANCH   1  31
TORSDOF 8
ENDMDL
MODEL 2
REMARK VINA RESULT:    -6.737      1.407      2.125
REMARK INTER + INTRA:         -11.691
REMARK INTER:                  -9.831
REMARK INTRA:                  -1.860
REMARK UNBOUND:                -1.803
REMARK  Name = 
REMARK  10 active torsions:
REMARK  status: ('A' for Active; 'I' for Inactive)
REMARK    1  A    between atoms: C_1  and  O_2
REMARK    2  A    between atoms: O_2  and  C_3
REMARK    3  A    between atoms: C_3  and  C_5
REMARK    4  A    between atoms: C_5  and  C_6
REMARK    5  A    between atoms: C_6  and  N_7
REMARK    6  A    between atoms: C_6  and  C_20
REMARK    7  A    between atoms: C_8  and  C_10
REMARK    8  A    between atoms: C_23  and  C_24
REMARK    9  A    between atoms: C_24  and  C_25
REMARK   10  A    between atoms: C_24  and  N_26
REMARK                            x       y       z     vdW  Elec       q    Type
REMARK                         _______ _______ _______ _____ _____    ______ ____
ROOT
ATOM      1  C   UNL     1      48.945   5.582  16.918  0.00  0.00    +0.000 C 
ENDROOT
BRANCH   1   2
ATOM      2  C   UNL     1      48.898   6.888  17.705  0.00  0.00    +0.000 A 
ATOM      3  C   UNL     1      50.084   7.476  18.157  0.00  0.00    +0.000 A 
ATOM      4  C   UNL     1      50.056   8.696  18.833  0.00  0.00    +0.000 A 
ATOM      5  C   UNL     1      48.847   9.380  19.043  0.00  0.00    +0.000 A 
ATOM      6  C   UNL     1      47.655   8.762  18.648  0.00  0.00    +0.000 A 
ATOM      7  C   UNL     1      47.681   7.532  17.984  0.00  0.00    +0.000 A 
BRANCH   5   8
ATOM      8  C   UNL     1      48.885  10.802  19.585  0.00  0.00    +0.000 C 
ATOM      9  C   UNL     1      48.819  11.807  18.420  0.00  0.00    +0.000 C 
BRANCH   8  10
ATOM     10  N   UNL     1      47.996  11.075  20.706  0.00  0.00    +0.000 NA
ATOM     11  C   UNL     1      48.120  10.222  21.887  0.00  0.00    +0.000 C 
ATOM     12  C   UNL     1      46.891   9.338  22.130  0.00  0.00    +0.000 C 
ATOM     13  O   UNL     1      45.693  10.122  22.174  0.00  0.00    +0.000 OA
ATOM     14  C   UNL     1      45.500  10.801  20.927  0.00  0.00    +0.000 C 
ATOM     15  C   UNL     1      46.692  11.704  20.562  0.00  0.00    +0.000 C 
ENDBRANCH   8  10
ENDBRANCH   5   8
ENDBRANCH   1   2
BRANCH   1  16
ATOM     16  N   UNL     1      47.948   5.658  15.846  0.00  0.00    +0.000 N 
ATOM     17  C   UNL     1      48.219   6.190  14.610  0.00  0.00    +0.000 C 
ATOM     18  O   UNL     1      49.338   6.579  14.289  0.00  0.00    +0.000 OA
ATOM     19  H   UNL     1      46.976   5.641  16.146  0.00  0.00    +0.000 HD
BRANCH  17  20
ATOM     20  C   UNL     1      47.115   6.207  13.647  0.00  0.00    +0.000 A 
ATOM     21  C   UNL     1      46.626   7.416  13.174  0.00  0.00    +0.000 A 
ATOM     22  S   UNL     1      45.317   7.249  12.094  0.00  0.00    +0.000 S 
ATOM     23  C   UNL     1      45.330   5.556  12.259  0.00  0.00    +0.000 A 
ATOM     24  N   UNL     1      44.395   4.783  11.642  0.00  0.00    +0.000 NA
ATOM     25  C   UNL     1      44.496   3.520  11.896  0.00  0.00    +0.000 A 
ATOM     26  N   UNL     1      45.468   2.959  12.690  0.00  0.00    +0.000 N 
ATOM     27  C   UNL     1      46.469   3.691  13.277  0.00  0.00    +0.000 A 
ATOM     28  O   UNL     1      47.381   3.158  13.894  0.00  0.00    +0.000 OA
ATOM     29  C   UNL     1      46.353   5.123  13.079  0.00  0.00    +0.000 A 
ATOM     30  H   UNL     1      45.515   1.957  12.816  0.00  0.00    +0.000 HD
ENDBRANCH  17  20
ENDBRANCH   1  16
BRANCH   1  31
ATOM     31  C   UNL     1      48.716   4.375  17.835  0.00  0.00    +0.000 C 
BRANCH  31  32
ATOM     32  C   UNL     1      47.953   3.280  17.138  0.00  0.00    +0.000 C 
ATOM     33  O   UNL     1      46.751   3.086  17.231  0.00  0.00    +0.000 OA
BRANCH  32  35
ATOM     34  C   UNL     1      50.036   2.141  17.101  0.00  0.00    +0.000 C 
ATOM     35  O   UNL     1      48.830   2.513  16.432  0.00  0.00    +0.000 OA
ENDBRANCH  32  35
ENDBRANCH  31  32
ENDBRANCH   1  31
TORSDOF 8
ENDMDL
MODEL 3
REMARK VINA RESULT:    -6.573      3.151      9.233
REMARK INTER + INTRA:         -11.450
REMARK INTER:                  -9.695
REMARK INTRA:                  -1.756
REMARK UNBOUND:                -1.803
REMARK  Name = 
REMARK  10 active torsions:
REMARK  status: ('A' for Active; 'I' for Inactive)
REMARK    1  A    between atoms: C_1  and  O_2
REMARK    2  A    between atoms: O_2  and  C_3
REMARK    3  A    between atoms: C_3  and  C_5
REMARK    4  A    between atoms: C_5  and  C_6
REMARK    5  A    between atoms: C_6  and  N_7
REMARK    6  A    between atoms: C_6  and  C_20
REMARK    7  A    between atoms: C_8  and  C_10
REMARK    8  A    between atoms: C_23  and  C_24
REMARK    9  A    between atoms: C_24  and  C_25
REMARK   10  A    between atoms: C_24  and  N_26
REMARK                            x       y       z     vdW  Elec       q    Type
REMARK                         _______ _______ _______ _____ _____    ______ ____
ROOT
ATOM      1  C   UNL     1      48.755   6.803  13.658  0.00  0.00    +0.000 C 
ENDROOT
BRANCH   1   2
ATOM      2  C   UNL     1      47.579   6.103  12.983  0.00  0.00    +0.000 A 
ATOM      3  C   UNL     1      47.053   4.930  13.534  0.00  0.00    +0.000 A 
ATOM      4  C   UNL     1      45.945   4.311  12.954  0.00  0.00    +0.000 A 
ATOM      5  C   UNL     1      45.310   4.868  11.830  0.00  0.00    +0.000 A 
ATOM      6  C   UNL     1      45.875   6.005  11.242  0.00  0.00    +0.000 A 
ATOM      7  C   UNL     1      46.995   6.617  11.814  0.00  0.00    +0.000 A 
BRANCH   5   8
ATOM      8  C   UNL     1      43.983   4.285  11.366  0.00  0.00    +0.000 C 
ATOM      9  C   UNL     1      42.838   5.258  11.705  0.00  0.00    +0.000 C 
BRANCH   8  10
ATOM     10  N   UNL     1      43.970   3.741  10.015  0.00  0.00    +0.000 NA
ATOM     11  C   UNL     1      44.229   2.311   9.862  0.00  0.00    +0.000 C 
ATOM     12  C   UNL     1      45.547   2.004   9.141  0.00  0.00    +0.000 C 
ATOM     13  O   UNL     1      45.616   2.685   7.883  0.00  0.00    +0.000 OA
ATOM     14  C   UNL     1      45.549   4.102   8.084  0.00  0.00    +0.000 C 
ATOM     15  C   UNL     1      44.272   4.529   8.830  0.00  0.00    +0.000 C 
ENDBRANCH   8  10
ENDBRANCH   5   8
ENDBRANCH   1   2
BRANCH   1  16
ATOM     16  N   UNL     1      48.355   7.156  15.023  0.00  0.00    +0.000 N 
ATOM     17  C   UNL     1      49.075   6.787  16.132  0.00  0.00    +0.000 C 
ATOM     18  O   UNL     1      50.145   6.190  16.056  0.00  0.00    +0.000 OA
ATOM     19  H   UNL     1      47.367   7.364  15.154  0.00  0.00    +0.000 HD
BRANCH  17  20
ATOM     20  C   UNL     1      48.540   7.205  17.430  0.00  0.00    +0.000 A 
ATOM     21  C   UNL     1      48.295   8.548  17.679  0.00  0.00    +0.000 A 
ATOM     22  S   UNL     1      47.714   8.858  19.251  0.00  0.00    +0.000 S 
ATOM     23  C   UNL     1      47.816   7.212  19.669  0.00  0.00    +0.000 A 
ATOM     24  N   UNL     1      47.529   6.787  20.930  0.00  0.00    +0.000 NA
ATOM     25  C   UNL     1      47.697   5.520  21.117  0.00  0.00    +0.000 A 
ATOM     26  N   UNL     1      48.101   4.634  20.145  0.00  0.00    +0.000 N 
ATOM     27  C   UNL     1      48.337   5.006  18.846  0.00  0.00    +0.000 A 
ATOM     28  O   UNL     1      48.595   4.185  17.977  0.00  0.00    +0.000 OA
ATOM     29  C   UNL     1      48.231   6.432  18.607  0.00  0.00    +0.000 A 
ATOM     30  H   UNL     1      48.174   3.647  20.347  0.00  0.00    +0.000 HD
ENDBRANCH  17  20
ENDBRANCH   1  16
BRANCH   1  31
ATOM     31  C   UNL     1      49.206   8.027  12.853  0.00  0.00    +0.000 C 
BRANCH  31  32
ATOM     32  C   UNL     1      48.988   9.308  13.615  0.00  0.00    +0.000 C 
ATOM     33  O   UNL     1      49.780   9.807  14.399  0.00  0.00    +0.000 OA
BRANCH  32  35
ATOM     34  C   UNL     1      47.541  10.276  12.000  0.00  0.00    +0.000 C 
ATOM     35  O   UNL     1      47.745   9.784  13.326  0.00  0.00    +0.000 OA
ENDBRANCH  32  35
ENDBRANCH  31  32
ENDBRANCH   1  31
TORSDOF 8
ENDMDL
MODEL 4
REMARK VINA RESULT:    -6.515      3.854      8.260
REMARK INTER + INTRA:         -11.365
REMARK INTER:                  -9.347
REMARK INTRA:                  -2.018
REMARK UNBOUND:                -1.803
REMARK  Name = 
REMARK  10 active torsions:
REMARK  status: ('A' for Active; 'I' for Inactive)
REMARK    1  A    between atoms: C_1  and  O_2
REMARK    2  A    between atoms: O_2  and  C_3
REMARK    3  A    between atoms: C_3  and  C_5
REMARK    4  A    between atoms: C_5  and  C_6
REMARK    5  A    between atoms: C_6  and  N_7
REMARK    6  A    between atoms: C_6  and  C_20
REMARK    7  A    between atoms: C_8  and  C_10
REMARK    8  A    between atoms: C_23  and  C_24
REMARK    9  A    between atoms: C_24  and  C_25
REMARK   10  A    between atoms: C_24  and  N_26
REMARK                            x       y       z     vdW  Elec       q    Type
REMARK                         _______ _______ _______ _____ _____    ______ ____
ROOT
ATOM      1  C   UNL     1      49.532   6.812  17.373  0.00  0.00    +0.000 C 
ENDROOT
BRANCH   1   2
ATOM      2  C   UNL     1      48.752   6.230  16.198  0.00  0.00    +0.000 A 
ATOM      3  C   UNL     1      48.008   5.056  16.364  0.00  0.00    +0.000 A 
ATOM      4  C   UNL     1      47.251   4.544  15.311  0.00  0.00    +0.000 A 
ATOM      5  C   UNL     1      47.184   5.210  14.075  0.00  0.00    +0.000 A 
ATOM      6  C   UNL     1      47.978   6.347  13.889  0.00  0.00    +0.000 A 
ATOM      7  C   UNL     1      48.751   6.853  14.939  0.00  0.00    +0.000 A 
BRANCH   5   8
ATOM      8  C   UNL     1      46.179   4.739  13.033  0.00  0.00    +0.000 C 
ATOM      9  C   UNL     1      46.098   3.201  13.044  0.00  0.00    +0.000 C 
BRANCH   8  10
ATOM     10  N   UNL     1      44.902   5.439  13.028  0.00  0.00    +0.000 NA
ATOM     11  C   UNL     1      43.688   4.624  13.006  0.00  0.00    +0.000 C 
ATOM     12  C   UNL     1      42.887   4.758  11.705  0.00  0.00    +0.000 C 
ATOM     13  O   UNL     1      42.601   6.132  11.417  0.00  0.00    +0.000 OA
ATOM     14  C   UNL     1      43.819   6.868  11.256  0.00  0.00    +0.000 C 
ATOM     15  C   UNL     1      44.724   6.782  12.498  0.00  0.00    +0.000 C 
ENDBRANCH   8  10
ENDBRANCH   5   8
ENDBRANCH   1   2
BRANCH   1  16
ATOM     16  N   UNL     1      50.460   5.788  17.858  0.00  0.00    +0.000 N 
ATOM     17  C   UNL     1      51.678   5.544  17.273  0.00  0.00    +0.000 C 
ATOM     18  O   UNL     1      52.108   6.216  16.339  0.00  0.00    +0.000 OA
ATOM     19  H   UNL     1      50.042   5.034  18.399  0.00  0.00    +0.000 HD
BRANCH  17  20
ATOM     20  C   UNL     1      52.490   4.478  17.866  0.00  0.00    +0.000 A 
ATOM     21  C   UNL     1      53.696   4.785  18.480  0.00  0.00    +0.000 A 
ATOM     22  S   UNL     1      54.526   3.421  19.077  0.00  0.00    +0.000 S 
ATOM     23  C   UNL     1      53.323   2.369  18.492  0.00  0.00    +0.000 A 
ATOM     24  N   UNL     1      53.453   1.019  18.607  0.00  0.00    +0.000 NA
ATOM     25  C   UNL     1      52.489   0.343  18.076  0.00  0.00    +0.000 A 
ATOM     26  N   UNL     1      51.390   0.900  17.463  0.00  0.00    +0.000 N 
ATOM     27  C   UNL     1      51.185   2.254  17.384  0.00  0.00    +0.000 A 
ATOM     28  O   UNL     1      50.153   2.723  16.927  0.00  0.00    +0.000 OA
ATOM     29  C   UNL     1      52.278   3.053  17.903  0.00  0.00    +0.000 A 
ATOM     30  H   UNL     1      50.650   0.314  17.103  0.00  0.00    +0.000 HD
ENDBRANCH  17  20
ENDBRANCH   1  16
BRANCH   1  31
ATOM     31  C   UNL     1      48.587   7.304  18.475  0.00  0.00    +0.000 C 
BRANCH  31  32
ATOM     32  C   UNL     1      49.055   6.882  19.842  0.00  0.00    +0.000 C 
ATOM     33  O   UNL     1      49.963   7.403  20.471  0.00  0.00    +0.000 OA
BRANCH  32  35
ATOM     34  C   UNL     1      47.303   6.021  21.195  0.00  0.00    +0.000 C 
ATOM     35  O   UNL     1      48.337   5.792  20.235  0.00  0.00    +0.000 OA
ENDBRANCH  32  35
ENDBRANCH  31  32
ENDBRANCH   1  31
TORSDOF 8
ENDMDL
MODEL 5
REMARK VINA RESULT:    -6.381      3.741      5.863
REMARK INTER + INTRA:         -11.169
REMARK INTER:                  -9.579
REMARK INTRA:                  -1.590
REMARK UNBOUND:                -1.803
REMARK  Name = 
REMARK  10 active torsions:
REMARK  status: ('A' for Active; 'I' for Inactive)
REMARK    1  A    between atoms: C_1  and  O_2
REMARK    2  A    between atoms: O_2  and  C_3
REMARK    3  A    between atoms: C_3  and  C_5
REMARK    4  A    between atoms: C_5  and  C_6
REMARK    5  A    between atoms: C_6  and  N_7
REMARK    6  A    between atoms: C_6  and  C_20
REMARK    7  A    between atoms: C_8  and  C_10
REMARK    8  A    between atoms: C_23  and  C_24
REMARK    9  A    between atoms: C_24  and  C_25
REMARK   10  A    between atoms: C_24  and  N_26
REMARK                            x       y       z     vdW  Elec       q    Type
REMARK                         _______ _______ _______ _____ _____    ______ ____
ROOT
ATOM      1  C   UNL     1      48.415   7.582  12.779  0.00  0.00    +0.000 C 
ENDROOT
BRANCH   1   2
ATOM      2  C   UNL     1      48.663   7.053  14.188  0.00  0.00    +0.000 A 
ATOM      3  C   UNL     1      49.589   7.689  15.022  0.00  0.00    +0.000 A 
ATOM      4  C   UNL     1      49.785   7.245  16.330  0.00  0.00    +0.000 A 
ATOM      5  C   UNL     1      49.035   6.177  16.853  0.00  0.00    +0.000 A 
ATOM      6  C   UNL     1      48.156   5.500  15.999  0.00  0.00    +0.000 A 
ATOM      7  C   UNL     1      47.970   5.935  14.683  0.00  0.00    +0.000 A 
BRANCH   5   8
ATOM      8  C   UNL     1      49.123   5.869  18.341  0.00  0.00    +0.000 C 
ATOM      9  C   UNL     1      47.789   6.220  19.026  0.00  0.00    +0.000 C 
BRANCH   8  10
ATOM     10  N   UNL     1      49.688   4.572  18.685  0.00  0.00    +0.000 NA
ATOM     11  C   UNL     1      51.138   4.492  18.853  0.00  0.00    +0.000 C 
ATOM     12  C   UNL     1      51.829   3.641  17.780  0.00  0.00    +0.000 C 
ATOM     13  O   UNL     1      51.239   2.339  17.697  0.00  0.00    +0.000 OA
ATOM     14  C   UNL     1      49.854   2.444  17.344  0.00  0.00    +0.000 C 
ATOM     15  C   UNL     1      49.059   3.306  18.342  0.00  0.00    +0.000 C 
ENDBRANCH   8  10
ENDBRANCH   5   8
ENDBRANCH   1   2
BRANCH   1  16
ATOM     16  N   UNL     1      47.669   6.565  12.033  0.00  0.00    +0.000 N 
ATOM     17  C   UNL     1      46.367   6.737  11.634  0.00  0.00    +0.000 C 
ATOM     18  O   UNL     1      45.753   7.786  11.814  0.00  0.00    +0.000 OA
ATOM     19  H   UNL     1      48.006   5.610  12.130  0.00  0.00    +0.000 HD
BRANCH  17  20
ATOM     20  C   UNL     1      45.751   5.625  10.906  0.00  0.00    +0.000 A 
ATOM     21  C   UNL     1      45.831   5.573   9.522  0.00  0.00    +0.000 A 
ATOM     22  S   UNL     1      45.025   4.234   8.840  0.00  0.00    +0.000 S 
ATOM     23  C   UNL     1      44.502   3.704  10.370  0.00  0.00    +0.000 A 
ATOM     24  N   UNL     1      43.687   2.622  10.498  0.00  0.00    +0.000 NA
ATOM     25  C   UNL     1      43.330   2.364  11.712  0.00  0.00    +0.000 A 
ATOM     26  N   UNL     1      43.740   3.077  12.815  0.00  0.00    +0.000 N 
ATOM     27  C   UNL     1      44.613   4.133  12.740  0.00  0.00    +0.000 A 
ATOM     28  O   UNL     1      45.043   4.686  13.742  0.00  0.00    +0.000 OA
ATOM     29  C   UNL     1      44.984   4.503  11.388  0.00  0.00    +0.000 A 
ATOM     30  H   UNL     1      43.455   2.799  13.743  0.00  0.00    +0.000 HD
ENDBRANCH  17  20
ENDBRANCH   1  16
BRANCH   1  31
ATOM     31  C   UNL     1      49.733   7.953  12.089  0.00  0.00    +0.000 C 
BRANCH  31  32
ATOM     32  C   UNL     1      49.712   9.366  11.569  0.00  0.00    +0.000 C 
ATOM     33  O   UNL     1      50.693  10.077  11.410  0.00  0.00    +0.000 OA
BRANCH  32  35
ATOM     34  C   UNL     1      48.082  11.092  11.663  0.00  0.00    +0.000 C 
ATOM     35  O   UNL     1      48.418   9.737  11.357  0.00  0.00    +0.000 OA
ENDBRANCH  32  35
ENDBRANCH  31  32
ENDBRANCH   1  31
TORSDOF 8
ENDMDL
MODEL 6
REMARK VINA RESULT:    -6.338      3.041      5.511
REMARK INTER + INTRA:         -11.106
REMARK INTER:                  -9.195
REMARK INTRA:                  -1.911
REMARK UNBOUND:                -1.803
REMARK  Name = 
REMARK  10 active torsions:
REMARK  status: ('A' for Active; 'I' for Inactive)
REMARK    1  A    between atoms: C_1  and  O_2
REMARK    2  A    between atoms: O_2  and  C_3
REMARK    3  A    between atoms: C_3  and  C_5
REMARK    4  A    between atoms: C_5  and  C_6
REMARK    5  A    between atoms: C_6  and  N_7
REMARK    6  A    between atoms: C_6  and  C_20
REMARK    7  A    between atoms: C_8  and  C_10
REMARK    8  A    between atoms: C_23  and  C_24
REMARK    9  A    between atoms: C_24  and  C_25
REMARK   10  A    between atoms: C_24  and  N_26
REMARK                            x       y       z     vdW  Elec       q    Type
REMARK                         _______ _______ _______ _____ _____    ______ ____
ROOT
ATOM      1  C   UNL     1      47.930   7.821  12.313  0.00  0.00    +0.000 C 
ENDROOT
BRANCH   1   2
ATOM      2  C   UNL     1      48.337   7.827  13.784  0.00  0.00    +0.000 A 
ATOM      3  C   UNL     1      47.860   8.827  14.638  0.00  0.00    +0.000 A 
ATOM      4  C   UNL     1      48.185   8.812  15.995  0.00  0.00    +0.000 A 
ATOM      5  C   UNL     1      48.963   7.778  16.542  0.00  0.00    +0.000 A 
ATOM      6  C   UNL     1      49.492   6.814  15.677  0.00  0.00    +0.000 A 
ATOM      7  C   UNL     1      49.180   6.837  14.314  0.00  0.00    +0.000 A 
BRANCH   5   8
ATOM      8  C   UNL     1      49.107   7.682  18.055  0.00  0.00    +0.000 C 
ATOM      9  C   UNL     1      48.556   8.960  18.714  0.00  0.00    +0.000 C 
BRANCH   8  10
ATOM     10  N   UNL     1      48.674   6.427  18.652  0.00  0.00    +0.000 NA
ATOM     11  C   UNL     1      49.705   5.439  18.965  0.00  0.00    +0.000 C 
ATOM     12  C   UNL     1      49.612   4.169  18.111  0.00  0.00    +0.000 C 
ATOM     13  O   UNL     1      48.300   3.597  18.181  0.00  0.00    +0.000 OA
ATOM     14  C   UNL     1      47.328   4.526  17.687  0.00  0.00    +0.000 C 
ATOM     15  C   UNL     1      47.348   5.859  18.457  0.00  0.00    +0.000 C 
ENDBRANCH   8  10
ENDBRANCH   5   8
ENDBRANCH   1   2
BRANCH   1  16
ATOM     16  N   UNL     1      47.083   6.649  12.078  0.00  0.00    +0.000 N 
ATOM     17  C   UNL     1      45.712   6.703  12.092  0.00  0.00    +0.000 C 
ATOM     18  O   UNL     1      45.094   7.755  12.236  0.00  0.00    +0.000 OA
ATOM     19  H   UNL     1      47.517   5.747  12.259  0.00  0.00    +0.000 HD
BRANCH  17  20
ATOM     20  C   UNL     1      45.002   5.444  11.851  0.00  0.00    +0.000 A 
ATOM     21  C   UNL     1      44.268   4.856  12.871  0.00  0.00    +0.000 A 
ATOM     22  S   UNL     1      43.543   3.378  12.428  0.00  0.00    +0.000 S 
ATOM     23  C   UNL     1      44.226   3.451  10.871  0.00  0.00    +0.000 A 
ATOM     24  N   UNL     1      44.058   2.434   9.982  0.00  0.00    +0.000 NA
ATOM     25  C   UNL     1      44.673   2.602   8.858  0.00  0.00    +0.000 A 
ATOM     26  N   UNL     1      45.418   3.712   8.534  0.00  0.00    +0.000 N 
ATOM     27  C   UNL     1      45.560   4.789   9.373  0.00  0.00    +0.000 A 
ATOM     28  O   UNL     1      46.141   5.806   9.024  0.00  0.00    +0.000 OA
ATOM     29  C   UNL     1      44.946   4.613  10.675  0.00  0.00    +0.000 A 
ATOM     30  H   UNL     1      45.841   3.799   7.621  0.00  0.00    +0.000 HD
ENDBRANCH  17  20
ENDBRANCH   1  16
BRANCH   1  31
ATOM     31  C   UNL     1      49.161   7.837  11.399  0.00  0.00    +0.000 C 
BRANCH  31  32
ATOM     32  C   UNL     1      49.894   9.151  11.474  0.00  0.00    +0.000 C 
ATOM     33  O   UNL     1      49.426  10.239  11.177  0.00  0.00    +0.000 OA
BRANCH  32  35
ATOM     34  C   UNL     1      51.573   9.494  13.118  0.00  0.00    +0.000 C 
ATOM     35  O   UNL     1      51.176   8.917  11.873  0.00  0.00    +0.000 OA
ENDBRANCH  32  35
ENDBRANCH  31  32
ENDBRANCH   1  31
TORSDOF 8
ENDMDL
MODEL 7
REMARK VINA RESULT:    -6.303      3.545      9.851
REMARK INTER + INTRA:         -11.054
REMARK INTER:                  -9.431
REMARK INTRA:                  -1.623
REMARK UNBOUND:                -1.803
REMARK  Name = 
REMARK  10 active torsions:
REMARK  status: ('A' for Active; 'I' for Inactive)
REMARK    1  A    between atoms: C_1  and  O_2
REMARK    2  A    between atoms: O_2  and  C_3
REMARK    3  A    between atoms: C_3  and  C_5
REMARK    4  A    between atoms: C_5  and  C_6
REMARK    5  A    between atoms: C_6  and  N_7
REMARK    6  A    between atoms: C_6  and  C_20
REMARK    7  A    between atoms: C_8  and  C_10
REMARK    8  A    between atoms: C_23  and  C_24
REMARK    9  A    between atoms: C_24  and  C_25
REMARK   10  A    between atoms: C_24  and  N_26
REMARK                            x       y       z     vdW  Elec       q    Type
REMARK                         _______ _______ _______ _____ _____    ______ ____
ROOT
ATOM      1  C   UNL     1      46.117   8.923  12.298  0.00  0.00    +0.000 C 
ENDROOT
BRANCH   1   2
ATOM      2  C   UNL     1      45.696   7.548  11.786  0.00  0.00    +0.000 A 
ATOM      3  C   UNL     1      46.666   6.586  11.486  0.00  0.00    +0.000 A 
ATOM      4  C   UNL     1      46.290   5.310  11.067  0.00  0.00    +0.000 A 
ATOM      5  C   UNL     1      44.935   4.948  10.973  0.00  0.00    +0.000 A 
ATOM      6  C   UNL     1      43.966   5.929  11.212  0.00  0.00    +0.000 A 
ATOM      7  C   UNL     1      44.343   7.213  11.617  0.00  0.00    +0.000 A 
BRANCH   5   8
ATOM      8  C   UNL     1      44.574   3.489  10.727  0.00  0.00    +0.000 C 
ATOM      9  C   UNL     1      43.328   3.115  11.550  0.00  0.00    +0.000 C 
BRANCH   8  10
ATOM     10  N   UNL     1      44.560   3.069   9.333  0.00  0.00    +0.000 NA
ATOM     11  C   UNL     1      44.891   1.675   9.046  0.00  0.00    +0.000 C 
ATOM     12  C   UNL     1      46.207   1.506   8.277  0.00  0.00    +0.000 C 
ATOM     13  O   UNL     1      46.211   2.301   7.085  0.00  0.00    +0.000 OA
ATOM     14  C   UNL     1      46.073   3.688   7.415  0.00  0.00    +0.000 C 
ATOM     15  C   UNL     1      44.792   3.976   8.218  0.00  0.00    +0.000 C 
ENDBRANCH   8  10
ENDBRANCH   5   8
ENDBRANCH   1   2
BRANCH   1  16
ATOM     16  N   UNL     1      46.629   8.766  13.662  0.00  0.00    +0.000 N 
ATOM     17  C   UNL     1      47.930   9.036  14.007  0.00  0.00    +0.000 C 
ATOM     18  O   UNL     1      48.744   9.493  13.210  0.00  0.00    +0.000 OA
ATOM     19  H   UNL     1      46.109   8.125  14.257  0.00  0.00    +0.000 HD
BRANCH  17  20
ATOM     20  C   UNL     1      48.294   8.819  15.410  0.00  0.00    +0.000 A 
ATOM     21  C   UNL     1      48.470   9.905  16.256  0.00  0.00    +0.000 A 
ATOM     22  S   UNL     1      48.931   9.471  17.839  0.00  0.00    +0.000 S 
ATOM     23  C   UNL     1      48.957   7.819  17.434  0.00  0.00    +0.000 A 
ATOM     24  N   UNL     1      49.352   6.880  18.336  0.00  0.00    +0.000 NA
ATOM     25  C   UNL     1      49.371   5.673  17.877  0.00  0.00    +0.000 A 
ATOM     26  N   UNL     1      49.000   5.318  16.600  0.00  0.00    +0.000 N 
ATOM     27  C   UNL     1      48.532   6.221  15.679  0.00  0.00    +0.000 A 
ATOM     28  O   UNL     1      48.113   5.868  14.586  0.00  0.00    +0.000 OA
ATOM     29  C   UNL     1      48.564   7.599  16.128  0.00  0.00    +0.000 A 
ATOM     30  H   UNL     1      48.999   4.348  16.315  0.00  0.00    +0.000 HD
ENDBRANCH  17  20
ENDBRANCH   1  16
BRANCH   1  31
ATOM     31  C   UNL     1      44.954   9.919  12.227  0.00  0.00    +0.000 C 
BRANCH  31  32
ATOM     32  C   UNL     1      45.430  11.312  11.910  0.00  0.00    +0.000 C 
ATOM     33  O   UNL     1      46.597  11.647  11.777  0.00  0.00    +0.000 OA
BRANCH  32  35
ATOM     34  C   UNL     1      43.779  12.357  10.560  0.00  0.00    +0.000 C 
ATOM     35  O   UNL     1      44.351  12.143  11.852  0.00  0.00    +0.000 OA
ENDBRANCH  32  35
ENDBRANCH  31  32
ENDBRANCH   1  31
TORSDOF 8
ENDMDL
MODEL 8
REMARK VINA RESULT:    -6.262      3.228      5.212
REMARK INTER + INTRA:         -10.993
REMARK INTER:                  -9.206
REMARK INTRA:                  -1.787
REMARK UNBOUND:                -1.803
REMARK  Name = 
REMARK  10 active torsions:
REMARK  status: ('A' for Active; 'I' for Inactive)
REMARK    1  A    between atoms: C_1  and  O_2
REMARK    2  A    between atoms: O_2  and  C_3
REMARK    3  A    between atoms: C_3  and  C_5
REMARK    4  A    between atoms: C_5  and  C_6
REMARK    5  A    between atoms: C_6  and  N_7
REMARK    6  A    between atoms: C_6  and  C_20
REMARK    7  A    between atoms: C_8  and  C_10
REMARK    8  A    between atoms: C_23  and  C_24
REMARK    9  A    between atoms: C_24  and  C_25
REMARK   10  A    between atoms: C_24  and  N_26
REMARK                            x       y       z     vdW  Elec       q    Type
REMARK                         _______ _______ _______ _____ _____    ______ ____
ROOT
ATOM      1  C   UNL     1      48.319   7.263  13.310  0.00  0.00    +0.000 C 
ENDROOT
BRANCH   1   2
ATOM      2  C   UNL     1      48.621   6.606  14.654  0.00  0.00    +0.000 A 
ATOM      3  C   UNL     1      47.812   5.564  15.120  0.00  0.00    +0.000 A 
ATOM      4  C   UNL     1      48.109   4.922  16.323  0.00  0.00    +0.000 A 
ATOM      5  C   UNL     1      49.243   5.278  17.073  0.00  0.00    +0.000 A 
ATOM      6  C   UNL     1      50.014   6.362  16.639  0.00  0.00    +0.000 A 
ATOM      7  C   UNL     1      49.708   7.016  15.442  0.00  0.00    +0.000 A 
BRANCH   5   8
ATOM      8  C   UNL     1      49.650   4.410  18.256  0.00  0.00    +0.000 C 
ATOM      9  C   UNL     1      50.999   3.728  17.964  0.00  0.00    +0.000 C 
BRANCH   8  10
ATOM     10  N   UNL     1      49.528   5.033  19.567  0.00  0.00    +0.000 NA
ATOM     11  C   UNL     1      48.194   5.456  19.990  0.00  0.00    +0.000 C 
ATOM     12  C   UNL     1      48.048   6.978  20.111  0.00  0.00    +0.000 C 
ATOM     13  O   UNL     1      49.065   7.527  20.958  0.00  0.00    +0.000 OA
ATOM     14  C   UNL     1      50.362   7.256  20.414  0.00  0.00    +0.000 C 
ATOM     15  C   UNL     1      50.613   5.749  20.220  0.00  0.00    +0.000 C 
ENDBRANCH   8  10
ENDBRANCH   5   8
ENDBRANCH   1   2
BRANCH   1  16
ATOM     16  N   UNL     1      47.570   6.307  12.491  0.00  0.00    +0.000 N 
ATOM     17  C   UNL     1      46.446   6.651  11.782  0.00  0.00    +0.000 C 
ATOM     18  O   UNL     1      46.026   7.803  11.728  0.00  0.00    +0.000 OA
ATOM     19  H   UNL     1      47.685   5.327  12.741  0.00  0.00    +0.000 HD
BRANCH  17  20
ATOM     20  C   UNL     1      45.799   5.580  11.018  0.00  0.00    +0.000 A 
ATOM     21  C   UNL     1      45.866   5.579   9.632  0.00  0.00    +0.000 A 
ATOM     22  S   UNL     1      45.025   4.285   8.908  0.00  0.00    +0.000 S 
ATOM     23  C   UNL     1      44.504   3.708  10.422  0.00  0.00    +0.000 A 
ATOM     24  N   UNL     1      43.666   2.640  10.517  0.00  0.00    +0.000 NA
ATOM     25  C   UNL     1      43.314   2.345  11.724  0.00  0.00    +0.000 A 
ATOM     26  N   UNL     1      43.750   3.006  12.849  0.00  0.00    +0.000 N 
ATOM     27  C   UNL     1      44.646   4.044  12.805  0.00  0.00    +0.000 A 
ATOM     28  O   UNL     1      45.097   4.549  13.823  0.00  0.00    +0.000 OA
ATOM     29  C   UNL     1      45.012   4.458  11.465  0.00  0.00    +0.000 A 
ATOM     30  H   UNL     1      43.468   2.698  13.769  0.00  0.00    +0.000 HD
ENDBRANCH  17  20
ENDBRANCH   1  16
BRANCH   1  31
ATOM     31  C   UNL     1      49.608   7.729  12.622  0.00  0.00    +0.000 C 
BRANCH  31  32
ATOM     32  C   UNL     1      49.548   9.189  12.256  0.00  0.00    +0.000 C 
ATOM     33  O   UNL     1      50.357   9.775  11.554  0.00  0.00    +0.000 OA
BRANCH  32  35
ATOM     34  C   UNL     1      47.829  10.826  12.191  0.00  0.00    +0.000 C 
ATOM     35  O   UNL     1      48.477   9.755  12.880  0.00  0.00    +0.000 OA
ENDBRANCH  32  35
ENDBRANCH  31  32
ENDBRANCH   1  31
TORSDOF 8
ENDMDL
MODEL 9
REMARK VINA RESULT:    -6.253      4.207      6.777
REMARK INTER + INTRA:         -10.980
REMARK INTER:                  -9.518
REMARK INTRA:                  -1.462
REMARK UNBOUND:                -1.803
REMARK  Name = 
REMARK  10 active torsions:
REMARK  status: ('A' for Active; 'I' for Inactive)
REMARK    1  A    between atoms: C_1  and  O_2
REMARK    2  A    between atoms: O_2  and  C_3
REMARK    3  A    between atoms: C_3  and  C_5
REMARK    4  A    between atoms: C_5  and  C_6
REMARK    5  A    between atoms: C_6  and  N_7
REMARK    6  A    between atoms: C_6  and  C_20
REMARK    7  A    between atoms: C_8  and  C_10
REMARK    8  A    between atoms: C_23  and  C_24
REMARK    9  A    between atoms: C_24  and  C_25
REMARK   10  A    between atoms: C_24  and  N_26
REMARK                            x       y       z     vdW  Elec       q    Type
REMARK                         _______ _______ _______ _____ _____    ______ ____
ROOT
ATOM      1  C   UNL     1      46.624   5.157  14.166  0.00  0.00    +0.000 C 
ENDROOT
BRANCH   1   2
ATOM      2  C   UNL     1      46.836   6.436  13.361  0.00  0.00    +0.000 A 
ATOM      3  C   UNL     1      45.808   7.380  13.263  0.00  0.00    +0.000 A 
ATOM      4  C   UNL     1      46.009   8.575  12.573  0.00  0.00    +0.000 A 
ATOM      5  C   UNL     1      47.254   8.877  11.993  0.00  0.00    +0.000 A 
ATOM      6  C   UNL     1      48.260   7.905  12.036  0.00  0.00    +0.000 A 
ATOM      7  C   UNL     1      48.054   6.700  12.714  0.00  0.00    +0.000 A 
BRANCH   5   8
ATOM      8  C   UNL     1      47.495  10.276  11.444  0.00  0.00    +0.000 C 
ATOM      9  C   UNL     1      46.162  11.044  11.370  0.00  0.00    +0.000 C 
BRANCH   8  10
ATOM     10  N   UNL     1      48.610  11.002  12.034  0.00  0.00    +0.000 NA
ATOM     11  C   UNL     1      49.840  11.101  11.250  0.00  0.00    +0.000 C 
ATOM     12  C   UNL     1      51.019  10.337  11.867  0.00  0.00    +0.000 C 
ATOM     13  O   UNL     1      51.232  10.732  13.227  0.00  0.00    +0.000 OA
ATOM     14  C   UNL     1      50.069  10.447  14.014  0.00  0.00    +0.000 C 
ATOM     15  C   UNL     1      48.808  11.142  13.469  0.00  0.00    +0.000 C 
ENDBRANCH   8  10
ENDBRANCH   5   8
ENDBRANCH   1   2
BRANCH   1  16
ATOM     16  N   UNL     1      47.718   5.039  15.133  0.00  0.00    +0.000 N 
ATOM     17  C   UNL     1      47.590   4.379  16.330  0.00  0.00    +0.000 C 
ATOM     18  O   UNL     1      46.566   3.781  16.648  0.00  0.00    +0.000 OA
ATOM     19  H   UNL     1      48.447   5.746  15.064  0.00  0.00    +0.000 HD
BRANCH  17  20
ATOM     20  C   UNL     1      48.771   4.356  17.196  0.00  0.00    +0.000 A 
ATOM     21  C   UNL     1      49.045   5.437  18.023  0.00  0.00    +0.000 A 
ATOM     22  S   UNL     1      50.478   5.257  18.930  0.00  0.00    +0.000 S 
ATOM     23  C   UNL     1      50.805   3.750  18.213  0.00  0.00    +0.000 A 
ATOM     24  N   UNL     1      51.948   3.069  18.497  0.00  0.00    +0.000 NA
ATOM     25  C   UNL     1      52.088   1.964  17.843  0.00  0.00    +0.000 A 
ATOM     26  N   UNL     1      51.169   1.464  16.949  0.00  0.00    +0.000 N 
ATOM     27  C   UNL     1      49.974   2.082  16.682  0.00  0.00    +0.000 A 
ATOM     28  O   UNL     1      49.130   1.569  15.963  0.00  0.00    +0.000 OA
ATOM     29  C   UNL     1      49.807   3.364  17.340  0.00  0.00    +0.000 A 
ATOM     30  H   UNL     1      51.321   0.572  16.500  0.00  0.00    +0.000 HD
ENDBRANCH  17  20
ENDBRANCH   1  16
BRANCH   1  31
ATOM     31  C   UNL     1      46.530   3.934  13.246  0.00  0.00    +0.000 C 
BRANCH  31  32
ATOM     32  C   UNL     1      45.161   3.802  12.632  0.00  0.00    +0.000 C 
ATOM     33  O   UNL     1      44.135   3.541  13.240  0.00  0.00    +0.000 OA
BRANCH  32  35
ATOM     34  C   UNL     1      44.364   3.212  10.473  0.00  0.00    +0.000 C 
ATOM     35  O   UNL     1      45.267   3.967  11.283  0.00  0.00    +0.000 OA
ENDBRANCH  32  35
ENDBRANCH  31  32
ENDBRANCH   1  31
TORSDOF 8
ENDMDL
