MODEL 1
REMARK VINA RESULT:    -8.535      0.000      0.000
REMARK INTER + INTRA:         -12.825
REMARK INTER:                 -11.529
REMARK INTRA:                  -1.296
REMARK UNBOUND:                -1.296
REMARK  Name = 
REMARK  8 active torsions:
REMARK  status: ('A' for Active; 'I' for Inactive)
REMARK    1  A    between atoms: C_1  and  C_2
REMARK    2  A    between atoms: C_4  and  C_5
REMARK    3  A    between atoms: C_12  and  C_13
REMARK    4  A    between atoms: C_13  and  C_14
REMARK    5  A    between atoms: C_13  and  C_15
REMARK    6  A    between atoms: C_15  and  N_16
REMARK    7  A    between atoms: N_16  and  C_17
REMARK    8  A    between atoms: C_20  and  C_21
REMARK                            x       y       z     vdW  Elec       q    Type
REMARK                         _______ _______ _______ _____ _____    ______ ____
ROOT
ATOM      1  C   UNL     1      44.469   4.475  11.977  0.00  0.00    +0.000 C 
ATOM      2  C   UNL     1      43.423   4.161  13.056  0.00  0.00    +0.000 C 
ENDROOT
BRANCH   1   8
ATOM      3  C   UNL     1      48.262   7.816  11.820  0.00  0.00    +0.000 C 
ATOM      4  C   UNL     1      47.531   6.715  12.535  0.00  0.00    +0.000 A 
ATOM      5  C   UNL     1      47.982   6.253  13.782  0.00  0.00    +0.000 A 
ATOM      6  C   UNL     1      47.297   5.254  14.494  0.00  0.00    +0.000 A 
ATOM      7  C   UNL     1      46.147   4.714  13.886  0.00  0.00    +0.000 A 
ATOM      8  C   UNL     1      45.690   5.128  12.620  0.00  0.00    +0.000 A 
ATOM      9  C   UNL     1      46.387   6.146  11.961  0.00  0.00    +0.000 A 
BRANCH   6  10
ATOM     10  C   UNL     1      47.739   4.796  15.836  0.00  0.00    +0.000 A 
ATOM     11  C   UNL     1      48.558   5.595  16.657  0.00  0.00    +0.000 A 
ATOM     12  C   UNL     1      48.931   5.184  17.942  0.00  0.00    +0.000 A 
ATOM     13  C   UNL     1      48.484   3.967  18.445  0.00  0.00    +0.000 A 
ATOM     14  C   UNL     1      47.685   3.150  17.654  0.00  0.00    +0.000 A 
ATOM     15  C   UNL     1      47.330   3.555  16.363  0.00  0.00    +0.000 A 
ENDBRANCH   6  10
ENDBRANCH   1   8
BRANCH   1  16
ATOM     16  C   UNL     1      43.913   5.362  10.836  0.00  0.00    +0.000 C 
BRANCH  16  17
ATOM     17  N   UNL     1      43.586   4.586   9.629  0.00  0.00    +0.000 N 
ATOM     18  H   UNL     1      43.106   5.149   8.930  0.00  0.00    +0.000 HD
BRANCH  17  19
ATOM     19  C   UNL     1      44.639   3.870   9.029  0.00  0.00    +0.000 A 
ATOM     20  C   UNL     1      44.708   2.472   9.033  0.00  0.00    +0.000 A 
ATOM     21  C   UNL     1      45.736   1.794   8.370  0.00  0.00    +0.000 A 
ATOM     22  C   UNL     1      46.700   2.502   7.650  0.00  0.00    +0.000 A 
ATOM     23  C   UNL     1      46.632   3.897   7.607  0.00  0.00    +0.000 A 
ATOM     24  C   UNL     1      45.599   4.568   8.278  0.00  0.00    +0.000 A 
BRANCH  22  25
ATOM     25  C   UNL     1      47.762   1.723   6.960  0.00  0.00    +0.000 C 
ATOM     26  N   UNL     1      48.741   2.425   6.314  0.00  0.00    +0.000 N 
ATOM     27  O   UNL     1      47.746   0.500   6.930  0.00  0.00    +0.000 OA
ATOM     28  H   UNL     1      48.653   3.408   6.101  0.00  0.00    +0.000 HD
ATOM     29  H   UNL     1      49.370   1.874   5.742  0.00  0.00    +0.000 HD
ENDBRANCH  22  25
ENDBRANCH  17  19
ENDBRANCH  16  17
ENDBRANCH   1  16
TORSDOF 6
ENDMDL
MODEL 2
REMARK VINA RESULT:    -7.855      2.409      4.915
REMARK INTER + INTRA:         -11.905
REMARK INTER:                 -10.740
REMARK INTRA:                  -1.166
REMARK UNBOUND:                -1.296
REMARK  Name = 
REMARK  8 active torsions:
REMARK  status: ('A' for Active; 'I' for Inactive)
REMARK    1  A    between atoms: C_1  and  C_2
REMARK    2  A    between atoms: C_4  and  C_5
REMARK    3  A    between atoms: C_12  and  C_13
REMARK    4  A    between atoms: C_13  and  C_14
REMARK    5  A    between atoms: C_13  and  C_15
REMARK    6  A    between atoms: C_15  and  N_16
REMARK    7  A    between atoms: N_16  and  C_17
REMARK    8  A    between atoms: C_20  and  C_21
REMARK                            x       y       z     vdW  Elec       q    Type
REMARK                         _______ _______ _______ _____ _____    ______ ____
ROOT
ATOM      1  C   UNL     1      45.429   4.788  11.701  0.00  0.00    +0.000 C 
ATOM      2  C   UNL     1      45.186   3.790  12.842  0.00  0.00    +0.000 C 
ENDROOT
BRANCH   1   8
ATOM      3  C   UNL     1      48.869   6.988  14.684  0.00  0.00    +0.000 C 
ATOM      4  C   UNL     1      47.735   7.105  13.706  0.00  0.00    +0.000 A 
ATOM      5  C   UNL     1      47.257   8.367  13.315  0.00  0.00    +0.000 A 
ATOM      6  C   UNL     1      46.227   8.510  12.372  0.00  0.00    +0.000 A 
ATOM      7  C   UNL     1      45.670   7.325  11.853  0.00  0.00    +0.000 A 
ATOM      8  C   UNL     1      46.099   6.045  12.251  0.00  0.00    +0.000 A 
ATOM      9  C   UNL     1      47.149   5.951  13.171  0.00  0.00    +0.000 A 
BRANCH   6  10
ATOM     10  C   UNL     1      45.751   9.842  11.916  0.00  0.00    +0.000 A 
ATOM     11  C   UNL     1      44.382  10.112  11.728  0.00  0.00    +0.000 A 
ATOM     12  C   UNL     1      43.931  11.382  11.350  0.00  0.00    +0.000 A 
ATOM     13  C   UNL     1      44.839  12.419  11.159  0.00  0.00    +0.000 A 
ATOM     14  C   UNL     1      46.198  12.180  11.323  0.00  0.00    +0.000 A 
ATOM     15  C   UNL     1      46.646  10.904  11.683  0.00  0.00    +0.000 A 
ENDBRANCH   6  10
ENDBRANCH   1   8
BRANCH   1  16
ATOM     16  C   UNL     1      44.137   5.150  10.930  0.00  0.00    +0.000 C 
BRANCH  16  17
ATOM     17  N   UNL     1      43.663   4.048  10.077  0.00  0.00    +0.000 N 
ATOM     18  H   UNL     1      42.800   4.284   9.591  0.00  0.00    +0.000 HD
BRANCH  17  19
ATOM     19  C   UNL     1      44.590   3.502   9.171  0.00  0.00    +0.000 A 
ATOM     20  C   UNL     1      45.310   4.281   8.257  0.00  0.00    +0.000 A 
ATOM     21  C   UNL     1      46.272   3.710   7.417  0.00  0.00    +0.000 A 
ATOM     22  C   UNL     1      46.566   2.348   7.501  0.00  0.00    +0.000 A 
ATOM     23  C   UNL     1      45.881   1.557   8.427  0.00  0.00    +0.000 A 
ATOM     24  C   UNL     1      44.916   2.138   9.263  0.00  0.00    +0.000 A 
BRANCH  22  25
ATOM     25  C   UNL     1      47.604   1.804   6.586  0.00  0.00    +0.000 C 
ATOM     26  N   UNL     1      48.713   2.571   6.360  0.00  0.00    +0.000 N 
ATOM     27  O   UNL     1      47.460   0.729   6.018  0.00  0.00    +0.000 OA
ATOM     28  H   UNL     1      48.752   3.550   6.599  0.00  0.00    +0.000 HD
ATOM     29  H   UNL     1      49.334   2.238   5.633  0.00  0.00    +0.000 HD
ENDBRANCH  22  25
ENDBRANCH  17  19
ENDBRANCH  16  17
ENDBRANCH   1  16
TORSDOF 6
ENDMDL
MODEL 3
REMARK VINA RESULT:    -7.754      1.558      4.367
REMARK INTER + INTRA:         -11.769
REMARK INTER:                 -10.616
REMARK INTRA:                  -1.153
REMARK UNBOUND:                -1.296
REMARK  Name = 
REMARK  8 active torsions:
REMARK  status: ('A' for Active; 'I' for Inactive)
REMARK    1  A    between atoms: C_1  and  C_2
REMARK    2  A    between atoms: C_4  and  C_5
REMARK    3  A    between atoms: C_12  and  C_13
REMARK    4  A    between atoms: C_13  and  C_14
REMARK    5  A    between atoms: C_13  and  C_15
REMARK    6  A    between atoms: C_15  and  N_16
REMARK    7  A    between atoms: N_16  and  C_17
REMARK    8  A    between atoms: C_20  and  C_21
REMARK                            x       y       z     vdW  Elec       q    Type
REMARK                         _______ _______ _______ _____ _____    ______ ____
ROOT
ATOM      1  C   UNL     1      45.458   4.983  11.949  0.00  0.00    +0.000 C 
ATOM      2  C   UNL     1      44.485   4.434  13.003  0.00  0.00    +0.000 C 
ENDROOT
BRANCH   1   8
ATOM      3  C   UNL     1      48.475   5.757  15.933  0.00  0.00    +0.000 C 
ATOM      4  C   UNL     1      48.004   6.159  14.564  0.00  0.00    +0.000 A 
ATOM      5  C   UNL     1      48.556   7.279  13.921  0.00  0.00    +0.000 A 
ATOM      6  C   UNL     1      48.166   7.656  12.625  0.00  0.00    +0.000 A 
ATOM      7  C   UNL     1      47.172   6.874  12.007  0.00  0.00    +0.000 A 
ATOM      8  C   UNL     1      46.571   5.769  12.639  0.00  0.00    +0.000 A 
ATOM      9  C   UNL     1      47.012   5.412  13.917  0.00  0.00    +0.000 A 
BRANCH   6  10
ATOM     10  C   UNL     1      48.782   8.809  11.918  0.00  0.00    +0.000 A 
ATOM     11  C   UNL     1      48.036   9.958  11.590  0.00  0.00    +0.000 A 
ATOM     12  C   UNL     1      48.629  11.064  10.971  0.00  0.00    +0.000 A 
ATOM     13  C   UNL     1      49.988  11.055  10.674  0.00  0.00    +0.000 A 
ATOM     14  C   UNL     1      50.748   9.931  10.973  0.00  0.00    +0.000 A 
ATOM     15  C   UNL     1      50.148   8.819  11.575  0.00  0.00    +0.000 A 
ENDBRANCH   6  10
ENDBRANCH   1   8
BRANCH   1  16
ATOM     16  C   UNL     1      44.759   5.852  10.876  0.00  0.00    +0.000 C 
BRANCH  16  17
ATOM     17  N   UNL     1      44.091   5.041   9.844  0.00  0.00    +0.000 N 
ATOM     18  H   UNL     1      43.670   5.617   9.118  0.00  0.00    +0.000 HD
BRANCH  17  19
ATOM     19  C   UNL     1      44.848   4.009   9.258  0.00  0.00    +0.000 A 
ATOM     20  C   UNL     1      44.608   2.654   9.511  0.00  0.00    +0.000 A 
ATOM     21  C   UNL     1      45.339   1.654   8.860  0.00  0.00    +0.000 A 
ATOM     22  C   UNL     1      46.302   1.989   7.907  0.00  0.00    +0.000 A 
ATOM     23  C   UNL     1      46.536   3.336   7.617  0.00  0.00    +0.000 A 
ATOM     24  C   UNL     1      45.800   4.331   8.277  0.00  0.00    +0.000 A 
BRANCH  22  25
ATOM     25  C   UNL     1      47.039   0.881   7.244  0.00  0.00    +0.000 C 
ATOM     26  N   UNL     1      47.836   1.199   6.180  0.00  0.00    +0.000 N 
ATOM     27  O   UNL     1      46.910  -0.282   7.603  0.00  0.00    +0.000 OA
ATOM     28  H   UNL     1      47.772   2.085   5.701  0.00  0.00    +0.000 HD
ATOM     29  H   UNL     1      48.215   0.413   5.667  0.00  0.00    +0.000 HD
ENDBRANCH  22  25
ENDBRANCH  17  19
ENDBRANCH  16  17
ENDBRANCH   1  16
TORSDOF 6
ENDMDL
MODEL 4
REMARK VINA RESULT:    -7.229      2.526      4.434
REMARK INTER + INTRA:         -11.060
REMARK INTER:                 -10.011
REMARK INTRA:                  -1.049
REMARK UNBOUND:                -1.296
REMARK  Name = 
REMARK  8 active torsions:
REMARK  status: ('A' for Active; 'I' for Inactive)
REMARK    1  A    between atoms: C_1  and  C_2
REMARK    2  A    between atoms: C_4  and  C_5
REMARK    3  A    between atoms: C_12  and  C_13
REMARK    4  A    between atoms: C_13  and  C_14
REMARK    5  A    between atoms: C_13  and  C_15
REMARK    6  A    between atoms: C_15  and  N_16
REMARK    7  A    between atoms: N_16  and  C_17
REMARK    8  A    between atoms: C_20  and  C_21
REMARK                            x       y       z     vdW  Elec       q    Type
REMARK                         _______ _______ _______ _____ _____    ______ ____
ROOT
ATOM      1  C   UNL     1      45.775   5.537  11.922  0.00  0.00    +0.000 C 
ATOM      2  C   UNL     1      45.669   5.033  13.369  0.00  0.00    +0.000 C 
ENDROOT
BRANCH   1   8
ATOM      3  C   UNL     1      45.194  10.560  11.976  0.00  0.00    +0.000 C 
ATOM      4  C   UNL     1      46.093   9.358  11.909  0.00  0.00    +0.000 A 
ATOM      5  C   UNL     1      47.485   9.515  11.799  0.00  0.00    +0.000 A 
ATOM      6  C   UNL     1      48.354   8.412  11.776  0.00  0.00    +0.000 A 
ATOM      7  C   UNL     1      47.764   7.135  11.839  0.00  0.00    +0.000 A 
ATOM      8  C   UNL     1      46.372   6.942  11.910  0.00  0.00    +0.000 A 
ATOM      9  C   UNL     1      45.546   8.070  11.961  0.00  0.00    +0.000 A 
BRANCH   6  10
ATOM     10  C   UNL     1      49.830   8.571  11.711  0.00  0.00    +0.000 A 
ATOM     11  C   UNL     1      50.641   7.659  11.008  0.00  0.00    +0.000 A 
ATOM     12  C   UNL     1      52.025   7.838  10.905  0.00  0.00    +0.000 A 
ATOM     13  C   UNL     1      52.634   8.941  11.493  0.00  0.00    +0.000 A 
ATOM     14  C   UNL     1      51.863   9.852  12.205  0.00  0.00    +0.000 A 
ATOM     15  C   UNL     1      50.482   9.659  12.322  0.00  0.00    +0.000 A 
ENDBRANCH   6  10
ENDBRANCH   1   8
BRANCH   1  16
ATOM     16  C   UNL     1      44.421   5.512  11.173  0.00  0.00    +0.000 C 
BRANCH  16  17
ATOM     17  N   UNL     1      44.083   4.171  10.667  0.00  0.00    +0.000 N 
ATOM     18  H   UNL     1      43.091   4.078  10.462  0.00  0.00    +0.000 HD
BRANCH  17  19
ATOM     19  C   UNL     1      44.844   3.690   9.585  0.00  0.00    +0.000 A 
ATOM     20  C   UNL     1      45.478   4.535   8.667  0.00  0.00    +0.000 A 
ATOM     21  C   UNL     1      46.280   4.022   7.642  0.00  0.00    +0.000 A 
ATOM     22  C   UNL     1      46.499   2.647   7.537  0.00  0.00    +0.000 A 
ATOM     23  C   UNL     1      45.900   1.787   8.462  0.00  0.00    +0.000 A 
ATOM     24  C   UNL     1      45.095   2.312   9.484  0.00  0.00    +0.000 A 
BRANCH  22  25
ATOM     25  C   UNL     1      47.367   2.164   6.431  0.00  0.00    +0.000 C 
ATOM     26  N   UNL     1      46.859   2.208   5.163  0.00  0.00    +0.000 N 
ATOM     27  O   UNL     1      48.481   1.702   6.643  0.00  0.00    +0.000 OA
ATOM     28  H   UNL     1      45.876   2.337   4.977  0.00  0.00    +0.000 HD
ATOM     29  H   UNL     1      47.416   1.749   4.452  0.00  0.00    +0.000 HD
ENDBRANCH  22  25
ENDBRANCH  17  19
ENDBRANCH  16  17
ENDBRANCH   1  16
TORSDOF 6
ENDMDL
MODEL 5
REMARK VINA RESULT:    -7.172      3.208      7.907
REMARK INTER + INTRA:         -10.983
REMARK INTER:                  -9.833
REMARK INTRA:                  -1.150
REMARK UNBOUND:                -1.296
REMARK  Name = 
REMARK  8 active torsions:
REMARK  status: ('A' for Active; 'I' for Inactive)
REMARK    1  A    between atoms: C_1  and  C_2
REMARK    2  A    between atoms: C_4  and  C_5
REMARK    3  A    between atoms: C_12  and  C_13
REMARK    4  A    between atoms: C_13  and  C_14
REMARK    5  A    between atoms: C_13  and  C_15
REMARK    6  A    between atoms: C_15  and  N_16
REMARK    7  A    between atoms: N_16  and  C_17
REMARK    8  A    between atoms: C_20  and  C_21
REMARK                            x       y       z     vdW  Elec       q    Type
REMARK                         _______ _______ _______ _____ _____    ______ ____
ROOT
ATOM      1  C   UNL     1      45.102   6.905  10.863  0.00  0.00    +0.000 C 
ATOM      2  C   UNL     1      43.720   7.546  11.053  0.00  0.00    +0.000 C 
ENDROOT
BRANCH   1   8
ATOM      3  C   UNL     1      43.300   2.359  12.149  0.00  0.00    +0.000 C 
ATOM      4  C   UNL     1      44.099   3.221  11.213  0.00  0.00    +0.000 A 
ATOM      5  C   UNL     1      44.734   2.659  10.093  0.00  0.00    +0.000 A 
ATOM      6  C   UNL     1      45.453   3.445   9.178  0.00  0.00    +0.000 A 
ATOM      7  C   UNL     1      45.534   4.824   9.449  0.00  0.00    +0.000 A 
ATOM      8  C   UNL     1      44.942   5.413  10.582  0.00  0.00    +0.000 A 
ATOM      9  C   UNL     1      44.210   4.596  11.450  0.00  0.00    +0.000 A 
BRANCH   6  10
ATOM     10  C   UNL     1      46.084   2.865   7.964  0.00  0.00    +0.000 A 
ATOM     11  C   UNL     1      46.308   3.638   6.808  0.00  0.00    +0.000 A 
ATOM     12  C   UNL     1      46.950   3.105   5.684  0.00  0.00    +0.000 A 
ATOM     13  C   UNL     1      47.396   1.788   5.691  0.00  0.00    +0.000 A 
ATOM     14  C   UNL     1      47.177   0.996   6.812  0.00  0.00    +0.000 A 
ATOM     15  C   UNL     1      46.519   1.526   7.926  0.00  0.00    +0.000 A 
ENDBRANCH   6  10
ENDBRANCH   1   8
BRANCH   1  16
ATOM     16  C   UNL     1      46.046   7.137  12.068  0.00  0.00    +0.000 C 
BRANCH  16  17
ATOM     17  N   UNL     1      47.061   6.078  12.199  0.00  0.00    +0.000 N 
ATOM     18  H   UNL     1      47.958   6.358  11.810  0.00  0.00    +0.000 HD
BRANCH  17  19
ATOM     19  C   UNL     1      47.244   5.529  13.482  0.00  0.00    +0.000 A 
ATOM     20  C   UNL     1      46.869   4.221  13.810  0.00  0.00    +0.000 A 
ATOM     21  C   UNL     1      47.126   3.688  15.077  0.00  0.00    +0.000 A 
ATOM     22  C   UNL     1      47.805   4.442  16.036  0.00  0.00    +0.000 A 
ATOM     23  C   UNL     1      48.216   5.740  15.719  0.00  0.00    +0.000 A 
ATOM     24  C   UNL     1      47.950   6.266  14.447  0.00  0.00    +0.000 A 
BRANCH  22  25
ATOM     25  C   UNL     1      48.056   3.817  17.361  0.00  0.00    +0.000 C 
ATOM     26  N   UNL     1      47.360   4.305  18.432  0.00  0.00    +0.000 N 
ATOM     27  O   UNL     1      48.885   2.928  17.507  0.00  0.00    +0.000 OA
ATOM     28  H   UNL     1      46.870   5.187  18.404  0.00  0.00    +0.000 HD
ATOM     29  H   UNL     1      47.649   3.956  19.338  0.00  0.00    +0.000 HD
ENDBRANCH  22  25
ENDBRANCH  17  19
ENDBRANCH  16  17
ENDBRANCH   1  16
TORSDOF 6
ENDMDL
MODEL 6
REMARK VINA RESULT:    -7.117      3.512      8.055
REMARK INTER + INTRA:         -10.909
REMARK INTER:                  -9.889
REMARK INTRA:                  -1.020
REMARK UNBOUND:                -1.296
REMARK  Name = 
REMARK  8 active torsions:
REMARK  status: ('A' for Active; 'I' for Inactive)
REMARK    1  A    between atoms: C_1  and  C_2
REMARK    2  A    between atoms: C_4  and  C_5
REMARK    3  A    between atoms: C_12  and  C_13
REMARK    4  A    between atoms: C_13  and  C_14
REMARK    5  A    between atoms: C_13  and  C_15
REMARK    6  A    between atoms: C_15  and  N_16
REMARK    7  A    between atoms: N_16  and  C_17
REMARK    8  A    between atoms: C_20  and  C_21
REMARK                            x       y       z     vdW  Elec       q    Type
REMARK                         _______ _______ _______ _____ _____    ______ ____
ROOT
ATOM      1  C   UNL     1      46.609   7.659  11.918  0.00  0.00    +0.000 C 
ATOM      2  C   UNL     1      45.835   8.710  12.729  0.00  0.00    +0.000 C 
ENDROOT
BRANCH   1   8
ATOM      3  C   UNL     1      42.007   5.568  11.791  0.00  0.00    +0.000 C 
ATOM      4  C   UNL     1      43.430   5.601  11.313  0.00  0.00    +0.000 A 
ATOM      5  C   UNL     1      43.890   4.663  10.374  0.00  0.00    +0.000 A 
ATOM      6  C   UNL     1      45.203   4.693   9.877  0.00  0.00    +0.000 A 
ATOM      7  C   UNL     1      46.052   5.694  10.387  0.00  0.00    +0.000 A 
ATOM      8  C   UNL     1      45.636   6.625  11.356  0.00  0.00    +0.000 A 
ATOM      9  C   UNL     1      44.310   6.576  11.800  0.00  0.00    +0.000 A 
BRANCH   6  10
ATOM     10  C   UNL     1      45.681   3.736   8.846  0.00  0.00    +0.000 A 
ATOM     11  C   UNL     1      46.235   4.177   7.629  0.00  0.00    +0.000 A 
ATOM     12  C   UNL     1      46.732   3.276   6.681  0.00  0.00    +0.000 A 
ATOM     13  C   UNL     1      46.699   1.908   6.931  0.00  0.00    +0.000 A 
ATOM     14  C   UNL     1      46.146   1.440   8.118  0.00  0.00    +0.000 A 
ATOM     15  C   UNL     1      45.632   2.344   9.054  0.00  0.00    +0.000 A 
ENDBRANCH   6  10
ENDBRANCH   1   8
BRANCH   1  16
ATOM     16  C   UNL     1      47.728   6.969  12.736  0.00  0.00    +0.000 C 
BRANCH  16  17
ATOM     17  N   UNL     1      47.641   7.272  14.174  0.00  0.00    +0.000 N 
ATOM     18  H   UNL     1      46.720   7.615  14.439  0.00  0.00    +0.000 HD
BRANCH  17  19
ATOM     19  C   UNL     1      48.050   6.260  15.062  0.00  0.00    +0.000 A 
ATOM     20  C   UNL     1      49.069   6.441  16.005  0.00  0.00    +0.000 A 
ATOM     21  C   UNL     1      49.404   5.433  16.915  0.00  0.00    +0.000 A 
ATOM     22  C   UNL     1      48.695   4.230  16.929  0.00  0.00    +0.000 A 
ATOM     23  C   UNL     1      47.654   4.040  16.017  0.00  0.00    +0.000 A 
ATOM     24  C   UNL     1      47.328   5.056  15.106  0.00  0.00    +0.000 A 
BRANCH  22  25
ATOM     25  C   UNL     1      49.093   3.201  17.926  0.00  0.00    +0.000 C 
ATOM     26  N   UNL     1      48.296   3.043  19.025  0.00  0.00    +0.000 N 
ATOM     27  O   UNL     1      50.119   2.545  17.798  0.00  0.00    +0.000 OA
ATOM     28  H   UNL     1      47.599   3.723  19.292  0.00  0.00    +0.000 HD
ATOM     29  H   UNL     1      48.662   2.436  19.748  0.00  0.00    +0.000 HD
ENDBRANCH  22  25
ENDBRANCH  17  19
ENDBRANCH  16  17
ENDBRANCH   1  16
TORSDOF 6
ENDMDL
MODEL 7
REMARK VINA RESULT:    -6.809      2.845      4.592
REMARK INTER + INTRA:         -10.493
REMARK INTER:                  -9.115
REMARK INTRA:                  -1.378
REMARK UNBOUND:                -1.296
REMARK  Name = 
REMARK  8 active torsions:
REMARK  status: ('A' for Active; 'I' for Inactive)
REMARK    1  A    between atoms: C_1  and  C_2
REMARK    2  A    between atoms: C_4  and  C_5
REMARK    3  A    between atoms: C_12  and  C_13
REMARK    4  A    between atoms: C_13  and  C_14
REMARK    5  A    between atoms: C_13  and  C_15
REMARK    6  A    between atoms: C_15  and  N_16
REMARK    7  A    between atoms: N_16  and  C_17
REMARK    8  A    between atoms: C_20  and  C_21
REMARK                            x       y       z     vdW  Elec       q    Type
REMARK                         _______ _______ _______ _____ _____    ______ ____
ROOT
ATOM      1  C   UNL     1      48.350   8.522  12.885  0.00  0.00    +0.000 C 
ATOM      2  C   UNL     1      49.087   7.407  12.129  0.00  0.00    +0.000 C 
ENDROOT
BRANCH   1   8
ATOM      3  C   UNL     1      48.288  10.233  17.643  0.00  0.00    +0.000 C 
ATOM      4  C   UNL     1      48.433   9.093  16.676  0.00  0.00    +0.000 A 
ATOM      5  C   UNL     1      48.682   7.791  17.141  0.00  0.00    +0.000 A 
ATOM      6  C   UNL     1      48.782   6.698  16.265  0.00  0.00    +0.000 A 
ATOM      7  C   UNL     1      48.648   6.970  14.890  0.00  0.00    +0.000 A 
ATOM      8  C   UNL     1      48.436   8.268  14.388  0.00  0.00    +0.000 A 
ATOM      9  C   UNL     1      48.313   9.322  15.300  0.00  0.00    +0.000 A 
BRANCH   6  10
ATOM     10  C   UNL     1      48.995   5.310  16.753  0.00  0.00    +0.000 A 
ATOM     11  C   UNL     1      48.017   4.311  16.586  0.00  0.00    +0.000 A 
ATOM     12  C   UNL     1      48.240   2.992  16.999  0.00  0.00    +0.000 A 
ATOM     13  C   UNL     1      49.452   2.636  17.580  0.00  0.00    +0.000 A 
ATOM     14  C   UNL     1      50.432   3.603  17.771  0.00  0.00    +0.000 A 
ATOM     15  C   UNL     1      50.199   4.924  17.374  0.00  0.00    +0.000 A 
ENDBRANCH   6  10
ENDBRANCH   1   8
BRANCH   1  16
ATOM     16  C   UNL     1      46.876   8.681  12.441  0.00  0.00    +0.000 C 
BRANCH  16  17
ATOM     17  N   UNL     1      45.953   7.872  13.255  0.00  0.00    +0.000 N 
ATOM     18  H   UNL     1      45.145   8.408  13.564  0.00  0.00    +0.000 HD
BRANCH  17  19
ATOM     19  C   UNL     1      45.534   6.644  12.709  0.00  0.00    +0.000 A 
ATOM     20  C   UNL     1      45.642   5.430  13.398  0.00  0.00    +0.000 A 
ATOM     21  C   UNL     1      45.155   4.239  12.849  0.00  0.00    +0.000 A 
ATOM     22  C   UNL     1      44.510   4.243  11.611  0.00  0.00    +0.000 A 
ATOM     23  C   UNL     1      44.364   5.449  10.920  0.00  0.00    +0.000 A 
ATOM     24  C   UNL     1      44.859   6.637  11.478  0.00  0.00    +0.000 A 
BRANCH  22  25
ATOM     25  C   UNL     1      44.007   2.947  11.085  0.00  0.00    +0.000 C 
ATOM     26  N   UNL     1      44.712   2.360  10.071  0.00  0.00    +0.000 N 
ATOM     27  O   UNL     1      42.977   2.437  11.507  0.00  0.00    +0.000 OA
ATOM     28  H   UNL     1      45.403   2.859   9.532  0.00  0.00    +0.000 HD
ATOM     29  H   UNL     1      44.274   1.553   9.644  0.00  0.00    +0.000 HD
ENDBRANCH  22  25
ENDBRANCH  17  19
ENDBRANCH  16  17
ENDBRANCH   1  16
TORSDOF 6
ENDMDL
MODEL 8
REMARK VINA RESULT:    -6.803      3.758      7.466
REMARK INTER + INTRA:         -10.485
REMARK INTER:                  -9.095
REMARK INTRA:                  -1.390
REMARK UNBOUND:                -1.296
REMARK  Name = 
REMARK  8 active torsions:
REMARK  status: ('A' for Active; 'I' for Inactive)
REMARK    1  A    between atoms: C_1  and  C_2
REMARK    2  A    between atoms: C_4  and  C_5
REMARK    3  A    between atoms: C_12  and  C_13
REMARK    4  A    between atoms: C_13  and  C_14
REMARK    5  A    between atoms: C_13  and  C_15
REMARK    6  A    between atoms: C_15  and  N_16
REMARK    7  A    between atoms: N_16  and  C_17
REMARK    8  A    between atoms: C_20  and  C_21
REMARK                            x       y       z     vdW  Elec       q    Type
REMARK                         _______ _______ _______ _____ _____    ______ ____
ROOT
ATOM      1  C   UNL     1      49.332   8.083  11.907  0.00  0.00    +0.000 C 
ATOM      2  C   UNL     1      49.836   9.526  11.765  0.00  0.00    +0.000 C 
ENDROOT
BRANCH   1   8
ATOM      3  C   UNL     1      44.907  10.530  11.960  0.00  0.00    +0.000 C 
ATOM      4  C   UNL     1      45.676   9.240  11.925  0.00  0.00    +0.000 A 
ATOM      5  C   UNL     1      45.001   8.008  11.897  0.00  0.00    +0.000 A 
ATOM      6  C   UNL     1      45.691   6.787  11.823  0.00  0.00    +0.000 A 
ATOM      7  C   UNL     1      47.098   6.851  11.807  0.00  0.00    +0.000 A 
ATOM      8  C   UNL     1      47.805   8.066  11.873  0.00  0.00    +0.000 A 
ATOM      9  C   UNL     1      47.076   9.259  11.916  0.00  0.00    +0.000 A 
BRANCH   6  10
ATOM     10  C   UNL     1      44.984   5.483  11.741  0.00  0.00    +0.000 A 
ATOM     11  C   UNL     1      44.267   4.962  12.836  0.00  0.00    +0.000 A 
ATOM     12  C   UNL     1      43.558   3.759  12.741  0.00  0.00    +0.000 A 
ATOM     13  C   UNL     1      43.538   3.050  11.544  0.00  0.00    +0.000 A 
ATOM     14  C   UNL     1      44.247   3.532  10.450  0.00  0.00    +0.000 A 
ATOM     15  C   UNL     1      44.970   4.725  10.554  0.00  0.00    +0.000 A 
ENDBRANCH   6  10
ENDBRANCH   1   8
BRANCH   1  16
ATOM     16  C   UNL     1      49.858   7.382  13.183  0.00  0.00    +0.000 C 
BRANCH  16  17
ATOM     17  N   UNL     1      49.101   7.764  14.387  0.00  0.00    +0.000 N 
ATOM     18  H   UNL     1      48.326   8.388  14.171  0.00  0.00    +0.000 HD
BRANCH  17  19
ATOM     19  C   UNL     1      48.657   6.718  15.217  0.00  0.00    +0.000 A 
ATOM     20  C   UNL     1      47.759   5.735  14.786  0.00  0.00    +0.000 A 
ATOM     21  C   UNL     1      47.391   4.672  15.619  0.00  0.00    +0.000 A 
ATOM     22  C   UNL     1      47.948   4.547  16.893  0.00  0.00    +0.000 A 
ATOM     23  C   UNL     1      48.871   5.501  17.332  0.00  0.00    +0.000 A 
ATOM     24  C   UNL     1      49.230   6.564  16.490  0.00  0.00    +0.000 A 
BRANCH  22  25
ATOM     25  C   UNL     1      47.523   3.393  17.727  0.00  0.00    +0.000 C 
ATOM     26  N   UNL     1      48.316   3.053  18.788  0.00  0.00    +0.000 N 
ATOM     27  O   UNL     1      46.526   2.737  17.456  0.00  0.00    +0.000 OA
ATOM     28  H   UNL     1      49.259   3.396  18.891  0.00  0.00    +0.000 HD
ATOM     29  H   UNL     1      48.077   2.186  19.252  0.00  0.00    +0.000 HD
ENDBRANCH  22  25
ENDBRANCH  17  19
ENDBRANCH  16  17
ENDBRANCH   1  16
TORSDOF 6
ENDMDL
MODEL 9
REMARK VINA RESULT:    -6.781      3.990      7.962
REMARK INTER + INTRA:         -10.456
REMARK INTER:                  -9.312
REMARK INTRA:                  -1.144
REMARK UNBOUND:                -1.296
REMARK  Name = 
REMARK  8 active torsions:
REMARK  status: ('A' for Active; 'I' for Inactive)
REMARK    1  A    between atoms: C_1  and  C_2
REMARK    2  A    between atoms: C_4  and  C_5
REMARK    3  A    between atoms: C_12  and  C_13
REMARK    4  A    between atoms: C_13  and  C_14
REMARK    5  A    between atoms: C_13  and  C_15
REMARK    6  A    between atoms: C_15  and  N_16
REMARK    7  A    between atoms: N_16  and  C_17
REMARK    8  A    between atoms: C_20  and  C_21
REMARK                            x       y       z     vdW  Elec       q    Type
REMARK                         _______ _______ _______ _____ _____    ______ ____
ROOT
ATOM      1  C   UNL     1      48.618   7.267  14.091  0.00  0.00    +0.000 C 
ATOM      2  C   UNL     1      49.897   7.558  13.293  0.00  0.00    +0.000 C 
ENDROOT
BRANCH   1   8
ATOM      3  C   UNL     1      44.801   9.979  12.181  0.00  0.00    +0.000 C 
ATOM      4  C   UNL     1      45.551   8.681  12.274  0.00  0.00    +0.000 A 
ATOM      5  C   UNL     1      45.123   7.557  11.548  0.00  0.00    +0.000 A 
ATOM      6  C   UNL     1      45.826   6.341  11.583  0.00  0.00    +0.000 A 
ATOM      7  C   UNL     1      46.969   6.290  12.404  0.00  0.00    +0.000 A 
ATOM      8  C   UNL     1      47.402   7.386  13.174  0.00  0.00    +0.000 A 
ATOM      9  C   UNL     1      46.689   8.586  13.085  0.00  0.00    +0.000 A 
BRANCH   6  10
ATOM     10  C   UNL     1      45.409   5.164  10.779  0.00  0.00    +0.000 A 
ATOM     11  C   UNL     1      44.783   4.050  11.370  0.00  0.00    +0.000 A 
ATOM     12  C   UNL     1      44.343   2.964  10.604  0.00  0.00    +0.000 A 
ATOM     13  C   UNL     1      44.508   2.969   9.223  0.00  0.00    +0.000 A 
ATOM     14  C   UNL     1      45.135   4.048   8.611  0.00  0.00    +0.000 A 
ATOM     15  C   UNL     1      45.590   5.123   9.382  0.00  0.00    +0.000 A 
ENDBRANCH   6  10
ENDBRANCH   1   8
BRANCH   1  16
ATOM     16  C   UNL     1      48.458   8.179  15.331  0.00  0.00    +0.000 C 
BRANCH  16  17
ATOM     17  N   UNL     1      48.162   7.417  16.556  0.00  0.00    +0.000 N 
ATOM     18  H   UNL     1      47.162   7.272  16.684  0.00  0.00    +0.000 HD
BRANCH  17  19
ATOM     19  C   UNL     1      48.849   6.202  16.729  0.00  0.00    +0.000 A 
ATOM     20  C   UNL     1      50.225   6.135  16.980  0.00  0.00    +0.000 A 
ATOM     21  C   UNL     1      50.862   4.912  17.212  0.00  0.00    +0.000 A 
ATOM     22  C   UNL     1      50.126   3.726  17.240  0.00  0.00    +0.000 A 
ATOM     23  C   UNL     1      48.746   3.773  17.022  0.00  0.00    +0.000 A 
ATOM     24  C   UNL     1      48.117   5.004  16.787  0.00  0.00    +0.000 A 
BRANCH  22  25
ATOM     25  C   UNL     1      50.859   2.459  17.500  0.00  0.00    +0.000 C 
ATOM     26  N   UNL     1      51.881   2.495  18.407  0.00  0.00    +0.000 N 
ATOM     27  O   UNL     1      50.594   1.427  16.897  0.00  0.00    +0.000 OA
ATOM     28  H   UNL     1      52.291   3.359  18.728  0.00  0.00    +0.000 HD
ATOM     29  H   UNL     1      52.447   1.657  18.463  0.00  0.00    +0.000 HD
ENDBRANCH  22  25
ENDBRANCH  17  19
ENDBRANCH  16  17
ENDBRANCH   1  16
TORSDOF 6
ENDMDL
