MODEL 1
REMARK VINA RESULT:    -7.661      0.000      0.000
REMARK INTER + INTRA:         -12.037
REMARK INTER:                 -10.796
REMARK INTRA:                  -1.240
REMARK UNBOUND:                -1.240
REMARK  Name = 
REMARK  8 active torsions:
REMARK  status: ('A' for Active; 'I' for Inactive)
REMARK    1  A    between atoms: C_1  and  O_2
REMARK    2  A    between atoms: O_2  and  C_3
REMARK    3  A    between atoms: C_7  and  C_8
REMARK    4  A    between atoms: C_8  and  N_9
REMARK    5  A    between atoms: N_9  and  C_10
REMARK    6  A    between atoms: C_13  and  C_14
REMARK    7  A    between atoms: C_14  and  N_15
REMARK    8  A    between atoms: C_16  and  C_18
REMARK                            x       y       z     vdW  Elec       q    Type
REMARK                         _______ _______ _______ _____ _____    ______ ____
ROOT
ATOM      1  C   UNL     1      45.008   3.898  12.761  0.00  0.00    +0.000 A 
ATOM      2  C   UNL     1      46.324   3.601  13.141  0.00  0.00    +0.000 A 
ATOM      3  C   UNL     1      47.222   4.615  13.508  0.00  0.00    +0.000 A 
ATOM      4  C   UNL     1      46.827   5.957  13.481  0.00  0.00    +0.000 A 
ATOM      5  C   UNL     1      45.545   6.263  13.018  0.00  0.00    +0.000 A 
ATOM      6  C   UNL     1      44.656   5.249  12.653  0.00  0.00    +0.000 A 
ENDROOT
BRANCH   1   7
ATOM      7  N   UNL     1      44.147   2.854  12.371  0.00  0.00    +0.000 N 
ATOM      8  H   UNL     1      43.479   2.643  13.113  0.00  0.00    +0.000 HD
BRANCH   7   9
ATOM      9  C   UNL     1      43.441   3.046  11.099  0.00  0.00    +0.000 C 
BRANCH   9  14
ATOM     10  C   UNL     1      45.759   1.835   8.507  0.00  0.00    +0.000 A 
ATOM     11  C   UNL     1      46.005   2.936   7.704  0.00  0.00    +0.000 A 
ATOM     12  C   UNL     1      45.414   4.147   8.049  0.00  0.00    +0.000 A 
ATOM     13  C   UNL     1      44.594   4.208   9.173  0.00  0.00    +0.000 A 
ATOM     14  C   UNL     1      44.394   3.051   9.922  0.00  0.00    +0.000 A 
ATOM     15  N   UNL     1      44.977   1.870   9.605  0.00  0.00    +0.000 NA
BRANCH  10  17
ATOM     16  C   UNL     1      47.248   0.801   7.040  0.00  0.00    +0.000 C 
ATOM     17  O   UNL     1      46.334   0.641   8.123  0.00  0.00    +0.000 OA
ENDBRANCH  10  17
ENDBRANCH   9  14
ENDBRANCH   7   9
ENDBRANCH   1   7
BRANCH   4  18
ATOM     18  C   UNL     1      47.756   7.064  13.894  0.00  0.00    +0.000 C 
BRANCH  18  19
ATOM     19  N   UNL     1      48.079   6.994  15.296  0.00  0.00    +0.000 N 
ATOM     20  C   UNL     1      49.386   6.934  15.704  0.00  0.00    +0.000 C 
ATOM     21  O   UNL     1      50.319   6.995  14.910  0.00  0.00    +0.000 OA
ATOM     22  H   UNL     1      47.338   6.716  15.931  0.00  0.00    +0.000 HD
BRANCH  20  23
ATOM     23  C   UNL     1      49.623   6.845  17.151  0.00  0.00    +0.000 A 
ATOM     24  C   UNL     1      50.408   7.805  17.775  0.00  0.00    +0.000 A 
ATOM     25  S   UNL     1      50.554   7.584  19.459  0.00  0.00    +0.000 S 
ATOM     26  C   UNL     1      49.614   6.169  19.409  0.00  0.00    +0.000 A 
ATOM     27  N   UNL     1      49.368   5.452  20.537  0.00  0.00    +0.000 NA
ATOM     28  C   UNL     1      48.667   4.385  20.352  0.00  0.00    +0.000 A 
ATOM     29  N   UNL     1      48.178   3.974  19.139  0.00  0.00    +0.000 N 
ATOM     30  C   UNL     1      48.378   4.678  17.973  0.00  0.00    +0.000 A 
ATOM     31  O   UNL     1      47.896   4.303  16.910  0.00  0.00    +0.000 OA
ATOM     32  C   UNL     1      49.174   5.881  18.128  0.00  0.00    +0.000 A 
ATOM     33  H   UNL     1      47.626   3.133  19.061  0.00  0.00    +0.000 HD
ENDBRANCH  20  23
ENDBRANCH  18  19
ENDBRANCH   4  18
TORSDOF 7
ENDMDL
MODEL 2
REMARK VINA RESULT:    -7.640      1.949      2.294
REMARK INTER + INTRA:         -12.007
REMARK INTER:                 -10.836
REMARK INTRA:                  -1.172
REMARK UNBOUND:                -1.240
REMARK  Name = 
REMARK  8 active torsions:
REMARK  status: ('A' for Active; 'I' for Inactive)
REMARK    1  A    between atoms: C_1  and  O_2
REMARK    2  A    between atoms: O_2  and  C_3
REMARK    3  A    between atoms: C_7  and  C_8
REMARK    4  A    between atoms: C_8  and  N_9
REMARK    5  A    between atoms: N_9  and  C_10
REMARK    6  A    between atoms: C_13  and  C_14
REMARK    7  A    between atoms: C_14  and  N_15
REMARK    8  A    between atoms: C_16  and  C_18
REMARK                            x       y       z     vdW  Elec       q    Type
REMARK                         _______ _______ _______ _____ _____    ______ ____
ROOT
ATOM      1  C   UNL     1      45.067   6.810  11.334  0.00  0.00    +0.000 A 
ATOM      2  C   UNL     1      46.304   6.190  11.551  0.00  0.00    +0.000 A 
ATOM      3  C   UNL     1      47.236   6.721  12.455  0.00  0.00    +0.000 A 
ATOM      4  C   UNL     1      46.957   7.905  13.148  0.00  0.00    +0.000 A 
ATOM      5  C   UNL     1      45.764   8.574  12.868  0.00  0.00    +0.000 A 
ATOM      6  C   UNL     1      44.840   8.039  11.965  0.00  0.00    +0.000 A 
ENDROOT
BRANCH   1   7
ATOM      7  N   UNL     1      44.171   6.261  10.395  0.00  0.00    +0.000 N 
ATOM      8  H   UNL     1      44.537   6.363   9.448  0.00  0.00    +0.000 HD
BRANCH   7   9
ATOM      9  C   UNL     1      43.767   4.871  10.631  0.00  0.00    +0.000 C 
BRANCH   9  14
ATOM     10  C   UNL     1      45.760   3.649   7.786  0.00  0.00    +0.000 A 
ATOM     11  C   UNL     1      45.801   2.274   7.942  0.00  0.00    +0.000 A 
ATOM     12  C   UNL     1      45.110   1.712   9.010  0.00  0.00    +0.000 A 
ATOM     13  C   UNL     1      44.415   2.544   9.884  0.00  0.00    +0.000 A 
ATOM     14  C   UNL     1      44.431   3.919   9.659  0.00  0.00    +0.000 A 
ATOM     15  N   UNL     1      45.088   4.476   8.613  0.00  0.00    +0.000 NA
BRANCH  10  17
ATOM     16  C   UNL     1      46.914   3.183   5.814  0.00  0.00    +0.000 C 
ATOM     17  O   UNL     1      46.480   4.181   6.735  0.00  0.00    +0.000 OA
ENDBRANCH  10  17
ENDBRANCH   9  14
ENDBRANCH   7   9
ENDBRANCH   1   7
BRANCH   4  18
ATOM     18  C   UNL     1      47.923   8.485  14.143  0.00  0.00    +0.000 C 
BRANCH  18  19
ATOM     19  N   UNL     1      48.111   7.613  15.275  0.00  0.00    +0.000 N 
ATOM     20  C   UNL     1      49.293   6.940  15.443  0.00  0.00    +0.000 C 
ATOM     21  O   UNL     1      50.242   7.093  14.682  0.00  0.00    +0.000 OA
ATOM     22  H   UNL     1      47.279   7.306  15.769  0.00  0.00    +0.000 HD
BRANCH  20  23
ATOM     23  C   UNL     1      49.390   6.058  16.614  0.00  0.00    +0.000 A 
ATOM     24  C   UNL     1      50.369   6.296  17.569  0.00  0.00    +0.000 A 
ATOM     25  S   UNL     1      50.325   5.212  18.883  0.00  0.00    +0.000 S 
ATOM     26  C   UNL     1      49.026   4.354  18.201  0.00  0.00    +0.000 A 
ATOM     27  N   UNL     1      48.505   3.262  18.820  0.00  0.00    +0.000 NA
ATOM     28  C   UNL     1      47.543   2.689  18.180  0.00  0.00    +0.000 A 
ATOM     29  N   UNL     1      47.046   3.116  16.976  0.00  0.00    +0.000 N 
ATOM     30  C   UNL     1      47.522   4.228  16.321  0.00  0.00    +0.000 A 
ATOM     31  O   UNL     1      47.030   4.606  15.263  0.00  0.00    +0.000 OA
ATOM     32  C   UNL     1      48.615   4.901  16.997  0.00  0.00    +0.000 A 
ATOM     33  H   UNL     1      46.283   2.628  16.528  0.00  0.00    +0.000 HD
ENDBRANCH  20  23
ENDBRANCH  18  19
ENDBRANCH   4  18
TORSDOF 7
ENDMDL
MODEL 3
REMARK VINA RESULT:    -7.246      1.991      2.831
REMARK INTER + INTRA:         -11.452
REMARK INTER:                 -10.855
REMARK INTRA:                  -0.597
REMARK UNBOUND:                -1.240
REMARK  Name = 
REMARK  8 active torsions:
REMARK  status: ('A' for Active; 'I' for Inactive)
REMARK    1  A    between atoms: C_1  and  O_2
REMARK    2  A    between atoms: O_2  and  C_3
REMARK    3  A    between atoms: C_7  and  C_8
REMARK    4  A    between atoms: C_8  and  N_9
REMARK    5  A    between atoms: N_9  and  C_10
REMARK    6  A    between atoms: C_13  and  C_14
REMARK    7  A    between atoms: C_14  and  N_15
REMARK    8  A    between atoms: C_16  and  C_18
REMARK                            x       y       z     vdW  Elec       q    Type
REMARK                         _______ _______ _______ _____ _____    ______ ____
ROOT
ATOM      1  C   UNL     1      45.032   3.806   9.966  0.00  0.00    +0.000 A 
ATOM      2  C   UNL     1      44.975   3.650  11.357  0.00  0.00    +0.000 A 
ATOM      3  C   UNL     1      45.268   4.715  12.221  0.00  0.00    +0.000 A 
ATOM      4  C   UNL     1      45.649   5.961  11.709  0.00  0.00    +0.000 A 
ATOM      5  C   UNL     1      45.793   6.095  10.326  0.00  0.00    +0.000 A 
ATOM      6  C   UNL     1      45.500   5.029   9.471  0.00  0.00    +0.000 A 
ENDROOT
BRANCH   1   7
ATOM      7  N   UNL     1      44.759   2.703   9.133  0.00  0.00    +0.000 N 
ATOM      8  H   UNL     1      44.346   3.011   8.253  0.00  0.00    +0.000 HD
BRANCH   7   9
ATOM      9  C   UNL     1      45.889   1.804   8.870  0.00  0.00    +0.000 C 
BRANCH   9  14
ATOM     10  C   UNL     1      47.215   1.077   5.512  0.00  0.00    +0.000 A 
ATOM     11  C   UNL     1      47.369   2.316   4.912  0.00  0.00    +0.000 A 
ATOM     12  C   UNL     1      47.060   3.450   5.656  0.00  0.00    +0.000 A 
ATOM     13  C   UNL     1      46.601   3.302   6.963  0.00  0.00    +0.000 A 
ATOM     14  C   UNL     1      46.468   2.019   7.487  0.00  0.00    +0.000 A 
ATOM     15  N   UNL     1      46.781   0.908   6.777  0.00  0.00    +0.000 NA
BRANCH  10  17
ATOM     16  C   UNL     1      46.880   0.028   3.457  0.00  0.00    +0.000 C 
ATOM     17  O   UNL     1      47.499  -0.031   4.739  0.00  0.00    +0.000 OA
ENDBRANCH  10  17
ENDBRANCH   9  14
ENDBRANCH   7   9
ENDBRANCH   1   7
BRANCH   4  18
ATOM     18  C   UNL     1      45.943   7.130  12.607  0.00  0.00    +0.000 C 
BRANCH  18  19
ATOM     19  N   UNL     1      46.600   6.717  13.821  0.00  0.00    +0.000 N 
ATOM     20  C   UNL     1      47.968   6.687  13.895  0.00  0.00    +0.000 C 
ATOM     21  O   UNL     1      48.677   7.058  12.965  0.00  0.00    +0.000 OA
ATOM     22  H   UNL     1      46.046   6.202  14.498  0.00  0.00    +0.000 HD
BRANCH  20  23
ATOM     23  C   UNL     1      48.552   6.235  15.164  0.00  0.00    +0.000 A 
ATOM     24  C   UNL     1      49.650   6.905  15.687  0.00  0.00    +0.000 A 
ATOM     25  S   UNL     1      50.184   6.285  17.183  0.00  0.00    +0.000 S 
ATOM     26  C   UNL     1      48.998   5.067  17.162  0.00  0.00    +0.000 A 
ATOM     27  N   UNL     1      48.917   4.152  18.164  0.00  0.00    +0.000 NA
ATOM     28  C   UNL     1      47.992   3.267  18.008  0.00  0.00    +0.000 A 
ATOM     29  N   UNL     1      47.130   3.220  16.943  0.00  0.00    +0.000 N 
ATOM     30  C   UNL     1      47.156   4.136  15.917  0.00  0.00    +0.000 A 
ATOM     31  O   UNL     1      46.347   4.088  14.997  0.00  0.00    +0.000 OA
ATOM     32  C   UNL     1      48.190   5.146  16.041  0.00  0.00    +0.000 A 
ATOM     33  H   UNL     1      46.419   2.505  16.884  0.00  0.00    +0.000 HD
ENDBRANCH  20  23
ENDBRANCH  18  19
ENDBRANCH   4  18
TORSDOF 7
ENDMDL
MODEL 4
REMARK VINA RESULT:    -7.163      2.135      2.636
REMARK INTER + INTRA:         -11.335
REMARK INTER:                 -10.324
REMARK INTRA:                  -1.010
REMARK UNBOUND:                -1.240
REMARK  Name = 
REMARK  8 active torsions:
REMARK  status: ('A' for Active; 'I' for Inactive)
REMARK    1  A    between atoms: C_1  and  O_2
REMARK    2  A    between atoms: O_2  and  C_3
REMARK    3  A    between atoms: C_7  and  C_8
REMARK    4  A    between atoms: C_8  and  N_9
REMARK    5  A    between atoms: N_9  and  C_10
REMARK    6  A    between atoms: C_13  and  C_14
REMARK    7  A    between atoms: C_14  and  N_15
REMARK    8  A    between atoms: C_16  and  C_18
REMARK                            x       y       z     vdW  Elec       q    Type
REMARK                         _______ _______ _______ _____ _____    ______ ____
ROOT
ATOM      1  C   UNL     1      45.387   6.925  11.588  0.00  0.00    +0.000 A 
ATOM      2  C   UNL     1      46.566   6.194  11.787  0.00  0.00    +0.000 A 
ATOM      3  C   UNL     1      47.524   6.601  12.728  0.00  0.00    +0.000 A 
ATOM      4  C   UNL     1      47.333   7.769  13.475  0.00  0.00    +0.000 A 
ATOM      5  C   UNL     1      46.204   8.548  13.215  0.00  0.00    +0.000 A 
ATOM      6  C   UNL     1      45.253   8.136  12.277  0.00  0.00    +0.000 A 
ENDROOT
BRANCH   1   7
ATOM      7  N   UNL     1      44.464   6.499  10.613  0.00  0.00    +0.000 N 
ATOM      8  H   UNL     1      44.875   6.555   9.681  0.00  0.00    +0.000 HD
BRANCH   7   9
ATOM      9  C   UNL     1      43.876   5.171  10.824  0.00  0.00    +0.000 C 
BRANCH   9  14
ATOM     10  C   UNL     1      45.677   3.744   7.946  0.00  0.00    +0.000 A 
ATOM     11  C   UNL     1      45.567   2.372   8.099  0.00  0.00    +0.000 A 
ATOM     12  C   UNL     1      44.834   1.887   9.177  0.00  0.00    +0.000 A 
ATOM     13  C   UNL     1      44.250   2.789  10.064  0.00  0.00    +0.000 A 
ATOM     14  C   UNL     1      44.415   4.154   9.840  0.00  0.00    +0.000 A 
ATOM     15  N   UNL     1      45.114   4.638   8.784  0.00  0.00    +0.000 NA
BRANCH  10  17
ATOM     16  C   UNL     1      46.818   3.142   6.003  0.00  0.00    +0.000 C 
ATOM     17  O   UNL     1      46.435   4.196   6.885  0.00  0.00    +0.000 OA
ENDBRANCH  10  17
ENDBRANCH   9  14
ENDBRANCH   7   9
ENDBRANCH   1   7
BRANCH   4  18
ATOM     18  C   UNL     1      48.328   8.218  14.509  0.00  0.00    +0.000 C 
BRANCH  18  19
ATOM     19  N   UNL     1      48.153   7.519  15.756  0.00  0.00    +0.000 N 
ATOM     20  C   UNL     1      49.127   6.674  16.221  0.00  0.00    +0.000 C 
ATOM     21  O   UNL     1      50.193   6.525  15.632  0.00  0.00    +0.000 OA
ATOM     22  H   UNL     1      47.210   7.455  16.126  0.00  0.00    +0.000 HD
BRANCH  20  23
ATOM     23  C   UNL     1      48.857   5.988  17.491  0.00  0.00    +0.000 A 
ATOM     24  C   UNL     1      49.046   4.616  17.579  0.00  0.00    +0.000 A 
ATOM     25  S   UNL     1      48.727   3.977  19.127  0.00  0.00    +0.000 S 
ATOM     26  C   UNL     1      48.278   5.503  19.724  0.00  0.00    +0.000 A 
ATOM     27  N   UNL     1      47.860   5.658  21.008  0.00  0.00    +0.000 NA
ATOM     28  C   UNL     1      47.522   6.863  21.320  0.00  0.00    +0.000 A 
ATOM     29  N   UNL     1      47.572   7.934  20.465  0.00  0.00    +0.000 N 
ATOM     30  C   UNL     1      48.011   7.833  19.165  0.00  0.00    +0.000 A 
ATOM     31  O   UNL     1      48.079   8.817  18.436  0.00  0.00    +0.000 OA
ATOM     32  C   UNL     1      48.391   6.493  18.761  0.00  0.00    +0.000 A 
ATOM     33  H   UNL     1      47.302   8.856  20.774  0.00  0.00    +0.000 HD
ENDBRANCH  20  23
ENDBRANCH  18  19
ENDBRANCH   4  18
TORSDOF 7
ENDMDL
MODEL 5
REMARK VINA RESULT:    -7.068      3.610      8.443
REMARK INTER + INTRA:         -11.200
REMARK INTER:                 -10.315
REMARK INTRA:                  -0.885
REMARK UNBOUND:                -1.240
REMARK  Name = 
REMARK  8 active torsions:
REMARK  status: ('A' for Active; 'I' for Inactive)
REMARK    1  A    between atoms: C_1  and  O_2
REMARK    2  A    between atoms: O_2  and  C_3
REMARK    3  A    between atoms: C_7  and  C_8
REMARK    4  A    between atoms: C_8  and  N_9
REMARK    5  A    between atoms: N_9  and  C_10
REMARK    6  A    between atoms: C_13  and  C_14
REMARK    7  A    between atoms: C_14  and  N_15
REMARK    8  A    between atoms: C_16  and  C_18
REMARK                            x       y       z     vdW  Elec       q    Type
REMARK                         _______ _______ _______ _____ _____    ______ ____
ROOT
ATOM      1  C   UNL     1      49.676   6.591  16.435  0.00  0.00    +0.000 A 
ATOM      2  C   UNL     1      50.532   7.348  15.625  0.00  0.00    +0.000 A 
ATOM      3  C   UNL     1      50.161   7.724  14.325  0.00  0.00    +0.000 A 
ATOM      4  C   UNL     1      48.927   7.328  13.797  0.00  0.00    +0.000 A 
ATOM      5  C   UNL     1      48.109   6.500  14.568  0.00  0.00    +0.000 A 
ATOM      6  C   UNL     1      48.485   6.128  15.862  0.00  0.00    +0.000 A 
ENDROOT
BRANCH   1   7
ATOM      7  N   UNL     1      50.099   6.209  17.724  0.00  0.00    +0.000 N 
ATOM      8  H   UNL     1      49.439   5.550  18.137  0.00  0.00    +0.000 HD
BRANCH   7   9
ATOM      9  C   UNL     1      51.464   5.681  17.820  0.00  0.00    +0.000 C 
BRANCH   9  14
ATOM     10  C   UNL     1      50.483   2.246  16.925  0.00  0.00    +0.000 A 
ATOM     11  C   UNL     1      51.539   1.452  17.341  0.00  0.00    +0.000 A 
ATOM     12  C   UNL     1      52.611   2.066  17.982  0.00  0.00    +0.000 A 
ATOM     13  C   UNL     1      52.590   3.446  18.172  0.00  0.00    +0.000 A 
ATOM     14  C   UNL     1      51.492   4.171  17.717  0.00  0.00    +0.000 A 
ATOM     15  N   UNL     1      50.435   3.582  17.105  0.00  0.00    +0.000 NA
BRANCH  10  17
ATOM     16  C   UNL     1      48.258   2.397  16.247  0.00  0.00    +0.000 C 
ATOM     17  O   UNL     1      49.449   1.614  16.265  0.00  0.00    +0.000 OA
ENDBRANCH  10  17
ENDBRANCH   9  14
ENDBRANCH   7   9
ENDBRANCH   1   7
BRANCH   4  18
ATOM     18  C   UNL     1      48.488   7.737  12.419  0.00  0.00    +0.000 C 
BRANCH  18  19
ATOM     19  N   UNL     1      47.749   6.690  11.762  0.00  0.00    +0.000 N 
ATOM     20  C   UNL     1      46.404   6.827  11.534  0.00  0.00    +0.000 C 
ATOM     21  O   UNL     1      45.797   7.853  11.825  0.00  0.00    +0.000 OA
ATOM     22  H   UNL     1      48.176   5.769  11.727  0.00  0.00    +0.000 HD
BRANCH  20  23
ATOM     23  C   UNL     1      45.727   5.701  10.876  0.00  0.00    +0.000 A 
ATOM     24  C   UNL     1      45.833   5.552   9.500  0.00  0.00    +0.000 A 
ATOM     25  S   UNL     1      45.025   4.178   8.895  0.00  0.00    +0.000 S 
ATOM     26  C   UNL     1      44.464   3.759  10.444  0.00  0.00    +0.000 A 
ATOM     27  N   UNL     1      43.672   2.671  10.631  0.00  0.00    +0.000 NA
ATOM     28  C   UNL     1      43.294   2.486  11.850  0.00  0.00    +0.000 A 
ATOM     29  N   UNL     1      43.646   3.287  12.905  0.00  0.00    +0.000 N 
ATOM     30  C   UNL     1      44.464   4.385  12.772  0.00  0.00    +0.000 A 
ATOM     31  O   UNL     1      44.790   5.060  13.742  0.00  0.00    +0.000 OA
ATOM     32  C   UNL     1      44.906   4.643  11.414  0.00  0.00    +0.000 A 
ATOM     33  H   UNL     1      43.324   3.083  13.841  0.00  0.00    +0.000 HD
ENDBRANCH  20  23
ENDBRANCH  18  19
ENDBRANCH   4  18
TORSDOF 7
ENDMDL
MODEL 6
REMARK VINA RESULT:    -7.002      2.568      4.148
REMARK INTER + INTRA:         -11.108
REMARK INTER:                 -10.063
REMARK INTRA:                  -1.045
REMARK UNBOUND:                -1.240
REMARK  Name = 
REMARK  8 active torsions:
REMARK  status: ('A' for Active; 'I' for Inactive)
REMARK    1  A    between atoms: C_1  and  O_2
REMARK    2  A    between atoms: O_2  and  C_3
REMARK    3  A    between atoms: C_7  and  C_8
REMARK    4  A    between atoms: C_8  and  N_9
REMARK    5  A    between atoms: N_9  and  C_10
REMARK    6  A    between atoms: C_13  and  C_14
REMARK    7  A    between atoms: C_14  and  N_15
REMARK    8  A    between atoms: C_16  and  C_18
REMARK                            x       y       z     vdW  Elec       q    Type
REMARK                         _______ _______ _______ _____ _____    ______ ____
ROOT
ATOM      1  C   UNL     1      45.094   4.409   9.811  0.00  0.00    +0.000 A 
ATOM      2  C   UNL     1      44.762   3.346  10.660  0.00  0.00    +0.000 A 
ATOM      3  C   UNL     1      44.977   3.425  12.044  0.00  0.00    +0.000 A 
ATOM      4  C   UNL     1      45.556   4.568  12.608  0.00  0.00    +0.000 A 
ATOM      5  C   UNL     1      45.971   5.593  11.754  0.00  0.00    +0.000 A 
ATOM      6  C   UNL     1      45.753   5.507  10.376  0.00  0.00    +0.000 A 
ENDROOT
BRANCH   1   7
ATOM      7  N   UNL     1      44.889   4.277   8.423  0.00  0.00    +0.000 N 
ATOM      8  H   UNL     1      44.239   4.988   8.087  0.00  0.00    +0.000 HD
BRANCH   7   9
ATOM      9  C   UNL     1      46.100   4.271   7.594  0.00  0.00    +0.000 C 
BRANCH   9  14
ATOM     10  C   UNL     1      47.148   1.544   5.351  0.00  0.00    +0.000 A 
ATOM     11  C   UNL     1      47.220   0.423   6.161  0.00  0.00    +0.000 A 
ATOM     12  C   UNL     1      46.872   0.556   7.501  0.00  0.00    +0.000 A 
ATOM     13  C   UNL     1      46.475   1.802   7.981  0.00  0.00    +0.000 A 
ATOM     14  C   UNL     1      46.437   2.880   7.100  0.00  0.00    +0.000 A 
ATOM     15  N   UNL     1      46.759   2.759   5.789  0.00  0.00    +0.000 NA
BRANCH  10  17
ATOM     16  C   UNL     1      46.749   0.408   3.355  0.00  0.00    +0.000 C 
ATOM     17  O   UNL     1      47.529   1.389   4.034  0.00  0.00    +0.000 OA
ENDBRANCH  10  17
ENDBRANCH   9  14
ENDBRANCH   7   9
ENDBRANCH   1   7
BRANCH   4  18
ATOM     18  C   UNL     1      45.776   4.696  14.089  0.00  0.00    +0.000 C 
BRANCH  18  19
ATOM     19  N   UNL     1      46.769   5.693  14.398  0.00  0.00    +0.000 N 
ATOM     20  C   UNL     1      47.767   5.423  15.298  0.00  0.00    +0.000 C 
ATOM     21  O   UNL     1      47.886   4.322  15.826  0.00  0.00    +0.000 OA
ATOM     22  H   UNL     1      46.555   6.655  14.153  0.00  0.00    +0.000 HD
BRANCH  20  23
ATOM     23  C   UNL     1      48.724   6.504  15.567  0.00  0.00    +0.000 A 
ATOM     24  C   UNL     1      48.895   6.956  16.868  0.00  0.00    +0.000 A 
ATOM     25  S   UNL     1      50.068   8.184  17.019  0.00  0.00    +0.000 S 
ATOM     26  C   UNL     1      50.355   8.190  15.345  0.00  0.00    +0.000 A 
ATOM     27  N   UNL     1      51.251   9.050  14.791  0.00  0.00    +0.000 NA
ATOM     28  C   UNL     1      51.349   8.969  13.507  0.00  0.00    +0.000 A 
ATOM     29  N   UNL     1      50.639   8.097  12.725  0.00  0.00    +0.000 N 
ATOM     30  C   UNL     1      49.740   7.191  13.239  0.00  0.00    +0.000 A 
ATOM     31  O   UNL     1      49.147   6.398  12.515  0.00  0.00    +0.000 OA
ATOM     32  C   UNL     1      49.584   7.252  14.680  0.00  0.00    +0.000 A 
ATOM     33  H   UNL     1      50.768   8.075  11.723  0.00  0.00    +0.000 HD
ENDBRANCH  20  23
ENDBRANCH  18  19
ENDBRANCH   4  18
TORSDOF 7
ENDMDL
MODEL 7
REMARK VINA RESULT:    -6.848      3.346      3.863
REMARK INTER + INTRA:         -10.890
REMARK INTER:                  -9.763
REMARK INTRA:                  -1.127
REMARK UNBOUND:                -1.240
REMARK  Name = 
REMARK  8 active torsions:
REMARK  status: ('A' for Active; 'I' for Inactive)
REMARK    1  A    between atoms: C_1  and  O_2
REMARK    2  A    between atoms: O_2  and  C_3
REMARK    3  A    between atoms: C_7  and  C_8
REMARK    4  A    between atoms: C_8  and  N_9
REMARK    5  A    between atoms: N_9  and  C_10
REMARK    6  A    between atoms: C_13  and  C_14
REMARK    7  A    between atoms: C_14  and  N_15
REMARK    8  A    between atoms: C_16  and  C_18
REMARK                            x       y       z     vdW  Elec       q    Type
REMARK                         _______ _______ _______ _____ _____    ______ ____
ROOT
ATOM      1  C   UNL     1      46.820   4.564  14.675  0.00  0.00    +0.000 A 
ATOM      2  C   UNL     1      47.050   3.919  15.898  0.00  0.00    +0.000 A 
ATOM      3  C   UNL     1      47.927   4.458  16.851  0.00  0.00    +0.000 A 
ATOM      4  C   UNL     1      48.615   5.648  16.590  0.00  0.00    +0.000 A 
ATOM      5  C   UNL     1      48.457   6.246  15.338  0.00  0.00    +0.000 A 
ATOM      6  C   UNL     1      47.582   5.704  14.392  0.00  0.00    +0.000 A 
ENDROOT
BRANCH   1   7
ATOM      7  N   UNL     1      45.955   3.974  13.733  0.00  0.00    +0.000 N 
ATOM      8  H   UNL     1      45.360   3.275  14.179  0.00  0.00    +0.000 HD
BRANCH   7   9
ATOM      9  C   UNL     1      45.135   4.903  12.946  0.00  0.00    +0.000 C 
BRANCH   9  14
ATOM     10  C   UNL     1      45.000   3.210   9.678  0.00  0.00    +0.000 A 
ATOM     11  C   UNL     1      45.355   4.181   8.757  0.00  0.00    +0.000 A 
ATOM     12  C   UNL     1      45.693   5.444   9.231  0.00  0.00    +0.000 A 
ATOM     13  C   UNL     1      45.654   5.691  10.601  0.00  0.00    +0.000 A 
ATOM     14  C   UNL     1      45.279   4.659  11.459  0.00  0.00    +0.000 A 
ATOM     15  N   UNL     1      44.962   3.420  11.010  0.00  0.00    +0.000 NA
BRANCH  10  17
ATOM     16  C   UNL     1      45.689   1.365   8.430  0.00  0.00    +0.000 C 
ATOM     17  O   UNL     1      44.639   1.976   9.177  0.00  0.00    +0.000 OA
ENDBRANCH  10  17
ENDBRANCH   9  14
ENDBRANCH   7   9
ENDBRANCH   1   7
BRANCH   4  18
ATOM     18  C   UNL     1      49.541   6.265  17.600  0.00  0.00    +0.000 C 
BRANCH  18  19
ATOM     19  N   UNL     1      50.528   5.324  18.063  0.00  0.00    +0.000 N 
ATOM     20  C   UNL     1      51.743   5.228  17.436  0.00  0.00    +0.000 C 
ATOM     21  O   UNL     1      52.055   5.966  16.506  0.00  0.00    +0.000 OA
ATOM     22  H   UNL     1      50.208   4.570  18.664  0.00  0.00    +0.000 HD
BRANCH  20  23
ATOM     23  C   UNL     1      52.682   4.228  17.962  0.00  0.00    +0.000 A 
ATOM     24  C   UNL     1      53.847   4.650  18.589  0.00  0.00    +0.000 A 
ATOM     25  S   UNL     1      54.809   3.372  19.179  0.00  0.00    +0.000 S 
ATOM     26  C   UNL     1      53.728   2.208  18.576  0.00  0.00    +0.000 A 
ATOM     27  N   UNL     1      53.977   0.880  18.721  0.00  0.00    +0.000 NA
ATOM     28  C   UNL     1      53.091   0.107  18.191  0.00  0.00    +0.000 A 
ATOM     29  N   UNL     1      51.969   0.542  17.535  0.00  0.00    +0.000 N 
ATOM     30  C   UNL     1      51.660   1.874  17.383  0.00  0.00    +0.000 A 
ATOM     31  O   UNL     1      50.629   2.231  16.823  0.00  0.00    +0.000 OA
ATOM     32  C   UNL     1      52.635   2.786  17.952  0.00  0.00    +0.000 A 
ATOM     33  H   UNL     1      51.306  -0.115  17.150  0.00  0.00    +0.000 HD
ENDBRANCH  20  23
ENDBRANCH  18  19
ENDBRANCH   4  18
TORSDOF 7
ENDMDL
MODEL 8
REMARK VINA RESULT:    -6.767      2.944      8.536
REMARK INTER + INTRA:         -10.777
REMARK INTER:                  -9.564
REMARK INTRA:                  -1.213
REMARK UNBOUND:                -1.240
REMARK  Name = 
REMARK  8 active torsions:
REMARK  status: ('A' for Active; 'I' for Inactive)
REMARK    1  A    between atoms: C_1  and  O_2
REMARK    2  A    between atoms: O_2  and  C_3
REMARK    3  A    between atoms: C_7  and  C_8
REMARK    4  A    between atoms: C_8  and  N_9
REMARK    5  A    between atoms: N_9  and  C_10
REMARK    6  A    between atoms: C_13  and  C_14
REMARK    7  A    between atoms: C_14  and  N_15
REMARK    8  A    between atoms: C_16  and  C_18
REMARK                            x       y       z     vdW  Elec       q    Type
REMARK                         _______ _______ _______ _____ _____    ______ ____
ROOT
ATOM      1  C   UNL     1      49.912   8.041  15.552  0.00  0.00    +0.000 A 
ATOM      2  C   UNL     1      48.584   8.483  15.489  0.00  0.00    +0.000 A 
ATOM      3  C   UNL     1      47.871   8.477  14.281  0.00  0.00    +0.000 A 
ATOM      4  C   UNL     1      48.484   8.050  13.097  0.00  0.00    +0.000 A 
ATOM      5  C   UNL     1      49.833   7.694  13.139  0.00  0.00    +0.000 A 
ATOM      6  C   UNL     1      50.537   7.702  14.346  0.00  0.00    +0.000 A 
ENDROOT
BRANCH   1   7
ATOM      7  N   UNL     1      50.601   8.090  16.779  0.00  0.00    +0.000 N 
ATOM      8  H   UNL     1      50.179   8.779  17.401  0.00  0.00    +0.000 HD
BRANCH   7   9
ATOM      9  C   UNL     1      50.756   6.810  17.480  0.00  0.00    +0.000 C 
BRANCH   9  14
ATOM     10  C   UNL     1      48.135   4.350  16.680  0.00  0.00    +0.000 A 
ATOM     11  C   UNL     1      47.191   4.494  17.683  0.00  0.00    +0.000 A 
ATOM     12  C   UNL     1      47.402   5.472  18.649  0.00  0.00    +0.000 A 
ATOM     13  C   UNL     1      48.549   6.259  18.582  0.00  0.00    +0.000 A 
ATOM     14  C   UNL     1      49.452   6.043  17.544  0.00  0.00    +0.000 A 
ATOM     15  N   UNL     1      49.249   5.104  16.588  0.00  0.00    +0.000 NA
BRANCH  10  17
ATOM     16  C   UNL     1      47.190   3.815  14.617  0.00  0.00    +0.000 C 
ATOM     17  O   UNL     1      47.914   3.351  15.754  0.00  0.00    +0.000 OA
ENDBRANCH  10  17
ENDBRANCH   9  14
ENDBRANCH   7   9
ENDBRANCH   1   7
BRANCH   4  18
ATOM     18  C   UNL     1      47.740   8.008  11.792  0.00  0.00    +0.000 C 
BRANCH  18  19
ATOM     19  N   UNL     1      47.015   6.773  11.631  0.00  0.00    +0.000 N 
ATOM     20  C   UNL     1      45.655   6.740  11.794  0.00  0.00    +0.000 C 
ATOM     21  O   UNL     1      45.003   7.754  12.023  0.00  0.00    +0.000 OA
ATOM     22  H   UNL     1      47.550   5.910  11.670  0.00  0.00    +0.000 HD
BRANCH  20  23
ATOM     23  C   UNL     1      45.001   5.435  11.630  0.00  0.00    +0.000 A 
ATOM     24  C   UNL     1      44.293   4.888  12.692  0.00  0.00    +0.000 A 
ATOM     25  S   UNL     1      43.562   3.392  12.332  0.00  0.00    +0.000 S 
ATOM     26  C   UNL     1      44.204   3.396  10.758  0.00  0.00    +0.000 A 
ATOM     27  N   UNL     1      43.976   2.362   9.906  0.00  0.00    +0.000 NA
ATOM     28  C   UNL     1      44.546   2.479   8.755  0.00  0.00    +0.000 A 
ATOM     29  N   UNL     1      45.319   3.545   8.373  0.00  0.00    +0.000 N 
ATOM     30  C   UNL     1      45.559   4.626   9.189  0.00  0.00    +0.000 A 
ATOM     31  O   UNL     1      46.225   5.581   8.805  0.00  0.00    +0.000 OA
ATOM     32  C   UNL     1      44.948   4.535  10.502  0.00  0.00    +0.000 A 
ATOM     33  H   UNL     1      45.731   3.582   7.452  0.00  0.00    +0.000 HD
ENDBRANCH  20  23
ENDBRANCH  18  19
ENDBRANCH   4  18
TORSDOF 7
ENDMDL
MODEL 9
REMARK VINA RESULT:    -6.469      2.682      3.790
REMARK INTER + INTRA:         -10.357
REMARK INTER:                  -9.139
REMARK INTRA:                  -1.219
REMARK UNBOUND:                -1.240
REMARK  Name = 
REMARK  8 active torsions:
REMARK  status: ('A' for Active; 'I' for Inactive)
REMARK    1  A    between atoms: C_1  and  O_2
REMARK    2  A    between atoms: O_2  and  C_3
REMARK    3  A    between atoms: C_7  and  C_8
REMARK    4  A    between atoms: C_8  and  N_9
REMARK    5  A    between atoms: N_9  and  C_10
REMARK    6  A    between atoms: C_13  and  C_14
REMARK    7  A    between atoms: C_14  and  N_15
REMARK    8  A    between atoms: C_16  and  C_18
REMARK                            x       y       z     vdW  Elec       q    Type
REMARK                         _______ _______ _______ _____ _____    ______ ____
ROOT
ATOM      1  C   UNL     1      47.235   7.042  12.543  0.00  0.00    +0.000 A 
ATOM      2  C   UNL     1      47.201   8.307  13.145  0.00  0.00    +0.000 A 
ATOM      3  C   UNL     1      47.810   8.539  14.388  0.00  0.00    +0.000 A 
ATOM      4  C   UNL     1      48.449   7.498  15.070  0.00  0.00    +0.000 A 
ATOM      5  C   UNL     1      48.408   6.216  14.516  0.00  0.00    +0.000 A 
ATOM      6  C   UNL     1      47.800   5.992  13.278  0.00  0.00    +0.000 A 
ENDROOT
BRANCH   1   7
ATOM      7  N   UNL     1      46.586   6.844  11.309  0.00  0.00    +0.000 N 
ATOM      8  H   UNL     1      46.872   5.959  10.891  0.00  0.00    +0.000 HD
BRANCH   7   9
ATOM      9  C   UNL     1      45.122   6.939  11.332  0.00  0.00    +0.000 C 
BRANCH   9  14
ATOM     10  C   UNL     1      43.971   3.485  10.782  0.00  0.00    +0.000 A 
ATOM     11  C   UNL     1      43.470   3.075  12.006  0.00  0.00    +0.000 A 
ATOM     12  C   UNL     1      43.472   3.987  13.056  0.00  0.00    +0.000 A 
ATOM     13  C   UNL     1      43.983   5.266  12.846  0.00  0.00    +0.000 A 
ATOM     14  C   UNL     1      44.475   5.594  11.585  0.00  0.00    +0.000 A 
ATOM     15  N   UNL     1      44.463   4.719  10.550  0.00  0.00    +0.000 NA
BRANCH  10  17
ATOM     16  C   UNL     1      45.284   2.373   9.208  0.00  0.00    +0.000 C 
ATOM     17  O   UNL     1      43.984   2.549   9.768  0.00  0.00    +0.000 OA
ENDBRANCH  10  17
ENDBRANCH   9  14
ENDBRANCH   7   9
ENDBRANCH   1   7
BRANCH   4  18
ATOM     18  C   UNL     1      49.134   7.719  16.390  0.00  0.00    +0.000 C 
BRANCH  18  19
ATOM     19  N   UNL     1      50.074   6.669  16.686  0.00  0.00    +0.000 N 
ATOM     20  C   UNL     1      50.297   6.282  17.982  0.00  0.00    +0.000 C 
ATOM     21  O   UNL     1      49.674   6.767  18.921  0.00  0.00    +0.000 OA
ATOM     22  H   UNL     1      50.746   6.427  15.963  0.00  0.00    +0.000 HD
BRANCH  20  23
ATOM     23  C   UNL     1      51.287   5.217  18.193  0.00  0.00    +0.000 A 
ATOM     24  C   UNL     1      52.496   5.521  18.802  0.00  0.00    +0.000 A 
ATOM     25  S   UNL     1      53.518   4.173  19.010  0.00  0.00    +0.000 S 
ATOM     26  C   UNL     1      52.401   3.141  18.250  0.00  0.00    +0.000 A 
ATOM     27  N   UNL     1      52.675   1.822  18.072  0.00  0.00    +0.000 NA
ATOM     28  C   UNL     1      51.754   1.162  17.455  0.00  0.00    +0.000 A 
ATOM     29  N   UNL     1      50.576   1.700  17.007  0.00  0.00    +0.000 N 
ATOM     30  C   UNL     1      50.242   3.023  17.183  0.00  0.00    +0.000 A 
ATOM     31  O   UNL     1      49.164   3.466  16.803  0.00  0.00    +0.000 OA
ATOM     32  C   UNL     1      51.253   3.812  17.862  0.00  0.00    +0.000 A 
ATOM     33  H   UNL     1      49.890   1.127  16.538  0.00  0.00    +0.000 HD
ENDBRANCH  20  23
ENDBRANCH  18  19
ENDBRANCH   4  18
TORSDOF 7
ENDMDL
