MODEL 1
REMARK VINA RESULT:    -7.777      0.000      0.000
REMARK INTER + INTRA:         -11.736
REMARK INTER:                 -10.732
REMARK INTRA:                  -1.004
REMARK UNBOUND:                -1.004
REMARK  Name = 
REMARK  8 active torsions:
REMARK  status: ('A' for Active; 'I' for Inactive)
REMARK    1  A    between atoms: C_1  and  C_2
REMARK    2  A    between atoms: C_2  and  C_3
REMARK    3  A    between atoms: C_2  and  C_14
REMARK    4  A    between atoms: C_3  and  O_4
REMARK    5  A    between atoms: O_4  and  C_5
REMARK    6  A    between atoms: C_8  and  C_9
REMARK    7  A    between atoms: C_18  and  C_19
REMARK    8  A    between atoms: C_19  and  N_20
REMARK                            x       y       z     vdW  Elec       q    Type
REMARK                         _______ _______ _______ _____ _____    ______ ____
ROOT
ATOM      1  C   UNL     1      43.584   3.512  11.329  0.00  0.00    +0.000 C 
ENDROOT
BRANCH   1   3
ATOM      2  C   UNL     1      42.835   5.955  11.470  0.00  0.00    +0.000 C 
ATOM      3  C   UNL     1      43.577   4.810  12.161  0.00  0.00    +0.000 C 
BRANCH   3   4
ATOM      4  C   UNL     1      45.009   5.198  12.506  0.00  0.00    +0.000 A 
ATOM      5  C   UNL     1      45.705   6.124  11.720  0.00  0.00    +0.000 A 
ATOM      6  C   UNL     1      46.991   6.534  12.081  0.00  0.00    +0.000 A 
ATOM      7  C   UNL     1      47.592   6.036  13.238  0.00  0.00    +0.000 A 
ATOM      8  C   UNL     1      46.917   5.113  14.044  0.00  0.00    +0.000 A 
ATOM      9  C   UNL     1      45.637   4.688  13.655  0.00  0.00    +0.000 A 
BRANCH   8  10
ATOM     10  C   UNL     1      47.537   4.576  15.309  0.00  0.00    +0.000 C 
BRANCH  10  11
ATOM     11  N   UNL     1      47.708   3.127  15.243  0.00  0.00    +0.000 NA
ATOM     12  H   UNL     1      48.681   2.903  15.446  0.00  0.00    +0.000 HD
ATOM     13  H   UNL     1      47.529   2.810  14.293  0.00  0.00    +0.000 HD
ENDBRANCH  10  11
ENDBRANCH   8  10
ENDBRANCH   3   4
ENDBRANCH   1   3
BRANCH   1  14
ATOM     14  O   UNL     1      43.408   3.778   9.931  0.00  0.00    +0.000 OA
BRANCH  14  15
ATOM     15  C   UNL     1      44.466   3.386   9.145  0.00  0.00    +0.000 A 
ATOM     16  C   UNL     1      45.236   4.249   8.361  0.00  0.00    +0.000 A 
ATOM     17  C   UNL     1      46.292   3.755   7.591  0.00  0.00    +0.000 A 
ATOM     18  C   UNL     1      46.605   2.394   7.609  0.00  0.00    +0.000 A 
ATOM     19  C   UNL     1      45.845   1.526   8.404  0.00  0.00    +0.000 A 
ATOM     20  C   UNL     1      44.785   2.026   9.174  0.00  0.00    +0.000 A 
BRANCH  18  21
ATOM     21  C   UNL     1      47.729   1.934   6.752  0.00  0.00    +0.000 C 
ATOM     22  N   UNL     1      48.707   2.838   6.451  0.00  0.00    +0.000 N 
ATOM     23  O   UNL     1      47.762   0.801   6.291  0.00  0.00    +0.000 OA
ATOM     24  H   UNL     1      48.595   3.830   6.597  0.00  0.00    +0.000 HD
ATOM     25  H   UNL     1      49.389   2.536   5.766  0.00  0.00    +0.000 HD
ENDBRANCH  18  21
ENDBRANCH  14  15
ENDBRANCH   1  14
TORSDOF 7
ENDMDL
MODEL 2
REMARK VINA RESULT:    -7.724      1.876      2.322
REMARK INTER + INTRA:         -11.662
REMARK INTER:                 -10.747
REMARK INTRA:                  -0.915
REMARK UNBOUND:                -1.004
REMARK  Name = 
REMARK  8 active torsions:
REMARK  status: ('A' for Active; 'I' for Inactive)
REMARK    1  A    between atoms: C_1  and  C_2
REMARK    2  A    between atoms: C_2  and  C_3
REMARK    3  A    between atoms: C_2  and  C_14
REMARK    4  A    between atoms: C_3  and  O_4
REMARK    5  A    between atoms: O_4  and  C_5
REMARK    6  A    between atoms: C_8  and  C_9
REMARK    7  A    between atoms: C_18  and  C_19
REMARK    8  A    between atoms: C_19  and  N_20
REMARK                            x       y       z     vdW  Elec       q    Type
REMARK                         _______ _______ _______ _____ _____    ______ ____
ROOT
ATOM      1  C   UNL     1      43.807   3.229  11.853  0.00  0.00    +0.000 C 
ENDROOT
BRANCH   1   3
ATOM      2  C   UNL     1      42.447   5.393  11.978  0.00  0.00    +0.000 C 
ATOM      3  C   UNL     1      43.501   4.512  12.651  0.00  0.00    +0.000 C 
BRANCH   3   4
ATOM      4  C   UNL     1      44.796   5.275  12.896  0.00  0.00    +0.000 A 
ATOM      5  C   UNL     1      45.947   4.606  13.332  0.00  0.00    +0.000 A 
ATOM      6  C   UNL     1      47.152   5.296  13.483  0.00  0.00    +0.000 A 
ATOM      7  C   UNL     1      47.227   6.659  13.190  0.00  0.00    +0.000 A 
ATOM      8  C   UNL     1      46.094   7.351  12.750  0.00  0.00    +0.000 A 
ATOM      9  C   UNL     1      44.883   6.652  12.628  0.00  0.00    +0.000 A 
BRANCH   8  10
ATOM     10  C   UNL     1      46.156   8.817  12.407  0.00  0.00    +0.000 C 
BRANCH  10  11
ATOM     11  N   UNL     1      44.954   9.517  12.851  0.00  0.00    +0.000 NA
ATOM     12  H   UNL     1      44.447   8.918  13.501  0.00  0.00    +0.000 HD
ATOM     13  H   UNL     1      44.338   9.667  12.054  0.00  0.00    +0.000 HD
ENDBRANCH  10  11
ENDBRANCH   8  10
ENDBRANCH   3   4
ENDBRANCH   1   3
BRANCH   1  14
ATOM     14  O   UNL     1      43.358   3.329  10.494  0.00  0.00    +0.000 OA
BRANCH  14  15
ATOM     15  C   UNL     1      44.358   3.208   9.559  0.00  0.00    +0.000 A 
ATOM     16  C   UNL     1      44.980   4.282   8.918  0.00  0.00    +0.000 A 
ATOM     17  C   UNL     1      45.988   4.057   7.976  0.00  0.00    +0.000 A 
ATOM     18  C   UNL     1      46.401   2.756   7.678  0.00  0.00    +0.000 A 
ATOM     19  C   UNL     1      45.791   1.676   8.330  0.00  0.00    +0.000 A 
ATOM     20  C   UNL     1      44.778   1.907   9.272  0.00  0.00    +0.000 A 
BRANCH  18  21
ATOM     21  C   UNL     1      47.466   2.590   6.654  0.00  0.00    +0.000 C 
ATOM     22  N   UNL     1      47.293   3.217   5.453  0.00  0.00    +0.000 N 
ATOM     23  O   UNL     1      48.444   1.882   6.855  0.00  0.00    +0.000 OA
ATOM     24  H   UNL     1      46.405   3.595   5.159  0.00  0.00    +0.000 HD
ATOM     25  H   UNL     1      47.968   2.983   4.735  0.00  0.00    +0.000 HD
ENDBRANCH  18  21
ENDBRANCH  14  15
ENDBRANCH   1  14
TORSDOF 7
ENDMDL
MODEL 3
REMARK VINA RESULT:    -7.226      2.079      2.792
REMARK INTER + INTRA:         -10.975
REMARK INTER:                 -10.263
REMARK INTRA:                  -0.712
REMARK UNBOUND:                -1.004
REMARK  Name = 
REMARK  8 active torsions:
REMARK  status: ('A' for Active; 'I' for Inactive)
REMARK    1  A    between atoms: C_1  and  C_2
REMARK    2  A    between atoms: C_2  and  C_3
REMARK    3  A    between atoms: C_2  and  C_14
REMARK    4  A    between atoms: C_3  and  O_4
REMARK    5  A    between atoms: O_4  and  C_5
REMARK    6  A    between atoms: C_8  and  C_9
REMARK    7  A    between atoms: C_18  and  C_19
REMARK    8  A    between atoms: C_19  and  N_20
REMARK                            x       y       z     vdW  Elec       q    Type
REMARK                         _______ _______ _______ _____ _____    ______ ____
ROOT
ATOM      1  C   UNL     1      43.828   4.952  10.833  0.00  0.00    +0.000 C 
ENDROOT
BRANCH   1   3
ATOM      2  C   UNL     1      43.168   4.578  13.277  0.00  0.00    +0.000 C 
ATOM      3  C   UNL     1      44.315   4.675  12.270  0.00  0.00    +0.000 C 
BRANCH   3   4
ATOM      4  C   UNL     1      45.328   5.737  12.674  0.00  0.00    +0.000 A 
ATOM      5  C   UNL     1      46.528   5.377  13.300  0.00  0.00    +0.000 A 
ATOM      6  C   UNL     1      47.488   6.347  13.601  0.00  0.00    +0.000 A 
ATOM      7  C   UNL     1      47.268   7.685  13.271  0.00  0.00    +0.000 A 
ATOM      8  C   UNL     1      46.079   8.072  12.643  0.00  0.00    +0.000 A 
ATOM      9  C   UNL     1      45.112   7.092  12.370  0.00  0.00    +0.000 A 
BRANCH   8  10
ATOM     10  C   UNL     1      45.828   9.507  12.258  0.00  0.00    +0.000 C 
BRANCH  10  11
ATOM     11  N   UNL     1      44.480   9.928  12.628  0.00  0.00    +0.000 NA
ATOM     12  H   UNL     1      43.981  10.207  11.784  0.00  0.00    +0.000 HD
ATOM     13  H   UNL     1      44.536  10.755  13.219  0.00  0.00    +0.000 HD
ENDBRANCH  10  11
ENDBRANCH   8  10
ENDBRANCH   3   4
ENDBRANCH   1   3
BRANCH   1  14
ATOM     14  O   UNL     1      43.544   3.737  10.125  0.00  0.00    +0.000 OA
BRANCH  14  15
ATOM     15  C   UNL     1      44.543   3.336   9.271  0.00  0.00    +0.000 A 
ATOM     16  C   UNL     1      44.942   2.010   9.080  0.00  0.00    +0.000 A 
ATOM     17  C   UNL     1      45.973   1.701   8.190  0.00  0.00    +0.000 A 
ATOM     18  C   UNL     1      46.607   2.711   7.462  0.00  0.00    +0.000 A 
ATOM     19  C   UNL     1      46.202   4.041   7.638  0.00  0.00    +0.000 A 
ATOM     20  C   UNL     1      45.168   4.346   8.535  0.00  0.00    +0.000 A 
BRANCH  18  21
ATOM     21  C   UNL     1      47.708   2.313   6.546  0.00  0.00    +0.000 C 
ATOM     22  N   UNL     1      47.832   2.995   5.370  0.00  0.00    +0.000 N 
ATOM     23  O   UNL     1      48.454   1.378   6.809  0.00  0.00    +0.000 OA
ATOM     24  H   UNL     1      47.103   3.590   5.006  0.00  0.00    +0.000 HD
ATOM     25  H   UNL     1      48.507   2.620   4.714  0.00  0.00    +0.000 HD
ENDBRANCH  18  21
ENDBRANCH  14  15
ENDBRANCH   1  14
TORSDOF 7
ENDMDL
MODEL 4
REMARK VINA RESULT:    -6.734      1.301      2.075
REMARK INTER + INTRA:         -10.296
REMARK INTER:                  -9.649
REMARK INTRA:                  -0.647
REMARK UNBOUND:                -1.004
REMARK  Name = 
REMARK  8 active torsions:
REMARK  status: ('A' for Active; 'I' for Inactive)
REMARK    1  A    between atoms: C_1  and  C_2
REMARK    2  A    between atoms: C_2  and  C_3
REMARK    3  A    between atoms: C_2  and  C_14
REMARK    4  A    between atoms: C_3  and  O_4
REMARK    5  A    between atoms: O_4  and  C_5
REMARK    6  A    between atoms: C_8  and  C_9
REMARK    7  A    between atoms: C_18  and  C_19
REMARK    8  A    between atoms: C_19  and  N_20
REMARK                            x       y       z     vdW  Elec       q    Type
REMARK                         _______ _______ _______ _____ _____    ______ ____
ROOT
ATOM      1  C   UNL     1      43.730   4.341  11.234  0.00  0.00    +0.000 C 
ENDROOT
BRANCH   1   3
ATOM      2  C   UNL     1      45.429   3.274  12.823  0.00  0.00    +0.000 C 
ATOM      3  C   UNL     1      45.197   4.296  11.708  0.00  0.00    +0.000 C 
BRANCH   3   4
ATOM      4  C   UNL     1      45.635   5.693  12.128  0.00  0.00    +0.000 A 
ATOM      5  C   UNL     1      44.766   6.783  11.996  0.00  0.00    +0.000 A 
ATOM      6  C   UNL     1      45.144   8.048  12.451  0.00  0.00    +0.000 A 
ATOM      7  C   UNL     1      46.388   8.240  13.055  0.00  0.00    +0.000 A 
ATOM      8  C   UNL     1      47.274   7.167  13.202  0.00  0.00    +0.000 A 
ATOM      9  C   UNL     1      46.893   5.907  12.717  0.00  0.00    +0.000 A 
BRANCH   8  10
ATOM     10  C   UNL     1      48.614   7.344  13.870  0.00  0.00    +0.000 C 
BRANCH  10  11
ATOM     11  N   UNL     1      48.820   6.352  14.920  0.00  0.00    +0.000 NA
ATOM     12  H   UNL     1      47.999   5.750  14.967  0.00  0.00    +0.000 HD
ATOM     13  H   UNL     1      48.885   6.823  15.820  0.00  0.00    +0.000 HD
ENDBRANCH  10  11
ENDBRANCH   8  10
ENDBRANCH   3   4
ENDBRANCH   1   3
BRANCH   1  14
ATOM     14  O   UNL     1      43.637   4.455   9.807  0.00  0.00    +0.000 OA
BRANCH  14  15
ATOM     15  C   UNL     1      44.594   3.745   9.121  0.00  0.00    +0.000 A 
ATOM     16  C   UNL     1      44.742   2.357   9.171  0.00  0.00    +0.000 A 
ATOM     17  C   UNL     1      45.750   1.726   8.438  0.00  0.00    +0.000 A 
ATOM     18  C   UNL     1      46.611   2.471   7.629  0.00  0.00    +0.000 A 
ATOM     19  C   UNL     1      46.457   3.862   7.563  0.00  0.00    +0.000 A 
ATOM     20  C   UNL     1      45.445   4.492   8.302  0.00  0.00    +0.000 A 
BRANCH  18  21
ATOM     21  C   UNL     1      47.671   1.736   6.891  0.00  0.00    +0.000 C 
ATOM     22  N   UNL     1      48.548   2.469   6.143  0.00  0.00    +0.000 N 
ATOM     23  O   UNL     1      47.738   0.514   6.912  0.00  0.00    +0.000 OA
ATOM     24  H   UNL     1      48.381   3.434   5.899  0.00  0.00    +0.000 HD
ATOM     25  H   UNL     1      49.176   1.936   5.554  0.00  0.00    +0.000 HD
ENDBRANCH  18  21
ENDBRANCH  14  15
ENDBRANCH   1  14
TORSDOF 7
ENDMDL
MODEL 5
REMARK VINA RESULT:    -6.460      2.611      5.928
REMARK INTER + INTRA:          -9.918
REMARK INTER:                  -8.770
REMARK INTRA:                  -1.148
REMARK UNBOUND:                -1.004
REMARK  Name = 
REMARK  8 active torsions:
REMARK  status: ('A' for Active; 'I' for Inactive)
REMARK    1  A    between atoms: C_1  and  C_2
REMARK    2  A    between atoms: C_2  and  C_3
REMARK    3  A    between atoms: C_2  and  C_14
REMARK    4  A    between atoms: C_3  and  O_4
REMARK    5  A    between atoms: O_4  and  C_5
REMARK    6  A    between atoms: C_8  and  C_9
REMARK    7  A    between atoms: C_18  and  C_19
REMARK    8  A    between atoms: C_19  and  N_20
REMARK                            x       y       z     vdW  Elec       q    Type
REMARK                         _______ _______ _______ _____ _____    ______ ____
ROOT
ATOM      1  C   UNL     1      43.164   4.891  11.758  0.00  0.00    +0.000 C 
ENDROOT
BRANCH   1   3
ATOM      2  C   UNL     1      43.638   2.422  12.240  0.00  0.00    +0.000 C 
ATOM      3  C   UNL     1      43.257   3.463  11.185  0.00  0.00    +0.000 C 
BRANCH   3   4
ATOM      4  C   UNL     1      44.227   3.451  10.011  0.00  0.00    +0.000 A 
ATOM      5  C   UNL     1      44.693   4.651   9.459  0.00  0.00    +0.000 A 
ATOM      6  C   UNL     1      45.640   4.636   8.433  0.00  0.00    +0.000 A 
ATOM      7  C   UNL     1      46.143   3.426   7.952  0.00  0.00    +0.000 A 
ATOM      8  C   UNL     1      45.697   2.213   8.488  0.00  0.00    +0.000 A 
ATOM      9  C   UNL     1      44.726   2.241   9.500  0.00  0.00    +0.000 A 
BRANCH   8  10
ATOM     10  C   UNL     1      46.240   0.895   8.000  0.00  0.00    +0.000 C 
BRANCH  10  11
ATOM     11  N   UNL     1      47.447   1.081   7.199  0.00  0.00    +0.000 NA
ATOM     12  H   UNL     1      47.288   1.841   6.539  0.00  0.00    +0.000 HD
ATOM     13  H   UNL     1      47.614   0.244   6.643  0.00  0.00    +0.000 HD
ENDBRANCH  10  11
ENDBRANCH   8  10
ENDBRANCH   3   4
ENDBRANCH   1   3
BRANCH   1  14
ATOM     14  O   UNL     1      43.912   5.024  12.975  0.00  0.00    +0.000 OA
BRANCH  14  15
ATOM     15  C   UNL     1      45.080   5.736  12.844  0.00  0.00    +0.000 A 
ATOM     16  C   UNL     1      45.178   7.003  12.265  0.00  0.00    +0.000 A 
ATOM     17  C   UNL     1      46.414   7.647  12.174  0.00  0.00    +0.000 A 
ATOM     18  C   UNL     1      47.567   7.042  12.679  0.00  0.00    +0.000 A 
ATOM     19  C   UNL     1      47.474   5.777  13.275  0.00  0.00    +0.000 A 
ATOM     20  C   UNL     1      46.230   5.134  13.361  0.00  0.00    +0.000 A 
BRANCH  18  21
ATOM     21  C   UNL     1      48.852   7.776  12.533  0.00  0.00    +0.000 C 
ATOM     22  N   UNL     1      49.969   7.048  12.240  0.00  0.00    +0.000 N 
ATOM     23  O   UNL     1      48.923   8.986  12.709  0.00  0.00    +0.000 OA
ATOM     24  H   UNL     1      50.003   6.043  12.333  0.00  0.00    +0.000 HD
ATOM     25  H   UNL     1      50.845   7.555  12.272  0.00  0.00    +0.000 HD
ENDBRANCH  18  21
ENDBRANCH  14  15
ENDBRANCH   1  14
TORSDOF 7
ENDMDL
MODEL 6
REMARK VINA RESULT:    -6.147      2.362      6.975
REMARK INTER + INTRA:          -9.486
REMARK INTER:                  -8.883
REMARK INTRA:                  -0.603
REMARK UNBOUND:                -1.004
REMARK  Name = 
REMARK  8 active torsions:
REMARK  status: ('A' for Active; 'I' for Inactive)
REMARK    1  A    between atoms: C_1  and  C_2
REMARK    2  A    between atoms: C_2  and  C_3
REMARK    3  A    between atoms: C_2  and  C_14
REMARK    4  A    between atoms: C_3  and  O_4
REMARK    5  A    between atoms: O_4  and  C_5
REMARK    6  A    between atoms: C_8  and  C_9
REMARK    7  A    between atoms: C_18  and  C_19
REMARK    8  A    between atoms: C_19  and  N_20
REMARK                            x       y       z     vdW  Elec       q    Type
REMARK                         _______ _______ _______ _____ _____    ______ ____
ROOT
ATOM      1  C   UNL     1      45.682   5.536   9.651  0.00  0.00    +0.000 C 
ENDROOT
BRANCH   1   3
ATOM      2  C   UNL     1      43.744   3.983  10.268  0.00  0.00    +0.000 C 
ATOM      3  C   UNL     1      44.702   4.448   9.169  0.00  0.00    +0.000 C 
BRANCH   3   4
ATOM      4  C   UNL     1      45.488   3.284   8.582  0.00  0.00    +0.000 A 
ATOM      5  C   UNL     1      45.224   1.969   8.985  0.00  0.00    +0.000 A 
ATOM      6  C   UNL     1      45.894   0.898   8.390  0.00  0.00    +0.000 A 
ATOM      7  C   UNL     1      46.826   1.123   7.375  0.00  0.00    +0.000 A 
ATOM      8  C   UNL     1      47.106   2.426   6.950  0.00  0.00    +0.000 A 
ATOM      9  C   UNL     1      46.446   3.495   7.576  0.00  0.00    +0.000 A 
BRANCH   8  10
ATOM     10  C   UNL     1      48.093   2.694   5.843  0.00  0.00    +0.000 C 
BRANCH  10  11
ATOM     11  N   UNL     1      48.191   1.556   4.932  0.00  0.00    +0.000 NA
ATOM     12  H   UNL     1      47.581   0.813   5.270  0.00  0.00    +0.000 HD
ATOM     13  H   UNL     1      49.139   1.187   4.956  0.00  0.00    +0.000 HD
ENDBRANCH  10  11
ENDBRANCH   8  10
ENDBRANCH   3   4
ENDBRANCH   1   3
BRANCH   1  14
ATOM     14  O   UNL     1      45.178   6.233  10.799  0.00  0.00    +0.000 OA
BRANCH  14  15
ATOM     15  C   UNL     1      46.041   6.256  11.868  0.00  0.00    +0.000 A 
ATOM     16  C   UNL     1      47.096   7.160  12.020  0.00  0.00    +0.000 A 
ATOM     17  C   UNL     1      47.923   7.101  13.144  0.00  0.00    +0.000 A 
ATOM     18  C   UNL     1      47.695   6.151  14.143  0.00  0.00    +0.000 A 
ATOM     19  C   UNL     1      46.631   5.251  14.003  0.00  0.00    +0.000 A 
ATOM     20  C   UNL     1      45.804   5.312  12.871  0.00  0.00    +0.000 A 
BRANCH  18  21
ATOM     21  C   UNL     1      48.626   6.134  15.302  0.00  0.00    +0.000 C 
ATOM     22  N   UNL     1      48.143   5.678  16.495  0.00  0.00    +0.000 N 
ATOM     23  O   UNL     1      49.772   6.552  15.211  0.00  0.00    +0.000 OA
ATOM     24  H   UNL     1      47.157   5.563  16.675  0.00  0.00    +0.000 HD
ATOM     25  H   UNL     1      48.757   5.797  17.292  0.00  0.00    +0.000 HD
ENDBRANCH  18  21
ENDBRANCH  14  15
ENDBRANCH   1  14
TORSDOF 7
ENDMDL
MODEL 7
REMARK VINA RESULT:    -5.955      4.084      6.134
REMARK INTER + INTRA:          -9.222
REMARK INTER:                  -8.323
REMARK INTRA:                  -0.900
REMARK UNBOUND:                -1.004
REMARK  Name = 
REMARK  8 active torsions:
REMARK  status: ('A' for Active; 'I' for Inactive)
REMARK    1  A    between atoms: C_1  and  C_2
REMARK    2  A    between atoms: C_2  and  C_3
REMARK    3  A    between atoms: C_2  and  C_14
REMARK    4  A    between atoms: C_3  and  O_4
REMARK    5  A    between atoms: O_4  and  C_5
REMARK    6  A    between atoms: C_8  and  C_9
REMARK    7  A    between atoms: C_18  and  C_19
REMARK    8  A    between atoms: C_19  and  N_20
REMARK                            x       y       z     vdW  Elec       q    Type
REMARK                         _______ _______ _______ _____ _____    ______ ____
ROOT
ATOM      1  C   UNL     1      49.114   7.373  14.079  0.00  0.00    +0.000 C 
ENDROOT
BRANCH   1   3
ATOM      2  C   UNL     1      48.911   8.673  16.275  0.00  0.00    +0.000 C 
ATOM      3  C   UNL     1      48.616   7.364  15.539  0.00  0.00    +0.000 C 
BRANCH   3   4
ATOM      4  C   UNL     1      49.208   6.166  16.268  0.00  0.00    +0.000 A 
ATOM      5  C   UNL     1      50.565   6.141  16.614  0.00  0.00    +0.000 A 
ATOM      6  C   UNL     1      51.089   5.075  17.348  0.00  0.00    +0.000 A 
ATOM      7  C   UNL     1      50.263   4.026  17.758  0.00  0.00    +0.000 A 
ATOM      8  C   UNL     1      48.904   4.028  17.430  0.00  0.00    +0.000 A 
ATOM      9  C   UNL     1      48.396   5.092  16.668  0.00  0.00    +0.000 A 
BRANCH   8  10
ATOM     10  C   UNL     1      47.988   2.918  17.879  0.00  0.00    +0.000 C 
BRANCH  10  11
ATOM     11  N   UNL     1      46.614   3.155  17.447  0.00  0.00    +0.000 NA
ATOM     12  H   UNL     1      45.988   2.599  18.027  0.00  0.00    +0.000 HD
ATOM     13  H   UNL     1      46.499   2.820  16.492  0.00  0.00    +0.000 HD
ENDBRANCH  10  11
ENDBRANCH   8  10
ENDBRANCH   3   4
ENDBRANCH   1   3
BRANCH   1  14
ATOM     14  O   UNL     1      48.790   6.152  13.401  0.00  0.00    +0.000 OA
BRANCH  14  15
ATOM     15  C   UNL     1      47.513   6.109  12.895  0.00  0.00    +0.000 A 
ATOM     16  C   UNL     1      47.044   6.912  11.852  0.00  0.00    +0.000 A 
ATOM     17  C   UNL     1      45.724   6.797  11.409  0.00  0.00    +0.000 A 
ATOM     18  C   UNL     1      44.861   5.863  11.987  0.00  0.00    +0.000 A 
ATOM     19  C   UNL     1      45.330   5.045  13.023  0.00  0.00    +0.000 A 
ATOM     20  C   UNL     1      46.655   5.166  13.467  0.00  0.00    +0.000 A 
BRANCH  18  21
ATOM     21  C   UNL     1      43.465   5.808  11.478  0.00  0.00    +0.000 C 
ATOM     22  N   UNL     1      42.860   6.989  11.156  0.00  0.00    +0.000 N 
ATOM     23  O   UNL     1      42.857   4.749  11.388  0.00  0.00    +0.000 OA
ATOM     24  H   UNL     1      43.226   7.884  11.445  0.00  0.00    +0.000 HD
ATOM     25  H   UNL     1      41.874   6.931  10.934  0.00  0.00    +0.000 HD
ENDBRANCH  18  21
ENDBRANCH  14  15
ENDBRANCH   1  14
TORSDOF 7
ENDMDL
MODEL 8
REMARK VINA RESULT:    -5.935      3.248      7.009
REMARK INTER + INTRA:          -9.194
REMARK INTER:                  -8.304
REMARK INTRA:                  -0.890
REMARK UNBOUND:                -1.004
REMARK  Name = 
REMARK  8 active torsions:
REMARK  status: ('A' for Active; 'I' for Inactive)
REMARK    1  A    between atoms: C_1  and  C_2
REMARK    2  A    between atoms: C_2  and  C_3
REMARK    3  A    between atoms: C_2  and  C_14
REMARK    4  A    between atoms: C_3  and  O_4
REMARK    5  A    between atoms: O_4  and  C_5
REMARK    6  A    between atoms: C_8  and  C_9
REMARK    7  A    between atoms: C_18  and  C_19
REMARK    8  A    between atoms: C_19  and  N_20
REMARK                            x       y       z     vdW  Elec       q    Type
REMARK                         _______ _______ _______ _____ _____    ______ ____
ROOT
ATOM      1  C   UNL     1      47.455   6.895  12.020  0.00  0.00    +0.000 C 
ENDROOT
BRANCH   1   3
ATOM      2  C   UNL     1      45.547   8.488  12.633  0.00  0.00    +0.000 C 
ATOM      3  C   UNL     1      46.061   7.438  11.646  0.00  0.00    +0.000 C 
BRANCH   3   4
ATOM      4  C   UNL     1      45.087   6.275  11.507  0.00  0.00    +0.000 A 
ATOM      5  C   UNL     1      43.975   6.172  12.353  0.00  0.00    +0.000 A 
ATOM      6  C   UNL     1      43.043   5.147  12.174  0.00  0.00    +0.000 A 
ATOM      7  C   UNL     1      43.202   4.220  11.142  0.00  0.00    +0.000 A 
ATOM      8  C   UNL     1      44.301   4.302  10.281  0.00  0.00    +0.000 A 
ATOM      9  C   UNL     1      45.244   5.321  10.488  0.00  0.00    +0.000 A 
BRANCH   8  10
ATOM     10  C   UNL     1      44.482   3.326   9.147  0.00  0.00    +0.000 C 
BRANCH  10  11
ATOM     11  N   UNL     1      44.712   1.972   9.643  0.00  0.00    +0.000 NA
ATOM     12  H   UNL     1      43.834   1.602  10.004  0.00  0.00    +0.000 HD
ATOM     13  H   UNL     1      45.357   2.007  10.430  0.00  0.00    +0.000 HD
ENDBRANCH  10  11
ENDBRANCH   8  10
ENDBRANCH   3   4
ENDBRANCH   1   3
BRANCH   1  14
ATOM     14  O   UNL     1      47.839   7.289  13.345  0.00  0.00    +0.000 OA
BRANCH  14  15
ATOM     15  C   UNL     1      47.773   6.279  14.275  0.00  0.00    +0.000 A 
ATOM     16  C   UNL     1      47.056   5.091  14.109  0.00  0.00    +0.000 A 
ATOM     17  C   UNL     1      47.047   4.123  15.116  0.00  0.00    +0.000 A 
ATOM     18  C   UNL     1      47.772   4.319  16.294  0.00  0.00    +0.000 A 
ATOM     19  C   UNL     1      48.506   5.501  16.460  0.00  0.00    +0.000 A 
ATOM     20  C   UNL     1      48.509   6.472  15.447  0.00  0.00    +0.000 A 
BRANCH  18  21
ATOM     21  C   UNL     1      47.704   3.255  17.330  0.00  0.00    +0.000 C 
ATOM     22  N   UNL     1      48.869   2.888  17.940  0.00  0.00    +0.000 N 
ATOM     23  O   UNL     1      46.652   2.691  17.602  0.00  0.00    +0.000 OA
ATOM     24  H   UNL     1      49.776   3.141  17.578  0.00  0.00    +0.000 HD
ATOM     25  H   UNL     1      48.812   2.078  18.546  0.00  0.00    +0.000 HD
ENDBRANCH  18  21
ENDBRANCH  14  15
ENDBRANCH   1  14
TORSDOF 7
ENDMDL
MODEL 9
REMARK VINA RESULT:    -5.911      3.688      6.325
REMARK INTER + INTRA:          -9.161
REMARK INTER:                  -8.576
REMARK INTRA:                  -0.586
REMARK UNBOUND:                -1.004
REMARK  Name = 
REMARK  8 active torsions:
REMARK  status: ('A' for Active; 'I' for Inactive)
REMARK    1  A    between atoms: C_1  and  C_2
REMARK    2  A    between atoms: C_2  and  C_3
REMARK    3  A    between atoms: C_2  and  C_14
REMARK    4  A    between atoms: C_3  and  O_4
REMARK    5  A    between atoms: O_4  and  C_5
REMARK    6  A    between atoms: C_8  and  C_9
REMARK    7  A    between atoms: C_18  and  C_19
REMARK    8  A    between atoms: C_19  and  N_20
REMARK                            x       y       z     vdW  Elec       q    Type
REMARK                         _______ _______ _______ _____ _____    ______ ____
ROOT
ATOM      1  C   UNL     1      47.643   3.451  15.785  0.00  0.00    +0.000 C 
ENDROOT
BRANCH   1   3
ATOM      2  C   UNL     1      47.378   4.902  17.876  0.00  0.00    +0.000 C 
ATOM      3  C   UNL     1      48.021   3.655  17.265  0.00  0.00    +0.000 C 
BRANCH   3   4
ATOM      4  C   UNL     1      49.538   3.684  17.400  0.00  0.00    +0.000 A 
ATOM      5  C   UNL     1      50.213   4.894  17.605  0.00  0.00    +0.000 A 
ATOM      6  C   UNL     1      51.595   4.909  17.804  0.00  0.00    +0.000 A 
ATOM      7  C   UNL     1      52.320   3.716  17.813  0.00  0.00    +0.000 A 
ATOM      8  C   UNL     1      51.671   2.493  17.615  0.00  0.00    +0.000 A 
ATOM      9  C   UNL     1      50.286   2.495  17.389  0.00  0.00    +0.000 A 
BRANCH   8  10
ATOM     10  C   UNL     1      52.429   1.190  17.641  0.00  0.00    +0.000 C 
BRANCH  10  11
ATOM     11  N   UNL     1      51.605   0.107  18.170  0.00  0.00    +0.000 NA
ATOM     12  H   UNL     1      52.213  -0.579  18.614  0.00  0.00    +0.000 HD
ATOM     13  H   UNL     1      51.142  -0.370  17.399  0.00  0.00    +0.000 HD
ENDBRANCH  10  11
ENDBRANCH   8  10
ENDBRANCH   3   4
ENDBRANCH   1   3
BRANCH   1  14
ATOM     14  O   UNL     1      47.661   4.687  15.057  0.00  0.00    +0.000 OA
BRANCH  14  15
ATOM     15  C   UNL     1      46.882   4.686  13.925  0.00  0.00    +0.000 A 
ATOM     16  C   UNL     1      46.209   3.569  13.423  0.00  0.00    +0.000 A 
ATOM     17  C   UNL     1      45.442   3.667  12.260  0.00  0.00    +0.000 A 
ATOM     18  C   UNL     1      45.319   4.889  11.594  0.00  0.00    +0.000 A 
ATOM     19  C   UNL     1      45.978   6.016  12.100  0.00  0.00    +0.000 A 
ATOM     20  C   UNL     1      46.750   5.912  13.267  0.00  0.00    +0.000 A 
BRANCH  18  21
ATOM     21  C   UNL     1      44.501   4.917  10.352  0.00  0.00    +0.000 C 
ATOM     22  N   UNL     1      45.162   4.974   9.159  0.00  0.00    +0.000 N 
ATOM     23  O   UNL     1      43.277   4.933  10.391  0.00  0.00    +0.000 OA
ATOM     24  H   UNL     1      46.140   5.212   9.089  0.00  0.00    +0.000 HD
ATOM     25  H   UNL     1      44.581   5.120   8.342  0.00  0.00    +0.000 HD
ENDBRANCH  18  21
ENDBRANCH  14  15
ENDBRANCH   1  14
TORSDOF 7
ENDMDL
