MODEL 1
REMARK VINA RESULT:    -8.276      0.000      0.000
REMARK INTER + INTRA:         -10.894
REMARK INTER:                 -10.696
REMARK INTRA:                  -0.198
REMARK UNBOUND:                -0.198
REMARK  Name = 
REMARK  5 active torsions:
REMARK  status: ('A' for Active; 'I' for Inactive)
REMARK    1  A    between atoms: C_2  and  C_4
REMARK    2  A    between atoms: C_8  and  O_9
REMARK    3  A    between atoms: O_9  and  C_10
REMARK    4  A    between atoms: C_10  and  C_11
REMARK    5  A    between atoms: C_16  and  C_17
REMARK                            x       y       z     vdW  Elec       q    Type
REMARK                         _______ _______ _______ _____ _____    ______ ____
ROOT
ATOM      1  C   UNL     1      44.700   4.475  11.843  0.00  0.00    +0.000 A 
ATOM      2  C   UNL     1      45.419   3.562  12.620  0.00  0.00    +0.000 A 
ATOM      3  C   UNL     1      46.537   3.991  13.315  0.00  0.00    +0.000 A 
ATOM      4  F   UNL     1      47.232   3.112  14.051  0.00  0.00    +0.000 F 
ATOM      5  C   UNL     1      46.981   5.309  13.224  0.00  0.00    +0.000 A 
ATOM      6  C   UNL     1      46.300   6.246  12.427  0.00  0.00    +0.000 A 
ATOM      7  C   UNL     1      45.130   5.814  11.779  0.00  0.00    +0.000 A 
ENDROOT
BRANCH   6   8
ATOM      8  C   UNL     1      46.944   7.608  12.165  0.00  0.00    +0.000 C 
ATOM      9  C   UNL     1      48.413   7.550  11.709  0.00  0.00    +0.000 C 
ATOM     10  C   UNL     1      49.375   7.376  12.881  0.00  0.00    +0.000 C 
ATOM     11  N   UNL     1      49.221   8.439  13.875  0.00  0.00    +0.000 NA
ATOM     12  C   UNL     1      47.854   8.489  14.391  0.00  0.00    +0.000 C 
ATOM     13  C   UNL     1      46.819   8.667  13.280  0.00  0.00    +0.000 C 
ATOM     14  H   UNL     1      49.452   9.336  13.446  0.00  0.00    +0.000 HD
ENDBRANCH   6   8
BRANCH   1  15
ATOM     15  C   UNL     1      43.488   4.026  11.069  0.00  0.00    +0.000 C 
BRANCH  15  16
ATOM     16  O   UNL     1      43.849   2.879  10.308  0.00  0.00    +0.000 OA
BRANCH  16  21
ATOM     17  C   UNL     1      46.324   1.961   7.821  0.00  0.00    +0.000 A 
ATOM     18  C   UNL     1      46.646   3.193   7.241  0.00  0.00    +0.000 A 
ATOM     19  C   UNL     1      46.011   4.355   7.675  0.00  0.00    +0.000 A 
ATOM     20  C   UNL     1      45.060   4.295   8.698  0.00  0.00    +0.000 A 
ATOM     21  C   UNL     1      44.748   3.075   9.295  0.00  0.00    +0.000 A 
ATOM     22  C   UNL     1      45.388   1.910   8.862  0.00  0.00    +0.000 A 
BRANCH  17  24
ATOM     23  N   UNL     1      47.755   0.854   6.189  0.00  0.00    +0.000 N 
ATOM     24  C   UNL     1      47.002   0.737   7.323  0.00  0.00    +0.000 C 
ATOM     25  O   UNL     1      46.930  -0.328   7.927  0.00  0.00    +0.000 OA
ATOM     26  H   UNL     1      48.300   0.042   5.925  0.00  0.00    +0.000 HD
ATOM     27  H   UNL     1      48.026   1.748   5.802  0.00  0.00    +0.000 HD
ENDBRANCH  17  24
ENDBRANCH  16  21
ENDBRANCH  15  16
ENDBRANCH   1  15
TORSDOF 5
ENDMDL
MODEL 2
REMARK VINA RESULT:    -7.470      4.405      7.795
REMARK INTER + INTRA:          -9.851
REMARK INTER:                  -9.331
REMARK INTRA:                  -0.520
REMARK UNBOUND:                -0.198
REMARK  Name = 
REMARK  5 active torsions:
REMARK  status: ('A' for Active; 'I' for Inactive)
REMARK    1  A    between atoms: C_2  and  C_4
REMARK    2  A    between atoms: C_8  and  O_9
REMARK    3  A    between atoms: O_9  and  C_10
REMARK    4  A    between atoms: C_10  and  C_11
REMARK    5  A    between atoms: C_16  and  C_17
REMARK                            x       y       z     vdW  Elec       q    Type
REMARK                         _______ _______ _______ _____ _____    ______ ____
ROOT
ATOM      1  C   UNL     1      46.882   4.745  13.533  0.00  0.00    +0.000 A 
ATOM      2  C   UNL     1      47.668   5.879  13.314  0.00  0.00    +0.000 A 
ATOM      3  C   UNL     1      47.330   6.755  12.296  0.00  0.00    +0.000 A 
ATOM      4  F   UNL     1      48.091   7.837  12.078  0.00  0.00    +0.000 F 
ATOM      5  C   UNL     1      46.241   6.507  11.464  0.00  0.00    +0.000 A 
ATOM      6  C   UNL     1      45.446   5.360  11.637  0.00  0.00    +0.000 A 
ATOM      7  C   UNL     1      45.761   4.513  12.714  0.00  0.00    +0.000 A 
ENDROOT
BRANCH   6   8
ATOM      8  C   UNL     1      44.413   5.001  10.569  0.00  0.00    +0.000 C 
ATOM      9  C   UNL     1      43.168   4.264  11.096  0.00  0.00    +0.000 C 
ATOM     10  C   UNL     1      43.418   2.771  11.286  0.00  0.00    +0.000 C 
ATOM     11  N   UNL     1      43.867   2.132  10.048  0.00  0.00    +0.000 NA
ATOM     12  C   UNL     1      45.090   2.753   9.543  0.00  0.00    +0.000 C 
ATOM     13  C   UNL     1      44.929   4.258   9.319  0.00  0.00    +0.000 C 
ATOM     14  H   UNL     1      43.134   2.212   9.343  0.00  0.00    +0.000 HD
ENDBRANCH   6   8
BRANCH   1  15
ATOM     15  C   UNL     1      47.240   3.771  14.626  0.00  0.00    +0.000 C 
BRANCH  15  16
ATOM     16  O   UNL     1      46.722   4.273  15.854  0.00  0.00    +0.000 OA
BRANCH  16  21
ATOM     17  C   UNL     1      49.634   3.312  17.790  0.00  0.00    +0.000 A 
ATOM     18  C   UNL     1      49.465   4.034  18.976  0.00  0.00    +0.000 A 
ATOM     19  C   UNL     1      48.365   4.877  19.128  0.00  0.00    +0.000 A 
ATOM     20  C   UNL     1      47.423   4.993  18.103  0.00  0.00    +0.000 A 
ATOM     21  C   UNL     1      47.573   4.260  16.926  0.00  0.00    +0.000 A 
ATOM     22  C   UNL     1      48.675   3.413  16.775  0.00  0.00    +0.000 A 
BRANCH  17  24
ATOM     23  N   UNL     1      51.972   2.834  18.279  0.00  0.00    +0.000 N 
ATOM     24  C   UNL     1      50.827   2.438  17.649  0.00  0.00    +0.000 C 
ATOM     25  O   UNL     1      50.779   1.380  17.031  0.00  0.00    +0.000 OA
ATOM     26  H   UNL     1      52.742   2.176  18.268  0.00  0.00    +0.000 HD
ATOM     27  H   UNL     1      51.988   3.563  18.980  0.00  0.00    +0.000 HD
ENDBRANCH  17  24
ENDBRANCH  16  21
ENDBRANCH  15  16
ENDBRANCH   1  15
TORSDOF 5
ENDMDL
MODEL 3
REMARK VINA RESULT:    -7.287      4.291      7.699
REMARK INTER + INTRA:          -9.615
REMARK INTER:                  -8.679
REMARK INTRA:                  -0.936
REMARK UNBOUND:                -0.198
REMARK  Name = 
REMARK  5 active torsions:
REMARK  status: ('A' for Active; 'I' for Inactive)
REMARK    1  A    between atoms: C_2  and  C_4
REMARK    2  A    between atoms: C_8  and  O_9
REMARK    3  A    between atoms: O_9  and  C_10
REMARK    4  A    between atoms: C_10  and  C_11
REMARK    5  A    between atoms: C_16  and  C_17
REMARK                            x       y       z     vdW  Elec       q    Type
REMARK                         _______ _______ _______ _____ _____    ______ ____
ROOT
ATOM      1  C   UNL     1      47.285   7.810  12.920  0.00  0.00    +0.000 A 
ATOM      2  C   UNL     1      46.793   9.110  12.786  0.00  0.00    +0.000 A 
ATOM      3  C   UNL     1      45.531   9.309  12.250  0.00  0.00    +0.000 A 
ATOM      4  F   UNL     1      45.063  10.558  12.112  0.00  0.00    +0.000 F 
ATOM      5  C   UNL     1      44.759   8.237  11.807  0.00  0.00    +0.000 A 
ATOM      6  C   UNL     1      45.237   6.918  11.898  0.00  0.00    +0.000 A 
ATOM      7  C   UNL     1      46.490   6.725  12.504  0.00  0.00    +0.000 A 
ENDROOT
BRANCH   6   8
ATOM      8  C   UNL     1      44.470   5.798  11.193  0.00  0.00    +0.000 C 
ATOM      9  C   UNL     1      43.035   5.576  11.705  0.00  0.00    +0.000 C 
ATOM     10  C   UNL     1      43.000   4.732  12.976  0.00  0.00    +0.000 C 
ATOM     11  N   UNL     1      43.649   3.435  12.786  0.00  0.00    +0.000 NA
ATOM     12  C   UNL     1      45.041   3.594  12.366  0.00  0.00    +0.000 C 
ATOM     13  C   UNL     1      45.171   4.427  11.090  0.00  0.00    +0.000 C 
ATOM     14  H   UNL     1      43.142   2.905  12.076  0.00  0.00    +0.000 HD
ENDBRANCH   6   8
BRANCH   1  15
ATOM     15  C   UNL     1      48.660   7.572  13.488  0.00  0.00    +0.000 C 
BRANCH  15  16
ATOM     16  O   UNL     1      48.674   6.282  14.089  0.00  0.00    +0.000 OA
BRANCH  16  21
ATOM     17  C   UNL     1      47.993   4.842  17.347  0.00  0.00    +0.000 A 
ATOM     18  C   UNL     1      48.290   5.897  18.217  0.00  0.00    +0.000 A 
ATOM     19  C   UNL     1      48.746   7.112  17.708  0.00  0.00    +0.000 A 
ATOM     20  C   UNL     1      48.897   7.283  16.329  0.00  0.00    +0.000 A 
ATOM     21  C   UNL     1      48.582   6.243  15.455  0.00  0.00    +0.000 A 
ATOM     22  C   UNL     1      48.122   5.026  15.965  0.00  0.00    +0.000 A 
BRANCH  17  24
ATOM     23  N   UNL     1      48.175   3.092  19.033  0.00  0.00    +0.000 N 
ATOM     24  C   UNL     1      47.529   3.552  17.920  0.00  0.00    +0.000 C 
ATOM     25  O   UNL     1      46.575   2.945  17.446  0.00  0.00    +0.000 OA
ATOM     26  H   UNL     1      47.778   2.273  19.477  0.00  0.00    +0.000 HD
ATOM     27  H   UNL     1      48.798   3.668  19.582  0.00  0.00    +0.000 HD
ENDBRANCH  17  24
ENDBRANCH  16  21
ENDBRANCH  15  16
ENDBRANCH   1  15
TORSDOF 5
ENDMDL
MODEL 4
REMARK VINA RESULT:    -7.264      4.504      8.492
REMARK INTER + INTRA:          -9.585
REMARK INTER:                  -9.069
REMARK INTRA:                  -0.517
REMARK UNBOUND:                -0.198
REMARK  Name = 
REMARK  5 active torsions:
REMARK  status: ('A' for Active; 'I' for Inactive)
REMARK    1  A    between atoms: C_2  and  C_4
REMARK    2  A    between atoms: C_8  and  O_9
REMARK    3  A    between atoms: O_9  and  C_10
REMARK    4  A    between atoms: C_10  and  C_11
REMARK    5  A    between atoms: C_16  and  C_17
REMARK                            x       y       z     vdW  Elec       q    Type
REMARK                         _______ _______ _______ _____ _____    ______ ____
ROOT
ATOM      1  C   UNL     1      46.757   5.290  13.703  0.00  0.00    +0.000 A 
ATOM      2  C   UNL     1      47.687   6.156  13.121  0.00  0.00    +0.000 A 
ATOM      3  C   UNL     1      47.406   6.732  11.893  0.00  0.00    +0.000 A 
ATOM      4  F   UNL     1      48.304   7.553  11.331  0.00  0.00    +0.000 F 
ATOM      5  C   UNL     1      46.229   6.434  11.210  0.00  0.00    +0.000 A 
ATOM      6  C   UNL     1      45.285   5.543  11.752  0.00  0.00    +0.000 A 
ATOM      7  C   UNL     1      45.552   5.017  13.027  0.00  0.00    +0.000 A 
ENDROOT
BRANCH   6   8
ATOM      8  C   UNL     1      44.128   5.061  10.876  0.00  0.00    +0.000 C 
ATOM      9  C   UNL     1      43.030   4.286  11.627  0.00  0.00    +0.000 C 
ATOM     10  C   UNL     1      43.404   2.824  11.852  0.00  0.00    +0.000 C 
ATOM     11  N   UNL     1      43.702   2.139  10.593  0.00  0.00    +0.000 NA
ATOM     12  C   UNL     1      44.790   2.798   9.874  0.00  0.00    +0.000 C 
ATOM     13  C   UNL     1      44.497   4.275   9.600  0.00  0.00    +0.000 C 
ATOM     14  H   UNL     1      42.866   2.134  10.007  0.00  0.00    +0.000 HD
ENDBRANCH   6   8
BRANCH   1  15
ATOM     15  C   UNL     1      47.048   4.643  15.032  0.00  0.00    +0.000 C 
BRANCH  15  16
ATOM     16  O   UNL     1      48.377   4.984  15.409  0.00  0.00    +0.000 OA
BRANCH  16  21
ATOM     17  C   UNL     1      48.369   5.827  18.936  0.00  0.00    +0.000 A 
ATOM     18  C   UNL     1      48.707   7.184  18.928  0.00  0.00    +0.000 A 
ATOM     19  C   UNL     1      48.962   7.831  17.720  0.00  0.00    +0.000 A 
ATOM     20  C   UNL     1      48.869   7.130  16.514  0.00  0.00    +0.000 A 
ATOM     21  C   UNL     1      48.513   5.782  16.513  0.00  0.00    +0.000 A 
ATOM     22  C   UNL     1      48.255   5.134  17.725  0.00  0.00    +0.000 A 
BRANCH  17  24
ATOM     23  N   UNL     1      48.571   3.876  20.382  0.00  0.00    +0.000 N 
ATOM     24  C   UNL     1      48.124   5.159  20.241  0.00  0.00    +0.000 C 
ATOM     25  O   UNL     1      47.583   5.747  21.172  0.00  0.00    +0.000 OA
ATOM     26  H   UNL     1      48.497   3.474  21.309  0.00  0.00    +0.000 HD
ATOM     27  H   UNL     1      49.217   3.446  19.734  0.00  0.00    +0.000 HD
ENDBRANCH  17  24
ENDBRANCH  16  21
ENDBRANCH  15  16
ENDBRANCH   1  15
TORSDOF 5
ENDMDL
MODEL 5
REMARK VINA RESULT:    -7.078      4.470      8.088
REMARK INTER + INTRA:          -9.345
REMARK INTER:                  -8.753
REMARK INTRA:                  -0.593
REMARK UNBOUND:                -0.198
REMARK  Name = 
REMARK  5 active torsions:
REMARK  status: ('A' for Active; 'I' for Inactive)
REMARK    1  A    between atoms: C_2  and  C_4
REMARK    2  A    between atoms: C_8  and  O_9
REMARK    3  A    between atoms: O_9  and  C_10
REMARK    4  A    between atoms: C_10  and  C_11
REMARK    5  A    between atoms: C_16  and  C_17
REMARK                            x       y       z     vdW  Elec       q    Type
REMARK                         _______ _______ _______ _____ _____    ______ ____
ROOT
ATOM      1  C   UNL     1      46.508   5.287  13.747  0.00  0.00    +0.000 A 
ATOM      2  C   UNL     1      47.537   6.073  13.220  0.00  0.00    +0.000 A 
ATOM      3  C   UNL     1      47.417   6.583  11.938  0.00  0.00    +0.000 A 
ATOM      4  F   UNL     1      48.409   7.327  11.429  0.00  0.00    +0.000 F 
ATOM      5  C   UNL     1      46.304   6.295  11.150  0.00  0.00    +0.000 A 
ATOM      6  C   UNL     1      45.265   5.483  11.637  0.00  0.00    +0.000 A 
ATOM      7  C   UNL     1      45.369   5.026  12.962  0.00  0.00    +0.000 A 
ENDROOT
BRANCH   6   8
ATOM      8  C   UNL     1      44.183   4.999  10.670  0.00  0.00    +0.000 C 
ATOM      9  C   UNL     1      43.043   4.200  11.327  0.00  0.00    +0.000 C 
ATOM     10  C   UNL     1      43.420   2.739  11.558  0.00  0.00    +0.000 C 
ATOM     11  N   UNL     1      43.820   2.077  10.316  0.00  0.00    +0.000 NA
ATOM     12  C   UNL     1      44.950   2.760   9.689  0.00  0.00    +0.000 C 
ATOM     13  C   UNL     1      44.657   4.237   9.415  0.00  0.00    +0.000 C 
ATOM     14  H   UNL     1      43.030   2.069   9.670  0.00  0.00    +0.000 HD
ENDBRANCH   6   8
BRANCH   1  15
ATOM     15  C   UNL     1      46.625   4.712  15.134  0.00  0.00    +0.000 C 
BRANCH  15  16
ATOM     16  O   UNL     1      47.330   3.479  15.045  0.00  0.00    +0.000 OA
BRANCH  16  21
ATOM     17  C   UNL     1      48.862   3.832  18.313  0.00  0.00    +0.000 A 
ATOM     18  C   UNL     1      49.839   2.831  18.303  0.00  0.00    +0.000 A 
ATOM     19  C   UNL     1      49.980   2.006  17.188  0.00  0.00    +0.000 A 
ATOM     20  C   UNL     1      49.154   2.183  16.075  0.00  0.00    +0.000 A 
ATOM     21  C   UNL     1      48.192   3.192  16.069  0.00  0.00    +0.000 A 
ATOM     22  C   UNL     1      48.053   4.021  17.186  0.00  0.00    +0.000 A 
BRANCH  17  24
ATOM     23  N   UNL     1      48.596   4.046  20.725  0.00  0.00    +0.000 N 
ATOM     24  C   UNL     1      48.721   4.682  19.523  0.00  0.00    +0.000 C 
ATOM     25  O   UNL     1      48.762   5.906  19.456  0.00  0.00    +0.000 OA
ATOM     26  H   UNL     1      48.614   4.634  21.550  0.00  0.00    +0.000 HD
ATOM     27  H   UNL     1      48.792   3.061  20.847  0.00  0.00    +0.000 HD
ENDBRANCH  17  24
ENDBRANCH  16  21
ENDBRANCH  15  16
ENDBRANCH   1  15
TORSDOF 5
ENDMDL
MODEL 6
REMARK VINA RESULT:    -6.991      4.315      6.594
REMARK INTER + INTRA:          -9.232
REMARK INTER:                  -8.318
REMARK INTRA:                  -0.915
REMARK UNBOUND:                -0.198
REMARK  Name = 
REMARK  5 active torsions:
REMARK  status: ('A' for Active; 'I' for Inactive)
REMARK    1  A    between atoms: C_2  and  C_4
REMARK    2  A    between atoms: C_8  and  O_9
REMARK    3  A    between atoms: O_9  and  C_10
REMARK    4  A    between atoms: C_10  and  C_11
REMARK    5  A    between atoms: C_16  and  C_17
REMARK                            x       y       z     vdW  Elec       q    Type
REMARK                         _______ _______ _______ _____ _____    ______ ____
ROOT
ATOM      1  C   UNL     1      48.972   7.319  15.772  0.00  0.00    +0.000 A 
ATOM      2  C   UNL     1      48.663   8.389  16.615  0.00  0.00    +0.000 A 
ATOM      3  C   UNL     1      48.319   8.140  17.934  0.00  0.00    +0.000 A 
ATOM      4  F   UNL     1      48.011   9.166  18.740  0.00  0.00    +0.000 F 
ATOM      5  C   UNL     1      48.242   6.838  18.424  0.00  0.00    +0.000 A 
ATOM      6  C   UNL     1      48.518   5.737  17.595  0.00  0.00    +0.000 A 
ATOM      7  C   UNL     1      48.928   6.006  16.278  0.00  0.00    +0.000 A 
ENDROOT
BRANCH   6   8
ATOM      8  C   UNL     1      48.195   4.328  18.096  0.00  0.00    +0.000 C 
ATOM      9  C   UNL     1      49.420   3.502  18.531  0.00  0.00    +0.000 C 
ATOM     10  C   UNL     1      50.137   2.863  17.345  0.00  0.00    +0.000 C 
ATOM     11  N   UNL     1      49.239   2.016  16.559  0.00  0.00    +0.000 NA
ATOM     12  C   UNL     1      48.093   2.774  16.062  0.00  0.00    +0.000 C 
ATOM     13  C   UNL     1      47.309   3.449  17.189  0.00  0.00    +0.000 C 
ATOM     14  H   UNL     1      48.907   1.247  17.141  0.00  0.00    +0.000 HD
ENDBRANCH   6   8
BRANCH   1  15
ATOM     15  C   UNL     1      49.335   7.567  14.330  0.00  0.00    +0.000 C 
BRANCH  15  16
ATOM     16  O   UNL     1      48.826   6.489  13.553  0.00  0.00    +0.000 OA
BRANCH  16  21
ATOM     17  C   UNL     1      45.484   5.230  12.925  0.00  0.00    +0.000 A 
ATOM     18  C   UNL     1      44.784   6.386  12.562  0.00  0.00    +0.000 A 
ATOM     19  C   UNL     1      45.436   7.618  12.544  0.00  0.00    +0.000 A 
ATOM     20  C   UNL     1      46.791   7.700  12.876  0.00  0.00    +0.000 A 
ATOM     21  C   UNL     1      47.500   6.550  13.219  0.00  0.00    +0.000 A 
ATOM     22  C   UNL     1      46.847   5.314  13.234  0.00  0.00    +0.000 A 
BRANCH  17  24
ATOM     23  N   UNL     1      45.441   2.822  12.554  0.00  0.00    +0.000 N 
ATOM     24  C   UNL     1      44.757   3.935  12.956  0.00  0.00    +0.000 C 
ATOM     25  O   UNL     1      43.605   3.854  13.367  0.00  0.00    +0.000 OA
ATOM     26  H   UNL     1      44.973   1.934  12.686  0.00  0.00    +0.000 HD
ATOM     27  H   UNL     1      46.445   2.810  12.435  0.00  0.00    +0.000 HD
ENDBRANCH  17  24
ENDBRANCH  16  21
ENDBRANCH  15  16
ENDBRANCH   1  15
TORSDOF 5
ENDMDL
MODEL 7
REMARK VINA RESULT:    -6.938      4.124      5.747
REMARK INTER + INTRA:          -9.164
REMARK INTER:                  -8.390
REMARK INTRA:                  -0.774
REMARK UNBOUND:                -0.198
REMARK  Name = 
REMARK  5 active torsions:
REMARK  status: ('A' for Active; 'I' for Inactive)
REMARK    1  A    between atoms: C_2  and  C_4
REMARK    2  A    between atoms: C_8  and  O_9
REMARK    3  A    between atoms: O_9  and  C_10
REMARK    4  A    between atoms: C_10  and  C_11
REMARK    5  A    between atoms: C_16  and  C_17
REMARK                            x       y       z     vdW  Elec       q    Type
REMARK                         _______ _______ _______ _____ _____    ______ ____
ROOT
ATOM      1  C   UNL     1      48.330   3.753  16.557  0.00  0.00    +0.000 A 
ATOM      2  C   UNL     1      48.941   2.503  16.682  0.00  0.00    +0.000 A 
ATOM      3  C   UNL     1      50.168   2.404  17.316  0.00  0.00    +0.000 A 
ATOM      4  F   UNL     1      50.759   1.206  17.426  0.00  0.00    +0.000 F 
ATOM      5  C   UNL     1      50.822   3.535  17.799  0.00  0.00    +0.000 A 
ATOM      6  C   UNL     1      50.251   4.813  17.663  0.00  0.00    +0.000 A 
ATOM      7  C   UNL     1      48.976   4.891  17.076  0.00  0.00    +0.000 A 
ENDROOT
BRANCH   6   8
ATOM      8  C   UNL     1      51.096   6.045  17.989  0.00  0.00    +0.000 C 
ATOM      9  C   UNL     1      50.791   7.283  17.126  0.00  0.00    +0.000 C 
ATOM     10  C   UNL     1      51.486   7.226  15.768  0.00  0.00    +0.000 C 
ATOM     11  N   UNL     1      52.936   7.079  15.905  0.00  0.00    +0.000 NA
ATOM     12  C   UNL     1      53.279   5.875  16.659  0.00  0.00    +0.000 C 
ATOM     13  C   UNL     1      52.626   5.850  18.042  0.00  0.00    +0.000 C 
ATOM     14  H   UNL     1      53.313   7.897  16.385  0.00  0.00    +0.000 HD
ENDBRANCH   6   8
BRANCH   1  15
ATOM     15  C   UNL     1      47.001   3.885  15.859  0.00  0.00    +0.000 C 
BRANCH  15  16
ATOM     16  O   UNL     1      47.156   3.421  14.522  0.00  0.00    +0.000 OA
BRANCH  16  21
ATOM     17  C   UNL     1      45.202   4.538  11.678  0.00  0.00    +0.000 A 
ATOM     18  C   UNL     1      45.738   5.803  11.416  0.00  0.00    +0.000 A 
ATOM     19  C   UNL     1      46.762   6.306  12.218  0.00  0.00    +0.000 A 
ATOM     20  C   UNL     1      47.264   5.543  13.276  0.00  0.00    +0.000 A 
ATOM     21  C   UNL     1      46.750   4.272  13.530  0.00  0.00    +0.000 A 
ATOM     22  C   UNL     1      45.724   3.767  12.725  0.00  0.00    +0.000 A 
BRANCH  17  24
ATOM     23  N   UNL     1      44.031   4.514   9.542  0.00  0.00    +0.000 N 
ATOM     24  C   UNL     1      44.097   4.038  10.821  0.00  0.00    +0.000 C 
ATOM     25  O   UNL     1      43.300   3.198  11.225  0.00  0.00    +0.000 OA
ATOM     26  H   UNL     1      43.344   4.082   8.936  0.00  0.00    +0.000 HD
ATOM     27  H   UNL     1      44.792   5.017   9.105  0.00  0.00    +0.000 HD
ENDBRANCH  17  24
ENDBRANCH  16  21
ENDBRANCH  15  16
ENDBRANCH   1  15
TORSDOF 5
ENDMDL
MODEL 8
REMARK VINA RESULT:    -6.882      4.739      8.643
REMARK INTER + INTRA:          -9.092
REMARK INTER:                  -8.535
REMARK INTRA:                  -0.557
REMARK UNBOUND:                -0.198
REMARK  Name = 
REMARK  5 active torsions:
REMARK  status: ('A' for Active; 'I' for Inactive)
REMARK    1  A    between atoms: C_2  and  C_4
REMARK    2  A    between atoms: C_8  and  O_9
REMARK    3  A    between atoms: O_9  and  C_10
REMARK    4  A    between atoms: C_10  and  C_11
REMARK    5  A    between atoms: C_16  and  C_17
REMARK                            x       y       z     vdW  Elec       q    Type
REMARK                         _______ _______ _______ _____ _____    ______ ____
ROOT
ATOM      1  C   UNL     1      47.085   5.203  14.088  0.00  0.00    +0.000 A 
ATOM      2  C   UNL     1      48.126   6.091  13.806  0.00  0.00    +0.000 A 
ATOM      3  C   UNL     1      48.052   6.892  12.678  0.00  0.00    +0.000 A 
ATOM      4  F   UNL     1      49.057   7.735  12.402  0.00  0.00    +0.000 F 
ATOM      5  C   UNL     1      46.974   6.802  11.800  0.00  0.00    +0.000 A 
ATOM      6  C   UNL     1      45.923   5.898  12.038  0.00  0.00    +0.000 A 
ATOM      7  C   UNL     1      45.979   5.138  13.219  0.00  0.00    +0.000 A 
ENDROOT
BRANCH   6   8
ATOM      8  C   UNL     1      44.885   5.659  10.941  0.00  0.00    +0.000 C 
ATOM      9  C   UNL     1      43.435   5.988  11.343  0.00  0.00    +0.000 C 
ATOM     10  C   UNL     1      42.785   4.858  12.136  0.00  0.00    +0.000 C 
ATOM     11  N   UNL     1      42.806   3.594  11.399  0.00  0.00    +0.000 NA
ATOM     12  C   UNL     1      44.171   3.202  11.055  0.00  0.00    +0.000 C 
ATOM     13  C   UNL     1      44.901   4.279  10.251  0.00  0.00    +0.000 C 
ATOM     14  H   UNL     1      42.259   3.694  10.543  0.00  0.00    +0.000 HD
ENDBRANCH   6   8
BRANCH   1  15
ATOM     15  C   UNL     1      47.151   4.314  15.302  0.00  0.00    +0.000 C 
BRANCH  15  16
ATOM     16  O   UNL     1      48.431   4.478  15.903  0.00  0.00    +0.000 OA
BRANCH  16  21
ATOM     17  C   UNL     1      48.065   6.297  19.018  0.00  0.00    +0.000 A 
ATOM     18  C   UNL     1      48.419   5.340  19.975  0.00  0.00    +0.000 A 
ATOM     19  C   UNL     1      48.771   4.052  19.575  0.00  0.00    +0.000 A 
ATOM     20  C   UNL     1      48.782   3.717  18.219  0.00  0.00    +0.000 A 
ATOM     21  C   UNL     1      48.451   4.671  17.258  0.00  0.00    +0.000 A 
ATOM     22  C   UNL     1      48.100   5.963  17.659  0.00  0.00    +0.000 A 
BRANCH  17  24
ATOM     23  N   UNL     1      47.275   8.548  18.522  0.00  0.00    +0.000 N 
ATOM     24  C   UNL     1      47.674   7.655  19.476  0.00  0.00    +0.000 C 
ATOM     25  O   UNL     1      47.665   7.954  20.666  0.00  0.00    +0.000 OA
ATOM     26  H   UNL     1      46.906   9.430  18.857  0.00  0.00    +0.000 HD
ATOM     27  H   UNL     1      47.047   8.273  17.576  0.00  0.00    +0.000 HD
ENDBRANCH  17  24
ENDBRANCH  16  21
ENDBRANCH  15  16
ENDBRANCH   1  15
TORSDOF 5
ENDMDL
MODEL 9
REMARK VINA RESULT:    -6.771      3.472      5.235
REMARK INTER + INTRA:          -8.948
REMARK INTER:                  -8.078
REMARK INTRA:                  -0.870
REMARK UNBOUND:                -0.198
REMARK  Name = 
REMARK  5 active torsions:
REMARK  status: ('A' for Active; 'I' for Inactive)
REMARK    1  A    between atoms: C_2  and  C_4
REMARK    2  A    between atoms: C_8  and  O_9
REMARK    3  A    between atoms: O_9  and  C_10
REMARK    4  A    between atoms: C_10  and  C_11
REMARK    5  A    between atoms: C_16  and  C_17
REMARK                            x       y       z     vdW  Elec       q    Type
REMARK                         _______ _______ _______ _____ _____    ______ ____
ROOT
ATOM      1  C   UNL     1      47.757   7.800  12.265  0.00  0.00    +0.000 A 
ATOM      2  C   UNL     1      49.013   8.104  11.734  0.00  0.00    +0.000 A 
ATOM      3  C   UNL     1      49.304   9.410  11.376  0.00  0.00    +0.000 A 
ATOM      4  F   UNL     1      50.506   9.699  10.857  0.00  0.00    +0.000 F 
ATOM      5  C   UNL     1      48.353  10.420  11.502  0.00  0.00    +0.000 A 
ATOM      6  C   UNL     1      47.069  10.144  12.004  0.00  0.00    +0.000 A 
ATOM      7  C   UNL     1      46.808   8.828  12.424  0.00  0.00    +0.000 A 
ENDROOT
BRANCH   6   8
ATOM      8  C   UNL     1      45.985  11.218  11.908  0.00  0.00    +0.000 C 
ATOM      9  C   UNL     1      44.551  10.677  11.759  0.00  0.00    +0.000 C 
ATOM     10  C   UNL     1      44.226  10.289  10.319  0.00  0.00    +0.000 C 
ATOM     11  N   UNL     1      44.416  11.410   9.398  0.00  0.00    +0.000 NA
ATOM     12  C   UNL     1      45.786  11.916   9.451  0.00  0.00    +0.000 C 
ATOM     13  C   UNL     1      46.197  12.334  10.864  0.00  0.00    +0.000 C 
ATOM     14  H   UNL     1      43.770  12.161   9.645  0.00  0.00    +0.000 HD
ENDBRANCH   6   8
BRANCH   1  15
ATOM     15  C   UNL     1      47.415   6.383  12.647  0.00  0.00    +0.000 C 
BRANCH  15  16
ATOM     16  O   UNL     1      46.106   6.379  13.207  0.00  0.00    +0.000 OA
BRANCH  16  21
ATOM     17  C   UNL     1      44.631   4.715  10.342  0.00  0.00    +0.000 A 
ATOM     18  C   UNL     1      43.337   4.426  10.788  0.00  0.00    +0.000 A 
ATOM     19  C   UNL     1      42.951   4.777  12.081  0.00  0.00    +0.000 A 
ATOM     20  C   UNL     1      43.851   5.428  12.930  0.00  0.00    +0.000 A 
ATOM     21  C   UNL     1      45.136   5.738  12.485  0.00  0.00    +0.000 A 
ATOM     22  C   UNL     1      45.522   5.388  11.188  0.00  0.00    +0.000 A 
BRANCH  17  24
ATOM     23  N   UNL     1      44.378   3.232   8.425  0.00  0.00    +0.000 N 
ATOM     24  C   UNL     1      45.020   4.309   8.967  0.00  0.00    +0.000 C 
ATOM     25  O   UNL     1      45.852   4.940   8.322  0.00  0.00    +0.000 OA
ATOM     26  H   UNL     1      44.571   3.036   7.450  0.00  0.00    +0.000 HD
ATOM     27  H   UNL     1      43.537   2.838   8.825  0.00  0.00    +0.000 HD
ENDBRANCH  17  24
ENDBRANCH  16  21
ENDBRANCH  15  16
ENDBRANCH   1  15
TORSDOF 5
ENDMDL
