MODEL 1
REMARK VINA RESULT:    -8.120      0.000      0.000
REMARK INTER + INTRA:         -10.210
REMARK INTER:                 -10.019
REMARK INTRA:                  -0.191
REMARK UNBOUND:                -0.191
REMARK  Name = 
REMARK  4 active torsions:
REMARK  status: ('A' for Active; 'I' for Inactive)
REMARK    1  A    between atoms: C_5  and  N_6
REMARK    2  A    between atoms: N_6  and  C_7
REMARK    3  A    between atoms: C_7  and  C_8
REMARK    4  A    between atoms: C_12  and  C_13
REMARK                            x       y       z     vdW  Elec       q    Type
REMARK                         _______ _______ _______ _____ _____    ______ ____
ROOT
ATOM      1  C   UNL     1      43.974   4.902  11.113  0.00  0.00    +0.000 C 
ATOM      2  C   UNL     1      43.229   3.934  12.029  0.00  0.00    +0.000 C 
ATOM      3  C   UNL     1      42.736   5.330  11.884  0.00  0.00    +0.000 C 
ENDROOT
BRANCH   1   4
ATOM      4  C   UNL     1      45.329   5.406  11.619  0.00  0.00    +0.000 A 
ATOM      5  C   UNL     1      45.994   6.479  11.009  0.00  0.00    +0.000 A 
ATOM      6  C   UNL     1      47.125   7.052  11.588  0.00  0.00    +0.000 A 
ATOM      7  C   UNL     1      47.606   6.572  12.806  0.00  0.00    +0.000 A 
ATOM      8  C   UNL     1      46.997   5.481  13.444  0.00  0.00    +0.000 A 
ATOM      9  C   UNL     1      45.901   4.882  12.797  0.00  0.00    +0.000 A 
BRANCH   8  10
ATOM     10  C   UNL     1      47.404   5.041  14.792  0.00  0.00    +0.000 A 
ATOM     11  C   UNL     1      48.225   5.812  15.628  0.00  0.00    +0.000 A 
ATOM     12  C   UNL     1      48.643   5.317  16.863  0.00  0.00    +0.000 A 
ATOM     13  C   UNL     1      48.223   4.055  17.244  0.00  0.00    +0.000 A 
ATOM     14  N   UNL     1      47.432   3.273  16.484  0.00  0.00    +0.000 NA
ATOM     15  C   UNL     1      47.053   3.780  15.285  0.00  0.00    +0.000 A 
ENDBRANCH   8  10
ENDBRANCH   1   4
BRANCH   1  16
ATOM     16  N   UNL     1      43.895   4.665   9.658  0.00  0.00    +0.000 N 
ATOM     17  H   UNL     1      42.972   4.491   9.260  0.00  0.00    +0.000 HD
BRANCH  16  22
ATOM     18 CL   UNL     1      47.622   1.249   6.779  0.00  0.00    +0.000 Cl
ATOM     19  C   UNL     1      46.550   2.265   7.643  0.00  0.00    +0.000 A 
ATOM     20  C   UNL     1      46.462   3.623   7.403  0.00  0.00    +0.000 A 
ATOM     21  N   UNL     1      45.592   4.434   8.064  0.00  0.00    +0.000 NA
ATOM     22  C   UNL     1      44.800   3.838   8.982  0.00  0.00    +0.000 A 
ATOM     23  C   UNL     1      44.933   2.465   9.227  0.00  0.00    +0.000 A 
ATOM     24  N   UNL     1      45.793   1.646   8.567  0.00  0.00    +0.000 NA
ENDBRANCH  16  22
ENDBRANCH   1  16
TORSDOF 4
ENDMDL
MODEL 2
REMARK VINA RESULT:    -7.795      2.121      3.712
REMARK INTER + INTRA:          -9.809
REMARK INTER:                  -9.079
REMARK INTRA:                  -0.730
REMARK UNBOUND:                -0.191
REMARK  Name = 
REMARK  4 active torsions:
REMARK  status: ('A' for Active; 'I' for Inactive)
REMARK    1  A    between atoms: C_5  and  N_6
REMARK    2  A    between atoms: N_6  and  C_7
REMARK    3  A    between atoms: C_7  and  C_8
REMARK    4  A    between atoms: C_12  and  C_13
REMARK                            x       y       z     vdW  Elec       q    Type
REMARK                         _______ _______ _______ _____ _____    ______ ____
ROOT
ATOM      1  C   UNL     1      43.815   4.850  11.610  0.00  0.00    +0.000 C 
ATOM      2  C   UNL     1      42.515   5.249  12.305  0.00  0.00    +0.000 C 
ATOM      3  C   UNL     1      42.987   6.031  11.131  0.00  0.00    +0.000 C 
ENDROOT
BRANCH   1   4
ATOM      4  C   UNL     1      45.110   5.159  12.369  0.00  0.00    +0.000 A 
ATOM      5  C   UNL     1      45.720   4.214  13.206  0.00  0.00    +0.000 A 
ATOM      6  C   UNL     1      46.989   4.431  13.738  0.00  0.00    +0.000 A 
ATOM      7  C   UNL     1      47.687   5.598  13.426  0.00  0.00    +0.000 A 
ATOM      8  C   UNL     1      47.112   6.591  12.619  0.00  0.00    +0.000 A 
ATOM      9  C   UNL     1      45.802   6.370  12.157  0.00  0.00    +0.000 A 
BRANCH   8  10
ATOM     10  C   UNL     1      47.878   7.768  12.169  0.00  0.00    +0.000 A 
ATOM     11  C   UNL     1      49.222   7.697  11.777  0.00  0.00    +0.000 A 
ATOM     12  C   UNL     1      49.922   8.853  11.432  0.00  0.00    +0.000 A 
ATOM     13  C   UNL     1      49.257  10.066  11.479  0.00  0.00    +0.000 A 
ATOM     14  N   UNL     1      47.966  10.193  11.844  0.00  0.00    +0.000 NA
ATOM     15  C   UNL     1      47.319   9.051  12.183  0.00  0.00    +0.000 A 
ENDBRANCH   8  10
ENDBRANCH   1   4
BRANCH   1  16
ATOM     16  N   UNL     1      43.822   3.590  10.843  0.00  0.00    +0.000 N 
ATOM     17  H   UNL     1      43.824   2.718  11.372  0.00  0.00    +0.000 HD
BRANCH  16  22
ATOM     18 CL   UNL     1      47.280   2.757   6.239  0.00  0.00    +0.000 Cl
ATOM     19  C   UNL     1      46.239   2.990   7.577  0.00  0.00    +0.000 A 
ATOM     20  C   UNL     1      45.832   1.948   8.388  0.00  0.00    +0.000 A 
ATOM     21  N   UNL     1      45.028   2.127   9.471  0.00  0.00    +0.000 NA
ATOM     22  C   UNL     1      44.640   3.397   9.723  0.00  0.00    +0.000 A 
ATOM     23  C   UNL     1      45.042   4.429   8.865  0.00  0.00    +0.000 A 
ATOM     24  N   UNL     1      45.850   4.261   7.786  0.00  0.00    +0.000 NA
ENDBRANCH  16  22
ENDBRANCH   1  16
TORSDOF 4
ENDMDL
MODEL 3
REMARK VINA RESULT:    -7.391      2.877      6.979
REMARK INTER + INTRA:          -9.310
REMARK INTER:                  -8.741
REMARK INTRA:                  -0.569
REMARK UNBOUND:                -0.191
REMARK  Name = 
REMARK  4 active torsions:
REMARK  status: ('A' for Active; 'I' for Inactive)
REMARK    1  A    between atoms: C_5  and  N_6
REMARK    2  A    between atoms: N_6  and  C_7
REMARK    3  A    between atoms: C_7  and  C_8
REMARK    4  A    between atoms: C_12  and  C_13
REMARK                            x       y       z     vdW  Elec       q    Type
REMARK                         _______ _______ _______ _____ _____    ______ ____
ROOT
ATOM      1  C   UNL     1      46.475   7.220  12.567  0.00  0.00    +0.000 C 
ATOM      2  C   UNL     1      46.640   8.613  11.963  0.00  0.00    +0.000 C 
ATOM      3  C   UNL     1      45.944   8.460  13.268  0.00  0.00    +0.000 C 
ENDROOT
BRANCH   1   4
ATOM      4  C   UNL     1      45.453   6.304  11.886  0.00  0.00    +0.000 A 
ATOM      5  C   UNL     1      44.073   6.482  12.054  0.00  0.00    +0.000 A 
ATOM      6  C   UNL     1      43.153   5.771  11.286  0.00  0.00    +0.000 A 
ATOM      7  C   UNL     1      43.599   4.876  10.313  0.00  0.00    +0.000 A 
ATOM      8  C   UNL     1      44.968   4.637  10.124  0.00  0.00    +0.000 A 
ATOM      9  C   UNL     1      45.866   5.319  10.965  0.00  0.00    +0.000 A 
BRANCH   8  10
ATOM     10  C   UNL     1      45.466   3.798   9.017  0.00  0.00    +0.000 A 
ATOM     11  C   UNL     1      45.502   2.398   9.081  0.00  0.00    +0.000 A 
ATOM     12  C   UNL     1      46.053   1.655   8.038  0.00  0.00    +0.000 A 
ATOM     13  C   UNL     1      46.554   2.331   6.939  0.00  0.00    +0.000 A 
ATOM     14  N   UNL     1      46.542   3.673   6.823  0.00  0.00    +0.000 NA
ATOM     15  C   UNL     1      46.010   4.365   7.860  0.00  0.00    +0.000 A 
ENDBRANCH   8  10
ENDBRANCH   1   4
BRANCH   1  16
ATOM     16  N   UNL     1      47.687   6.546  13.072  0.00  0.00    +0.000 N 
ATOM     17  H   UNL     1      48.274   6.065  12.391  0.00  0.00    +0.000 HD
BRANCH  16  22
ATOM     18 CL   UNL     1      47.752   3.311  17.908  0.00  0.00    +0.000 Cl
ATOM     19  C   UNL     1      47.714   4.283  16.500  0.00  0.00    +0.000 A 
ATOM     20  C   UNL     1      48.448   5.449  16.385  0.00  0.00    +0.000 A 
ATOM     21  N   UNL     1      48.447   6.213  15.259  0.00  0.00    +0.000 NA
ATOM     22  C   UNL     1      47.683   5.770  14.238  0.00  0.00    +0.000 A 
ATOM     23  C   UNL     1      46.925   4.601  14.393  0.00  0.00    +0.000 A 
ATOM     24  N   UNL     1      46.925   3.828  15.510  0.00  0.00    +0.000 NA
ENDBRANCH  16  22
ENDBRANCH   1  16
TORSDOF 4
ENDMDL
MODEL 4
REMARK VINA RESULT:    -7.279      2.865      4.830
REMARK INTER + INTRA:          -9.173
REMARK INTER:                  -9.272
REMARK INTRA:                   0.099
REMARK UNBOUND:                -0.191
REMARK  Name = 
REMARK  4 active torsions:
REMARK  status: ('A' for Active; 'I' for Inactive)
REMARK    1  A    between atoms: C_5  and  N_6
REMARK    2  A    between atoms: N_6  and  C_7
REMARK    3  A    between atoms: C_7  and  C_8
REMARK    4  A    between atoms: C_12  and  C_13
REMARK                            x       y       z     vdW  Elec       q    Type
REMARK                         _______ _______ _______ _____ _____    ______ ____
ROOT
ATOM      1  C   UNL     1      44.263   4.598  11.105  0.00  0.00    +0.000 C 
ATOM      2  C   UNL     1      44.443   3.321  11.924  0.00  0.00    +0.000 C 
ATOM      3  C   UNL     1      43.169   4.083  12.027  0.00  0.00    +0.000 C 
ENDROOT
BRANCH   1   4
ATOM      4  C   UNL     1      45.061   5.820  11.572  0.00  0.00    +0.000 A 
ATOM      5  C   UNL     1      46.423   5.735  11.891  0.00  0.00    +0.000 A 
ATOM      6  C   UNL     1      47.184   6.878  12.128  0.00  0.00    +0.000 A 
ATOM      7  C   UNL     1      46.596   8.140  12.031  0.00  0.00    +0.000 A 
ATOM      8  C   UNL     1      45.230   8.281  11.745  0.00  0.00    +0.000 A 
ATOM      9  C   UNL     1      44.478   7.104  11.582  0.00  0.00    +0.000 A 
BRANCH   8  10
ATOM     10  C   UNL     1      44.617   9.602  11.508  0.00  0.00    +0.000 A 
ATOM     11  C   UNL     1      43.423   9.768  10.792  0.00  0.00    +0.000 A 
ATOM     12  C   UNL     1      42.925  11.045  10.530  0.00  0.00    +0.000 A 
ATOM     13  C   UNL     1      43.633  12.138  11.000  0.00  0.00    +0.000 A 
ATOM     14  N   UNL     1      44.782  12.036  11.696  0.00  0.00    +0.000 NA
ATOM     15  C   UNL     1      45.243  10.782  11.922  0.00  0.00    +0.000 A 
ENDBRANCH   8  10
ENDBRANCH   1   4
BRANCH   1  16
ATOM     16  N   UNL     1      44.125   4.458   9.642  0.00  0.00    +0.000 N 
ATOM     17  H   UNL     1      43.198   4.238   9.278  0.00  0.00    +0.000 HD
BRANCH  16  22
ATOM     18 CL   UNL     1      47.950   1.571   6.344  0.00  0.00    +0.000 Cl
ATOM     19  C   UNL     1      46.848   2.429   7.332  0.00  0.00    +0.000 A 
ATOM     20  C   UNL     1      46.718   3.804   7.275  0.00  0.00    +0.000 A 
ATOM     21  N   UNL     1      45.825   4.493   8.035  0.00  0.00    +0.000 NA
ATOM     22  C   UNL     1      45.054   3.757   8.864  0.00  0.00    +0.000 A 
ATOM     23  C   UNL     1      45.230   2.367   8.926  0.00  0.00    +0.000 A 
ATOM     24  N   UNL     1      46.113   1.670   8.165  0.00  0.00    +0.000 NA
ENDBRANCH  16  22
ENDBRANCH   1  16
TORSDOF 4
ENDMDL
MODEL 5
REMARK VINA RESULT:    -6.729      3.647      7.585
REMARK INTER + INTRA:          -8.494
REMARK INTER:                  -7.802
REMARK INTRA:                  -0.692
REMARK UNBOUND:                -0.191
REMARK  Name = 
REMARK  4 active torsions:
REMARK  status: ('A' for Active; 'I' for Inactive)
REMARK    1  A    between atoms: C_5  and  N_6
REMARK    2  A    between atoms: N_6  and  C_7
REMARK    3  A    between atoms: C_7  and  C_8
REMARK    4  A    between atoms: C_12  and  C_13
REMARK                            x       y       z     vdW  Elec       q    Type
REMARK                         _______ _______ _______ _____ _____    ______ ____
ROOT
ATOM      1  C   UNL     1      48.879   7.904  12.631  0.00  0.00    +0.000 C 
ATOM      2  C   UNL     1      49.706   8.340  11.423  0.00  0.00    +0.000 C 
ATOM      3  C   UNL     1      49.382   9.330  12.485  0.00  0.00    +0.000 C 
ENDROOT
BRANCH   1   4
ATOM      4  C   UNL     1      47.389   7.652  12.375  0.00  0.00    +0.000 A 
ATOM      5  C   UNL     1      46.425   8.648  12.587  0.00  0.00    +0.000 A 
ATOM      6  C   UNL     1      45.105   8.476  12.174  0.00  0.00    +0.000 A 
ATOM      7  C   UNL     1      44.725   7.305  11.517  0.00  0.00    +0.000 A 
ATOM      8  C   UNL     1      45.642   6.264  11.307  0.00  0.00    +0.000 A 
ATOM      9  C   UNL     1      46.947   6.443  11.801  0.00  0.00    +0.000 A 
BRANCH   8  10
ATOM     10  C   UNL     1      45.300   5.076  10.502  0.00  0.00    +0.000 A 
ATOM     11  C   UNL     1      45.586   4.977   9.133  0.00  0.00    +0.000 A 
ATOM     12  C   UNL     1      45.173   3.863   8.402  0.00  0.00    +0.000 A 
ATOM     13  C   UNL     1      44.485   2.860   9.061  0.00  0.00    +0.000 A 
ATOM     14  N   UNL     1      44.186   2.901  10.374  0.00  0.00    +0.000 NA
ATOM     15  C   UNL     1      44.592   4.002  11.052  0.00  0.00    +0.000 A 
ENDBRANCH   8  10
ENDBRANCH   1   4
BRANCH   1  16
ATOM     16  N   UNL     1      49.513   6.989  13.600  0.00  0.00    +0.000 N 
ATOM     17  H   UNL     1      49.651   6.021  13.310  0.00  0.00    +0.000 HD
BRANCH  16  22
ATOM     18 CL   UNL     1      47.982   6.878  19.212  0.00  0.00    +0.000 Cl
ATOM     19  C   UNL     1      48.461   6.900  17.569  0.00  0.00    +0.000 A 
ATOM     20  C   UNL     1      48.526   5.752  16.802  0.00  0.00    +0.000 A 
ATOM     21  N   UNL     1      48.877   5.762  15.487  0.00  0.00    +0.000 NA
ATOM     22  C   UNL     1      49.162   6.970  14.955  0.00  0.00    +0.000 A 
ATOM     23  C   UNL     1      49.119   8.114  15.764  0.00  0.00    +0.000 A 
ATOM     24  N   UNL     1      48.763   8.114  17.075  0.00  0.00    +0.000 NA
ENDBRANCH  16  22
ENDBRANCH   1  16
TORSDOF 4
ENDMDL
MODEL 6
REMARK VINA RESULT:    -6.281      2.943      4.567
REMARK INTER + INTRA:          -7.942
REMARK INTER:                  -7.256
REMARK INTRA:                  -0.686
REMARK UNBOUND:                -0.191
REMARK  Name = 
REMARK  4 active torsions:
REMARK  status: ('A' for Active; 'I' for Inactive)
REMARK    1  A    between atoms: C_5  and  N_6
REMARK    2  A    between atoms: N_6  and  C_7
REMARK    3  A    between atoms: C_7  and  C_8
REMARK    4  A    between atoms: C_12  and  C_13
REMARK                            x       y       z     vdW  Elec       q    Type
REMARK                         _______ _______ _______ _____ _____    ______ ____
ROOT
ATOM      1  C   UNL     1      47.406   7.958  12.839  0.00  0.00    +0.000 C 
ATOM      2  C   UNL     1      48.041   8.883  11.804  0.00  0.00    +0.000 C 
ATOM      3  C   UNL     1      48.251   7.414  11.699  0.00  0.00    +0.000 C 
ENDROOT
BRANCH   1   4
ATOM      4  C   UNL     1      48.033   7.974  14.237  0.00  0.00    +0.000 A 
ATOM      5  C   UNL     1      48.032   9.128  15.034  0.00  0.00    +0.000 A 
ATOM      6  C   UNL     1      48.430   9.085  16.369  0.00  0.00    +0.000 A 
ATOM      7  C   UNL     1      48.821   7.874  16.943  0.00  0.00    +0.000 A 
ATOM      8  C   UNL     1      48.870   6.696  16.182  0.00  0.00    +0.000 A 
ATOM      9  C   UNL     1      48.530   6.791  14.821  0.00  0.00    +0.000 A 
BRANCH   8  10
ATOM     10  C   UNL     1      49.152   5.385  16.796  0.00  0.00    +0.000 A 
ATOM     11  C   UNL     1      50.405   5.049  17.329  0.00  0.00    +0.000 A 
ATOM     12  C   UNL     1      50.641   3.769  17.830  0.00  0.00    +0.000 A 
ATOM     13  C   UNL     1      49.610   2.846  17.795  0.00  0.00    +0.000 A 
ATOM     14  N   UNL     1      48.387   3.116  17.299  0.00  0.00    +0.000 NA
ATOM     15  C   UNL     1      48.195   4.365  16.811  0.00  0.00    +0.000 A 
ENDBRANCH   8  10
ENDBRANCH   1   4
BRANCH   1  16
ATOM     16  N   UNL     1      45.938   7.805  12.811  0.00  0.00    +0.000 N 
ATOM     17  H   UNL     1      45.403   8.275  13.541  0.00  0.00    +0.000 HD
BRANCH  16  22
ATOM     18 CL   UNL     1      43.281   2.727  11.809  0.00  0.00    +0.000 Cl
ATOM     19  C   UNL     1      44.082   4.215  12.080  0.00  0.00    +0.000 A 
ATOM     20  C   UNL     1      43.899   5.314  11.263  0.00  0.00    +0.000 A 
ATOM     21  N   UNL     1      44.508   6.510  11.487  0.00  0.00    +0.000 NA
ATOM     22  C   UNL     1      45.315   6.575  12.568  0.00  0.00    +0.000 A 
ATOM     23  C   UNL     1      45.508   5.435  13.361  0.00  0.00    +0.000 A 
ATOM     24  N   UNL     1      44.898   4.240  13.150  0.00  0.00    +0.000 NA
ENDBRANCH  16  22
ENDBRANCH   1  16
TORSDOF 4
ENDMDL
MODEL 7
REMARK VINA RESULT:    -6.181      3.577      7.858
REMARK INTER + INTRA:          -7.817
REMARK INTER:                  -7.561
REMARK INTRA:                  -0.256
REMARK UNBOUND:                -0.191
REMARK  Name = 
REMARK  4 active torsions:
REMARK  status: ('A' for Active; 'I' for Inactive)
REMARK    1  A    between atoms: C_5  and  N_6
REMARK    2  A    between atoms: N_6  and  C_7
REMARK    3  A    between atoms: C_7  and  C_8
REMARK    4  A    between atoms: C_12  and  C_13
REMARK                            x       y       z     vdW  Elec       q    Type
REMARK                         _______ _______ _______ _____ _____    ______ ____
ROOT
ATOM      1  C   UNL     1      48.106   6.841  14.506  0.00  0.00    +0.000 C 
ATOM      2  C   UNL     1      49.486   7.276  14.018  0.00  0.00    +0.000 C 
ATOM      3  C   UNL     1      48.792   8.080  15.060  0.00  0.00    +0.000 C 
ENDROOT
BRANCH   1   4
ATOM      4  C   UNL     1      46.944   7.056  13.531  0.00  0.00    +0.000 A 
ATOM      5  C   UNL     1      46.407   8.328  13.290  0.00  0.00    +0.000 A 
ATOM      6  C   UNL     1      45.485   8.542  12.266  0.00  0.00    +0.000 A 
ATOM      7  C   UNL     1      45.096   7.483  11.445  0.00  0.00    +0.000 A 
ATOM      8  C   UNL     1      45.580   6.184  11.661  0.00  0.00    +0.000 A 
ATOM      9  C   UNL     1      46.452   5.992  12.747  0.00  0.00    +0.000 A 
BRANCH   8  10
ATOM     10  C   UNL     1      45.286   5.080  10.729  0.00  0.00    +0.000 A 
ATOM     11  C   UNL     1      45.624   5.122   9.369  0.00  0.00    +0.000 A 
ATOM     12  C   UNL     1      45.256   4.083   8.514  0.00  0.00    +0.000 A 
ATOM     13  C   UNL     1      44.560   3.010   9.042  0.00  0.00    +0.000 A 
ATOM     14  N   UNL     1      44.212   2.915  10.340  0.00  0.00    +0.000 NA
ATOM     15  C   UNL     1      44.576   3.947  11.141  0.00  0.00    +0.000 A 
ENDBRANCH   8  10
ENDBRANCH   1   4
BRANCH   1  16
ATOM     16  N   UNL     1      48.025   5.613  15.321  0.00  0.00    +0.000 N 
ATOM     17  H   UNL     1      47.126   5.133  15.357  0.00  0.00    +0.000 HD
BRANCH  16  22
ATOM     18 CL   UNL     1      50.407   5.142  20.608  0.00  0.00    +0.000 Cl
ATOM     19  C   UNL     1      49.724   5.306  19.048  0.00  0.00    +0.000 A 
ATOM     20  C   UNL     1      50.398   4.930  17.902  0.00  0.00    +0.000 A 
ATOM     21  N   UNL     1      49.853   5.028  16.659  0.00  0.00    +0.000 NA
ATOM     22  C   UNL     1      48.596   5.519  16.596  0.00  0.00    +0.000 A 
ATOM     23  C   UNL     1      47.948   5.923  17.771  0.00  0.00    +0.000 A 
ATOM     24  N   UNL     1      48.482   5.821  19.017  0.00  0.00    +0.000 NA
ENDBRANCH  16  22
ENDBRANCH   1  16
TORSDOF 4
ENDMDL
MODEL 8
REMARK VINA RESULT:    -5.904      4.243      8.843
REMARK INTER + INTRA:          -7.476
REMARK INTER:                  -6.963
REMARK INTRA:                  -0.514
REMARK UNBOUND:                -0.191
REMARK  Name = 
REMARK  4 active torsions:
REMARK  status: ('A' for Active; 'I' for Inactive)
REMARK    1  A    between atoms: C_5  and  N_6
REMARK    2  A    between atoms: N_6  and  C_7
REMARK    3  A    between atoms: C_7  and  C_8
REMARK    4  A    between atoms: C_12  and  C_13
REMARK                            x       y       z     vdW  Elec       q    Type
REMARK                         _______ _______ _______ _____ _____    ______ ____
ROOT
ATOM      1  C   UNL     1      48.122   3.967  17.079  0.00  0.00    +0.000 C 
ATOM      2  C   UNL     1      48.311   2.505  16.681  0.00  0.00    +0.000 C 
ATOM      3  C   UNL     1      49.479   3.288  17.167  0.00  0.00    +0.000 C 
ENDROOT
BRANCH   1   4
ATOM      4  C   UNL     1      47.904   4.958  15.931  0.00  0.00    +0.000 A 
ATOM      5  C   UNL     1      48.695   6.106  15.785  0.00  0.00    +0.000 A 
ATOM      6  C   UNL     1      48.619   6.897  14.640  0.00  0.00    +0.000 A 
ATOM      7  C   UNL     1      47.757   6.542  13.602  0.00  0.00    +0.000 A 
ATOM      8  C   UNL     1      46.921   5.420  13.709  0.00  0.00    +0.000 A 
ATOM      9  C   UNL     1      46.973   4.686  14.907  0.00  0.00    +0.000 A 
BRANCH   8  10
ATOM     10  C   UNL     1      46.101   4.951  12.576  0.00  0.00    +0.000 A 
ATOM     11  C   UNL     1      45.524   3.674  12.533  0.00  0.00    +0.000 A 
ATOM     12  C   UNL     1      44.821   3.251  11.405  0.00  0.00    +0.000 A 
ATOM     13  C   UNL     1      44.700   4.124  10.338  0.00  0.00    +0.000 A 
ATOM     14  N   UNL     1      45.231   5.363  10.326  0.00  0.00    +0.000 NA
ATOM     15  C   UNL     1      45.917   5.737  11.434  0.00  0.00    +0.000 A 
ENDBRANCH   8  10
ENDBRANCH   1   4
BRANCH   1  16
ATOM     16  N   UNL     1      47.352   4.247  18.307  0.00  0.00    +0.000 N 
ATOM     17  H   UNL     1      46.345   4.373  18.210  0.00  0.00    +0.000 HD
BRANCH  16  22
ATOM     18 CL   UNL     1      49.209   8.066  22.283  0.00  0.00    +0.000 Cl
ATOM     19  C   UNL     1      48.636   6.940  21.129  0.00  0.00    +0.000 A 
ATOM     20  C   UNL     1      47.723   7.284  20.151  0.00  0.00    +0.000 A 
ATOM     21  N   UNL     1      47.283   6.404  19.211  0.00  0.00    +0.000 NA
ATOM     22  C   UNL     1      47.793   5.155  19.278  0.00  0.00    +0.000 A 
ATOM     23  C   UNL     1      48.693   4.826  20.300  0.00  0.00    +0.000 A 
ATOM     24  N   UNL     1      49.143   5.699  21.238  0.00  0.00    +0.000 NA
ENDBRANCH  16  22
ENDBRANCH   1  16
TORSDOF 4
ENDMDL
MODEL 9
REMARK VINA RESULT:    -5.628      3.657      7.634
REMARK INTER + INTRA:          -7.135
REMARK INTER:                  -6.316
REMARK INTRA:                  -0.820
REMARK UNBOUND:                -0.191
REMARK  Name = 
REMARK  4 active torsions:
REMARK  status: ('A' for Active; 'I' for Inactive)
REMARK    1  A    between atoms: C_5  and  N_6
REMARK    2  A    between atoms: N_6  and  C_7
REMARK    3  A    between atoms: C_7  and  C_8
REMARK    4  A    between atoms: C_12  and  C_13
REMARK                            x       y       z     vdW  Elec       q    Type
REMARK                         _______ _______ _______ _____ _____    ______ ____
ROOT
ATOM      1  C   UNL     1      49.156   8.863  16.538  0.00  0.00    +0.000 C 
ATOM      2  C   UNL     1      49.138  10.375  16.752  0.00  0.00    +0.000 C 
ATOM      3  C   UNL     1      47.909   9.583  17.027  0.00  0.00    +0.000 C 
ENDROOT
BRANCH   1   4
ATOM      4  C   UNL     1      49.168   8.386  15.082  0.00  0.00    +0.000 A 
ATOM      5  C   UNL     1      50.269   8.606  14.242  0.00  0.00    +0.000 A 
ATOM      6  C   UNL     1      50.352   8.006  12.986  0.00  0.00    +0.000 A 
ATOM      7  C   UNL     1      49.337   7.153  12.552  0.00  0.00    +0.000 A 
ATOM      8  C   UNL     1      48.200   6.922  13.339  0.00  0.00    +0.000 A 
ATOM      9  C   UNL     1      48.116   7.600  14.569  0.00  0.00    +0.000 A 
BRANCH   8  10
ATOM     10  C   UNL     1      47.180   5.926  12.961  0.00  0.00    +0.000 A 
ATOM     11  C   UNL     1      46.382   6.052  11.815  0.00  0.00    +0.000 A 
ATOM     12  C   UNL     1      45.380   5.121  11.543  0.00  0.00    +0.000 A 
ATOM     13  C   UNL     1      45.201   4.069  12.424  0.00  0.00    +0.000 A 
ATOM     14  N   UNL     1      45.940   3.896  13.537  0.00  0.00    +0.000 NA
ATOM     15  C   UNL     1      46.898   4.825  13.777  0.00  0.00    +0.000 A 
ENDBRANCH   8  10
ENDBRANCH   1   4
BRANCH   1  16
ATOM     16  N   UNL     1      49.956   8.049  17.473  0.00  0.00    +0.000 N 
ATOM     17  H   UNL     1      50.920   8.339  17.641  0.00  0.00    +0.000 HD
BRANCH  16  22
ATOM     18 CL   UNL     1      49.877   2.232  17.462  0.00  0.00    +0.000 Cl
ATOM     19  C   UNL     1      49.884   3.943  17.438  0.00  0.00    +0.000 A 
ATOM     20  C   UNL     1      48.774   4.693  17.777  0.00  0.00    +0.000 A 
ATOM     21  N   UNL     1      48.778   6.053  17.790  0.00  0.00    +0.000 NA
ATOM     22  C   UNL     1      49.942   6.649  17.452  0.00  0.00    +0.000 A 
ATOM     23  C   UNL     1      51.043   5.865  17.082  0.00  0.00    +0.000 A 
ATOM     24  N   UNL     1      51.050   4.507  17.074  0.00  0.00    +0.000 NA
ENDBRANCH  16  22
ENDBRANCH   1  16
TORSDOF 4
ENDMDL
