MODEL 1
REMARK VINA RESULT:    -8.685      0.000      0.000
REMARK INTER + INTRA:         -12.104
REMARK INTER:                 -11.224
REMARK INTRA:                  -0.881
REMARK UNBOUND:                -0.881
REMARK  Name = 
REMARK  5 active torsions:
REMARK  status: ('A' for Active; 'I' for Inactive)
REMARK    1  A    between atoms: C_2  and  C_4
REMARK    2  A    between atoms: N_8  and  C_9
REMARK    3  A    between atoms: C_9  and  C_10
REMARK    4  A    between atoms: C_10  and  C_11
REMARK    5  A    between atoms: C_16  and  C_17
REMARK                            x       y       z     vdW  Elec       q    Type
REMARK                         _______ _______ _______ _____ _____    ______ ____
ROOT
ATOM      1  C   UNL     1      43.400   4.349  10.943  0.00  0.00    +0.000 C 
ENDROOT
BRANCH   1   6
ATOM      2  C   UNL     1      46.623   2.471   7.522  0.00  0.00    +0.000 A 
ATOM      3  C   UNL     1      45.797   1.798   8.414  0.00  0.00    +0.000 A 
ATOM      4  C   UNL     1      44.832   2.517   9.121  0.00  0.00    +0.000 A 
ATOM      5  C   UNL     1      44.726   3.894   8.947  0.00  0.00    +0.000 A 
ATOM      6  N   UNL     1      43.749   4.662   9.565  0.00  0.00    +0.000 N 
ATOM      7  N   UNL     1      45.540   4.560   8.104  0.00  0.00    +0.000 NA
ATOM      8  C   UNL     1      46.470   3.845   7.416  0.00  0.00    +0.000 A 
ATOM      9  H   UNL     1      43.992   5.634   9.378  0.00  0.00    +0.000 HD
BRANCH   2  11
ATOM     10  N   UNL     1      48.761   2.504   6.369  0.00  0.00    +0.000 N 
ATOM     11  C   UNL     1      47.645   1.787   6.704  0.00  0.00    +0.000 C 
ATOM     12  O   UNL     1      47.518   0.617   6.370  0.00  0.00    +0.000 OA
ATOM     13  H   UNL     1      49.499   1.995   5.897  0.00  0.00    +0.000 HD
ATOM     14  H   UNL     1      49.014   3.369   6.826  0.00  0.00    +0.000 HD
ENDBRANCH   2  11
ENDBRANCH   1   6
BRANCH   1  15
ATOM     15  C   UNL     1      43.613   5.567  11.851  0.00  0.00    +0.000 C 
BRANCH  15  16
ATOM     16  C   UNL     1      45.023   5.593  12.396  0.00  0.00    +0.000 A 
ATOM     17  C   UNL     1      45.436   4.656  13.345  0.00  0.00    +0.000 A 
ATOM     18  C   UNL     1      46.713   4.744  13.882  0.00  0.00    +0.000 A 
ATOM     19  F   UNL     1      47.103   3.848  14.796  0.00  0.00    +0.000 F 
ATOM     20  C   UNL     1      47.591   5.756  13.501  0.00  0.00    +0.000 A 
ATOM     21  C   UNL     1      47.217   6.716  12.545  0.00  0.00    +0.000 A 
ATOM     22  C   UNL     1      45.919   6.604  12.000  0.00  0.00    +0.000 A 
BRANCH  21  23
ATOM     23  C   UNL     1      48.138   7.806  12.143  0.00  0.00    +0.000 A 
ATOM     24  C   UNL     1      47.716   9.143  12.083  0.00  0.00    +0.000 A 
ATOM     25  C   UNL     1      48.612  10.127  11.687  0.00  0.00    +0.000 A 
ATOM     26  N   UNL     1      49.896   9.886  11.357  0.00  0.00    +0.000 NA
ATOM     27  C   UNL     1      50.299   8.603  11.422  0.00  0.00    +0.000 A 
ATOM     28  C   UNL     1      49.474   7.551  11.796  0.00  0.00    +0.000 A 
ENDBRANCH  21  23
ENDBRANCH  15  16
ENDBRANCH   1  15
TORSDOF 5
ENDMDL
MODEL 2
REMARK VINA RESULT:    -8.262      2.494      3.680
REMARK INTER + INTRA:         -11.558
REMARK INTER:                 -10.830
REMARK INTRA:                  -0.728
REMARK UNBOUND:                -0.881
REMARK  Name = 
REMARK  5 active torsions:
REMARK  status: ('A' for Active; 'I' for Inactive)
REMARK    1  A    between atoms: C_2  and  C_4
REMARK    2  A    between atoms: N_8  and  C_9
REMARK    3  A    between atoms: C_9  and  C_10
REMARK    4  A    between atoms: C_10  and  C_11
REMARK    5  A    between atoms: C_16  and  C_17
REMARK                            x       y       z     vdW  Elec       q    Type
REMARK                         _______ _______ _______ _____ _____    ______ ____
ROOT
ATOM      1  C   UNL     1      43.749   3.638  11.221  0.00  0.00    +0.000 C 
ENDROOT
BRANCH   1   6
ATOM      2  C   UNL     1      46.603   2.339   7.248  0.00  0.00    +0.000 A 
ATOM      3  C   UNL     1      46.119   1.545   8.280  0.00  0.00    +0.000 A 
ATOM      4  C   UNL     1      45.172   2.074   9.158  0.00  0.00    +0.000 A 
ATOM      5  C   UNL     1      44.746   3.391   9.009  0.00  0.00    +0.000 A 
ATOM      6  N   UNL     1      43.761   3.963   9.802  0.00  0.00    +0.000 N 
ATOM      7  N   UNL     1      45.229   4.178   8.027  0.00  0.00    +0.000 NA
ATOM      8  C   UNL     1      46.145   3.646   7.174  0.00  0.00    +0.000 A 
ATOM      9  H   UNL     1      43.753   4.956   9.573  0.00  0.00    +0.000 HD
BRANCH   2  11
ATOM     10  N   UNL     1      48.846   2.357   6.314  0.00  0.00    +0.000 N 
ATOM     11  C   UNL     1      47.576   1.852   6.250  0.00  0.00    +0.000 C 
ATOM     12  O   UNL     1      47.272   1.002   5.423  0.00  0.00    +0.000 OA
ATOM     13  H   UNL     1      49.529   1.941   5.693  0.00  0.00    +0.000 HD
ATOM     14  H   UNL     1      49.196   2.857   7.120  0.00  0.00    +0.000 HD
ENDBRANCH   2  11
ENDBRANCH   1   6
BRANCH   1  15
ATOM     15  C   UNL     1      43.684   4.913  12.072  0.00  0.00    +0.000 C 
BRANCH  15  16
ATOM     16  C   UNL     1      45.071   5.372  12.460  0.00  0.00    +0.000 A 
ATOM     17  C   UNL     1      45.830   6.158  11.590  0.00  0.00    +0.000 A 
ATOM     18  C   UNL     1      47.127   6.508  11.940  0.00  0.00    +0.000 A 
ATOM     19  F   UNL     1      47.853   7.256  11.100  0.00  0.00    +0.000 F 
ATOM     20  C   UNL     1      47.695   6.081  13.138  0.00  0.00    +0.000 A 
ATOM     21  C   UNL     1      46.964   5.293  14.043  0.00  0.00    +0.000 A 
ATOM     22  C   UNL     1      45.642   4.957  13.679  0.00  0.00    +0.000 A 
BRANCH  21  23
ATOM     23  C   UNL     1      47.563   4.821  15.316  0.00  0.00    +0.000 A 
ATOM     24  C   UNL     1      48.404   5.641  16.083  0.00  0.00    +0.000 A 
ATOM     25  C   UNL     1      48.952   5.150  17.260  0.00  0.00    +0.000 A 
ATOM     26  N   UNL     1      48.721   3.911  17.737  0.00  0.00    +0.000 NA
ATOM     27  C   UNL     1      47.908   3.130  17.001  0.00  0.00    +0.000 A 
ATOM     28  C   UNL     1      47.322   3.529  15.808  0.00  0.00    +0.000 A 
ENDBRANCH  21  23
ENDBRANCH  15  16
ENDBRANCH   1  15
TORSDOF 5
ENDMDL
MODEL 3
REMARK VINA RESULT:    -8.068      2.132      2.736
REMARK INTER + INTRA:         -11.307
REMARK INTER:                 -10.361
REMARK INTRA:                  -0.946
REMARK UNBOUND:                -0.881
REMARK  Name = 
REMARK  5 active torsions:
REMARK  status: ('A' for Active; 'I' for Inactive)
REMARK    1  A    between atoms: C_2  and  C_4
REMARK    2  A    between atoms: N_8  and  C_9
REMARK    3  A    between atoms: C_9  and  C_10
REMARK    4  A    between atoms: C_10  and  C_11
REMARK    5  A    between atoms: C_16  and  C_17
REMARK                            x       y       z     vdW  Elec       q    Type
REMARK                         _______ _______ _______ _____ _____    ______ ____
ROOT
ATOM      1  C   UNL     1      43.216   3.619  11.228  0.00  0.00    +0.000 C 
ENDROOT
BRANCH   1   6
ATOM      2  C   UNL     1      46.447   2.827   7.413  0.00  0.00    +0.000 A 
ATOM      3  C   UNL     1      46.008   4.027   7.959  0.00  0.00    +0.000 A 
ATOM      4  C   UNL     1      45.277   4.006   9.148  0.00  0.00    +0.000 A 
ATOM      5  C   UNL     1      44.976   2.791   9.757  0.00  0.00    +0.000 A 
ATOM      6  N   UNL     1      44.313   2.696  10.972  0.00  0.00    +0.000 N 
ATOM      7  N   UNL     1      45.375   1.620   9.222  0.00  0.00    +0.000 NA
ATOM      8  C   UNL     1      46.092   1.657   8.066  0.00  0.00    +0.000 A 
ATOM      9  H   UNL     1      44.102   1.708  11.105  0.00  0.00    +0.000 HD
BRANCH   2  11
ATOM     10  N   UNL     1      48.611   2.619   6.329  0.00  0.00    +0.000 N 
ATOM     11  C   UNL     1      47.257   2.756   6.181  0.00  0.00    +0.000 C 
ATOM     12  O   UNL     1      46.738   2.779   5.073  0.00  0.00    +0.000 OA
ATOM     13  H   UNL     1      49.144   2.468   5.481  0.00  0.00    +0.000 HD
ATOM     14  H   UNL     1      49.041   2.348   7.202  0.00  0.00    +0.000 HD
ENDBRANCH   2  11
ENDBRANCH   1   6
BRANCH   1  15
ATOM     15  C   UNL     1      43.335   4.232  12.629  0.00  0.00    +0.000 C 
BRANCH  15  16
ATOM     16  C   UNL     1      44.485   5.213  12.691  0.00  0.00    +0.000 A 
ATOM     17  C   UNL     1      45.687   4.861  13.307  0.00  0.00    +0.000 A 
ATOM     18  C   UNL     1      46.702   5.802  13.413  0.00  0.00    +0.000 A 
ATOM     19  F   UNL     1      47.852   5.463  14.009  0.00  0.00    +0.000 F 
ATOM     20  C   UNL     1      46.543   7.098  12.927  0.00  0.00    +0.000 A 
ATOM     21  C   UNL     1      45.350   7.491  12.296  0.00  0.00    +0.000 A 
ATOM     22  C   UNL     1      44.334   6.518  12.184  0.00  0.00    +0.000 A 
BRANCH  21  23
ATOM     23  C   UNL     1      45.164   8.872  11.787  0.00  0.00    +0.000 A 
ATOM     24  C   UNL     1      46.073   9.897  12.088  0.00  0.00    +0.000 A 
ATOM     25  C   UNL     1      45.848  11.177  11.600  0.00  0.00    +0.000 A 
ATOM     26  N   UNL     1      44.796  11.513  10.829  0.00  0.00    +0.000 NA
ATOM     27  C   UNL     1      43.930  10.526  10.536  0.00  0.00    +0.000 A 
ATOM     28  C   UNL     1      44.065   9.219  10.986  0.00  0.00    +0.000 A 
ENDBRANCH  21  23
ENDBRANCH  15  16
ENDBRANCH   1  15
TORSDOF 5
ENDMDL
MODEL 4
REMARK VINA RESULT:    -7.759      3.716      7.360
REMARK INTER + INTRA:         -10.907
REMARK INTER:                 -10.033
REMARK INTRA:                  -0.874
REMARK UNBOUND:                -0.881
REMARK  Name = 
REMARK  5 active torsions:
REMARK  status: ('A' for Active; 'I' for Inactive)
REMARK    1  A    between atoms: C_2  and  C_4
REMARK    2  A    between atoms: N_8  and  C_9
REMARK    3  A    between atoms: C_9  and  C_10
REMARK    4  A    between atoms: C_10  and  C_11
REMARK    5  A    between atoms: C_16  and  C_17
REMARK                            x       y       z     vdW  Elec       q    Type
REMARK                         _______ _______ _______ _____ _____    ______ ____
ROOT
ATOM      1  C   UNL     1      45.317   6.857  12.470  0.00  0.00    +0.000 C 
ENDROOT
BRANCH   1   6
ATOM      2  C   UNL     1      47.974   4.426  16.027  0.00  0.00    +0.000 A 
ATOM      3  C   UNL     1      46.942   3.955  15.224  0.00  0.00    +0.000 A 
ATOM      4  C   UNL     1      46.495   4.741  14.161  0.00  0.00    +0.000 A 
ATOM      5  C   UNL     1      47.066   5.990  13.933  0.00  0.00    +0.000 A 
ATOM      6  N   UNL     1      46.719   6.796  12.858  0.00  0.00    +0.000 N 
ATOM      7  N   UNL     1      48.049   6.467  14.721  0.00  0.00    +0.000 NA
ATOM      8  C   UNL     1      48.479   5.687  15.749  0.00  0.00    +0.000 A 
ATOM      9  H   UNL     1      47.176   7.693  13.016  0.00  0.00    +0.000 HD
BRANCH   2  11
ATOM     10  N   UNL     1      47.746   3.484  18.254  0.00  0.00    +0.000 N 
ATOM     11  C   UNL     1      48.536   3.648  17.149  0.00  0.00    +0.000 C 
ATOM     12  O   UNL     1      49.646   3.138  17.079  0.00  0.00    +0.000 OA
ATOM     13  H   UNL     1      48.101   2.864  18.973  0.00  0.00    +0.000 HD
ATOM     14  H   UNL     1      46.753   3.669  18.250  0.00  0.00    +0.000 HD
ENDBRANCH   2  11
ENDBRANCH   1   6
BRANCH   1  15
ATOM     15  C   UNL     1      45.164   6.714  10.951  0.00  0.00    +0.000 C 
BRANCH  15  16
ATOM     16  C   UNL     1      44.852   5.284  10.573  0.00  0.00    +0.000 A 
ATOM     17  C   UNL     1      43.982   4.516  11.350  0.00  0.00    +0.000 A 
ATOM     18  C   UNL     1      43.767   3.185  11.023  0.00  0.00    +0.000 A 
ATOM     19  F   UNL     1      42.936   2.451  11.774  0.00  0.00    +0.000 F 
ATOM     20  C   UNL     1      44.410   2.591   9.940  0.00  0.00    +0.000 A 
ATOM     21  C   UNL     1      45.290   3.329   9.129  0.00  0.00    +0.000 A 
ATOM     22  C   UNL     1      45.487   4.686   9.468  0.00  0.00    +0.000 A 
BRANCH  21  23
ATOM     23  C   UNL     1      45.991   2.705   7.982  0.00  0.00    +0.000 A 
ATOM     24  C   UNL     1      46.449   1.380   8.030  0.00  0.00    +0.000 A 
ATOM     25  C   UNL     1      47.113   0.843   6.935  0.00  0.00    +0.000 A 
ATOM     26  N   UNL     1      47.348   1.519   5.794  0.00  0.00    +0.000 NA
ATOM     27  C   UNL     1      46.902   2.788   5.748  0.00  0.00    +0.000 A 
ATOM     28  C   UNL     1      46.238   3.413   6.795  0.00  0.00    +0.000 A 
ENDBRANCH  21  23
ENDBRANCH  15  16
ENDBRANCH   1  15
TORSDOF 5
ENDMDL
MODEL 5
REMARK VINA RESULT:    -7.536      4.213      7.555
REMARK INTER + INTRA:         -10.619
REMARK INTER:                 -10.111
REMARK INTRA:                  -0.509
REMARK UNBOUND:                -0.881
REMARK  Name = 
REMARK  5 active torsions:
REMARK  status: ('A' for Active; 'I' for Inactive)
REMARK    1  A    between atoms: C_2  and  C_4
REMARK    2  A    between atoms: N_8  and  C_9
REMARK    3  A    between atoms: C_9  and  C_10
REMARK    4  A    between atoms: C_10  and  C_11
REMARK    5  A    between atoms: C_16  and  C_17
REMARK                            x       y       z     vdW  Elec       q    Type
REMARK                         _______ _______ _______ _____ _____    ______ ____
ROOT
ATOM      1  C   UNL     1      47.260   6.805  12.985  0.00  0.00    +0.000 C 
ENDROOT
BRANCH   1   6
ATOM      2  C   UNL     1      48.596   3.914  16.919  0.00  0.00    +0.000 A 
ATOM      3  C   UNL     1      48.812   5.270  16.711  0.00  0.00    +0.000 A 
ATOM      4  C   UNL     1      48.169   5.906  15.648  0.00  0.00    +0.000 A 
ATOM      5  C   UNL     1      47.344   5.175  14.798  0.00  0.00    +0.000 A 
ATOM      6  N   UNL     1      46.622   5.752  13.763  0.00  0.00    +0.000 N 
ATOM      7  N   UNL     1      47.148   3.854  14.976  0.00  0.00    +0.000 NA
ATOM      8  C   UNL     1      47.775   3.249  16.021  0.00  0.00    +0.000 A 
ATOM      9  H   UNL     1      46.228   4.980  13.227  0.00  0.00    +0.000 HD
BRANCH   2  11
ATOM     10  N   UNL     1      48.547   3.199  19.241  0.00  0.00    +0.000 N 
ATOM     11  C   UNL     1      49.202   3.167  18.040  0.00  0.00    +0.000 C 
ATOM     12  O   UNL     1      50.228   2.515  17.893  0.00  0.00    +0.000 OA
ATOM     13  H   UNL     1      48.915   2.603  19.971  0.00  0.00    +0.000 HD
ATOM     14  H   UNL     1      47.589   3.509  19.334  0.00  0.00    +0.000 HD
ENDBRANCH   2  11
ENDBRANCH   1   6
BRANCH   1  15
ATOM     15  C   UNL     1      46.235   7.524  12.098  0.00  0.00    +0.000 C 
BRANCH  15  16
ATOM     16  C   UNL     1      45.323   6.529  11.416  0.00  0.00    +0.000 A 
ATOM     17  C   UNL     1      43.974   6.444  11.767  0.00  0.00    +0.000 A 
ATOM     18  C   UNL     1      43.173   5.476  11.177  0.00  0.00    +0.000 A 
ATOM     19  F   UNL     1      41.882   5.394  11.521  0.00  0.00    +0.000 F 
ATOM     20  C   UNL     1      43.689   4.578  10.247  0.00  0.00    +0.000 A 
ATOM     21  C   UNL     1      45.040   4.632   9.861  0.00  0.00    +0.000 A 
ATOM     22  C   UNL     1      45.837   5.631  10.461  0.00  0.00    +0.000 A 
BRANCH  21  23
ATOM     23  C   UNL     1      45.604   3.671   8.882  0.00  0.00    +0.000 A 
ATOM     24  C   UNL     1      45.509   2.285   9.072  0.00  0.00    +0.000 A 
ATOM     25  C   UNL     1      46.065   1.425   8.134  0.00  0.00    +0.000 A 
ATOM     26  N   UNL     1      46.698   1.838   7.018  0.00  0.00    +0.000 NA
ATOM     27  C   UNL     1      46.781   3.169   6.837  0.00  0.00    +0.000 A 
ATOM     28  C   UNL     1      46.266   4.105   7.723  0.00  0.00    +0.000 A 
ENDBRANCH  21  23
ENDBRANCH  15  16
ENDBRANCH   1  15
TORSDOF 5
ENDMDL
MODEL 6
REMARK VINA RESULT:    -6.958      4.158      7.751
REMARK INTER + INTRA:          -9.873
REMARK INTER:                  -8.946
REMARK INTRA:                  -0.927
REMARK UNBOUND:                -0.881
REMARK  Name = 
REMARK  5 active torsions:
REMARK  status: ('A' for Active; 'I' for Inactive)
REMARK    1  A    between atoms: C_2  and  C_4
REMARK    2  A    between atoms: N_8  and  C_9
REMARK    3  A    between atoms: C_9  and  C_10
REMARK    4  A    between atoms: C_10  and  C_11
REMARK    5  A    between atoms: C_16  and  C_17
REMARK                            x       y       z     vdW  Elec       q    Type
REMARK                         _______ _______ _______ _____ _____    ______ ____
ROOT
ATOM      1  C   UNL     1      49.207   8.369  13.832  0.00  0.00    +0.000 C 
ENDROOT
BRANCH   1   6
ATOM      2  C   UNL     1      48.193   4.450  16.869  0.00  0.00    +0.000 A 
ATOM      3  C   UNL     1      47.485   4.914  15.768  0.00  0.00    +0.000 A 
ATOM      4  C   UNL     1      48.064   5.884  14.948  0.00  0.00    +0.000 A 
ATOM      5  C   UNL     1      49.323   6.392  15.255  0.00  0.00    +0.000 A 
ATOM      6  N   UNL     1      49.987   7.307  14.451  0.00  0.00    +0.000 N 
ATOM      7  N   UNL     1      50.007   5.966  16.336  0.00  0.00    +0.000 NA
ATOM      8  C   UNL     1      49.434   5.015  17.121  0.00  0.00    +0.000 A 
ATOM      9  H   UNL     1      50.806   7.608  14.979  0.00  0.00    +0.000 HD
BRANCH   2  11
ATOM     10  N   UNL     1      48.376   3.162  18.922  0.00  0.00    +0.000 N 
ATOM     11  C   UNL     1      47.677   3.398  17.769  0.00  0.00    +0.000 C 
ATOM     12  O   UNL     1      46.646   2.789  17.514  0.00  0.00    +0.000 OA
ATOM     13  H   UNL     1      47.957   2.513  19.577  0.00  0.00    +0.000 HD
ATOM     14  H   UNL     1      49.071   3.801  19.281  0.00  0.00    +0.000 HD
ENDBRANCH   2  11
ENDBRANCH   1   6
BRANCH   1  15
ATOM     15  C   UNL     1      48.924   8.048  12.358  0.00  0.00    +0.000 C 
BRANCH  15  16
ATOM     16  C   UNL     1      47.436   7.959  12.103  0.00  0.00    +0.000 A 
ATOM     17  C   UNL     1      46.623   9.087  12.226  0.00  0.00    +0.000 A 
ATOM     18  C   UNL     1      45.251   8.965  12.056  0.00  0.00    +0.000 A 
ATOM     19  F   UNL     1      44.475  10.049  12.180  0.00  0.00    +0.000 F 
ATOM     20  C   UNL     1      44.663   7.734  11.776  0.00  0.00    +0.000 A 
ATOM     21  C   UNL     1      45.445   6.574  11.640  0.00  0.00    +0.000 A 
ATOM     22  C   UNL     1      46.840   6.719  11.803  0.00  0.00    +0.000 A 
BRANCH  21  23
ATOM     23  C   UNL     1      44.828   5.255  11.356  0.00  0.00    +0.000 A 
ATOM     24  C   UNL     1      44.961   4.633  10.105  0.00  0.00    +0.000 A 
ATOM     25  C   UNL     1      44.354   3.404   9.883  0.00  0.00    +0.000 A 
ATOM     26  N   UNL     1      43.634   2.744  10.810  0.00  0.00    +0.000 NA
ATOM     27  C   UNL     1      43.514   3.341  12.011  0.00  0.00    +0.000 A 
ATOM     28  C   UNL     1      44.076   4.571  12.323  0.00  0.00    +0.000 A 
ENDBRANCH  21  23
ENDBRANCH  15  16
ENDBRANCH   1  15
TORSDOF 5
ENDMDL
MODEL 7
REMARK VINA RESULT:    -6.691      6.077      7.798
REMARK INTER + INTRA:          -9.528
REMARK INTER:                  -8.970
REMARK INTRA:                  -0.558
REMARK UNBOUND:                -0.881
REMARK  Name = 
REMARK  5 active torsions:
REMARK  status: ('A' for Active; 'I' for Inactive)
REMARK    1  A    between atoms: C_2  and  C_4
REMARK    2  A    between atoms: N_8  and  C_9
REMARK    3  A    between atoms: C_9  and  C_10
REMARK    4  A    between atoms: C_10  and  C_11
REMARK    5  A    between atoms: C_16  and  C_17
REMARK                            x       y       z     vdW  Elec       q    Type
REMARK                         _______ _______ _______ _____ _____    ______ ____
ROOT
ATOM      1  C   UNL     1      47.229   4.132  15.984  0.00  0.00    +0.000 C 
ENDROOT
BRANCH   1   6
ATOM      2  C   UNL     1      44.554   4.735  11.730  0.00  0.00    +0.000 A 
ATOM      3  C   UNL     1      45.028   5.696  12.615  0.00  0.00    +0.000 A 
ATOM      4  C   UNL     1      45.926   5.317  13.613  0.00  0.00    +0.000 A 
ATOM      5  C   UNL     1      46.316   3.986  13.727  0.00  0.00    +0.000 A 
ATOM      6  N   UNL     1      47.255   3.548  14.651  0.00  0.00    +0.000 N 
ATOM      7  N   UNL     1      45.843   3.041  12.891  0.00  0.00    +0.000 NA
ATOM      8  C   UNL     1      44.973   3.427  11.918  0.00  0.00    +0.000 A 
ATOM      9  H   UNL     1      47.240   2.530  14.611  0.00  0.00    +0.000 HD
BRANCH   2  11
ATOM     10  N   UNL     1      43.897   4.483   9.405  0.00  0.00    +0.000 N 
ATOM     11  C   UNL     1      43.632   5.051  10.621  0.00  0.00    +0.000 C 
ATOM     12  O   UNL     1      42.649   5.761  10.790  0.00  0.00    +0.000 OA
ATOM     13  H   UNL     1      43.203   4.623   8.681  0.00  0.00    +0.000 HD
ATOM     14  H   UNL     1      44.537   3.709   9.291  0.00  0.00    +0.000 HD
ENDBRANCH   2  11
ENDBRANCH   1   6
BRANCH   1  15
ATOM     15  C   UNL     1      47.924   3.212  16.997  0.00  0.00    +0.000 C 
BRANCH  15  16
ATOM     16  C   UNL     1      49.326   3.696  17.290  0.00  0.00    +0.000 A 
ATOM     17  C   UNL     1      49.644   5.052  17.197  0.00  0.00    +0.000 A 
ATOM     18  C   UNL     1      50.954   5.463  17.403  0.00  0.00    +0.000 A 
ATOM     19  F   UNL     1      51.256   6.764  17.306  0.00  0.00    +0.000 F 
ATOM     20  C   UNL     1      51.963   4.548  17.691  0.00  0.00    +0.000 A 
ATOM     21  C   UNL     1      51.685   3.175  17.799  0.00  0.00    +0.000 A 
ATOM     22  C   UNL     1      50.345   2.776  17.600  0.00  0.00    +0.000 A 
BRANCH  21  23
ATOM     23  C   UNL     1      52.754   2.190  18.091  0.00  0.00    +0.000 A 
ATOM     24  C   UNL     1      52.685   0.868  17.628  0.00  0.00    +0.000 A 
ATOM     25  C   UNL     1      53.705  -0.022  17.939  0.00  0.00    +0.000 A 
ATOM     26  N   UNL     1      54.791   0.305  18.666  0.00  0.00    +0.000 NA
ATOM     27  C   UNL     1      54.857   1.576  19.104  0.00  0.00    +0.000 A 
ATOM     28  C   UNL     1      53.883   2.533  18.852  0.00  0.00    +0.000 A 
ENDBRANCH  21  23
ENDBRANCH  15  16
ENDBRANCH   1  15
TORSDOF 5
ENDMDL
MODEL 8
REMARK VINA RESULT:    -6.602      5.116      7.028
REMARK INTER + INTRA:          -9.412
REMARK INTER:                  -8.597
REMARK INTRA:                  -0.816
REMARK UNBOUND:                -0.881
REMARK  Name = 
REMARK  5 active torsions:
REMARK  status: ('A' for Active; 'I' for Inactive)
REMARK    1  A    between atoms: C_2  and  C_4
REMARK    2  A    between atoms: N_8  and  C_9
REMARK    3  A    between atoms: C_9  and  C_10
REMARK    4  A    between atoms: C_10  and  C_11
REMARK    5  A    between atoms: C_16  and  C_17
REMARK                            x       y       z     vdW  Elec       q    Type
REMARK                         _______ _______ _______ _____ _____    ______ ____
ROOT
ATOM      1  C   UNL     1      48.909   6.949  14.850  0.00  0.00    +0.000 C 
ENDROOT
BRANCH   1   6
ATOM      2  C   UNL     1      45.423   4.890  11.812  0.00  0.00    +0.000 A 
ATOM      3  C   UNL     1      46.139   4.307  12.851  0.00  0.00    +0.000 A 
ATOM      4  C   UNL     1      46.897   5.121  13.694  0.00  0.00    +0.000 A 
ATOM      5  C   UNL     1      46.948   6.494  13.473  0.00  0.00    +0.000 A 
ATOM      6  N   UNL     1      47.625   7.371  14.308  0.00  0.00    +0.000 N 
ATOM      7  N   UNL     1      46.278   7.066  12.453  0.00  0.00    +0.000 NA
ATOM      8  C   UNL     1      45.538   6.262  11.643  0.00  0.00    +0.000 A 
ATOM      9  H   UNL     1      47.618   8.275  13.837  0.00  0.00    +0.000 HD
BRANCH   2  11
ATOM     10  N   UNL     1      44.796   2.767  10.811  0.00  0.00    +0.000 N 
ATOM     11  C   UNL     1      44.566   4.114  10.895  0.00  0.00    +0.000 C 
ATOM     12  O   UNL     1      43.660   4.643  10.264  0.00  0.00    +0.000 OA
ATOM     13  H   UNL     1      44.138   2.231  10.259  0.00  0.00    +0.000 HD
ATOM     14  H   UNL     1      45.352   2.264  11.489  0.00  0.00    +0.000 HD
ENDBRANCH   2  11
ENDBRANCH   1   6
BRANCH   1  15
ATOM     15  C   UNL     1      48.837   6.811  16.377  0.00  0.00    +0.000 C 
BRANCH  15  16
ATOM     16  C   UNL     1      48.865   5.355  16.787  0.00  0.00    +0.000 A 
ATOM     17  C   UNL     1      47.677   4.652  16.995  0.00  0.00    +0.000 A 
ATOM     18  C   UNL     1      47.730   3.338  17.439  0.00  0.00    +0.000 A 
ATOM     19  F   UNL     1      46.588   2.668  17.643  0.00  0.00    +0.000 F 
ATOM     20  C   UNL     1      48.945   2.707  17.695  0.00  0.00    +0.000 A 
ATOM     21  C   UNL     1      50.163   3.378  17.494  0.00  0.00    +0.000 A 
ATOM     22  C   UNL     1      50.092   4.709  17.029  0.00  0.00    +0.000 A 
BRANCH  21  23
ATOM     23  C   UNL     1      51.463   2.721  17.776  0.00  0.00    +0.000 A 
ATOM     24  C   UNL     1      52.521   3.412  18.384  0.00  0.00    +0.000 A 
ATOM     25  C   UNL     1      53.724   2.758  18.615  0.00  0.00    +0.000 A 
ATOM     26  N   UNL     1      53.951   1.468  18.297  0.00  0.00    +0.000 NA
ATOM     27  C   UNL     1      52.931   0.807  17.720  0.00  0.00    +0.000 A 
ATOM     28  C   UNL     1      51.697   1.378  17.441  0.00  0.00    +0.000 A 
ENDBRANCH  21  23
ENDBRANCH  15  16
ENDBRANCH   1  15
TORSDOF 5
ENDMDL
MODEL 9
REMARK VINA RESULT:    -6.401      4.556      6.659
REMARK INTER + INTRA:          -9.153
REMARK INTER:                  -8.055
REMARK INTRA:                  -1.099
REMARK UNBOUND:                -0.881
REMARK  Name = 
REMARK  5 active torsions:
REMARK  status: ('A' for Active; 'I' for Inactive)
REMARK    1  A    between atoms: C_2  and  C_4
REMARK    2  A    between atoms: N_8  and  C_9
REMARK    3  A    between atoms: C_9  and  C_10
REMARK    4  A    between atoms: C_10  and  C_11
REMARK    5  A    between atoms: C_16  and  C_17
REMARK                            x       y       z     vdW  Elec       q    Type
REMARK                         _______ _______ _______ _____ _____    ______ ____
ROOT
ATOM      1  C   UNL     1      48.457   8.216  14.000  0.00  0.00    +0.000 C 
ENDROOT
BRANCH   1   6
ATOM      2  C   UNL     1      45.328   4.513  12.546  0.00  0.00    +0.000 A 
ATOM      3  C   UNL     1      46.351   4.482  13.486  0.00  0.00    +0.000 A 
ATOM      4  C   UNL     1      46.948   5.680  13.881  0.00  0.00    +0.000 A 
ATOM      5  C   UNL     1      46.533   6.882  13.315  0.00  0.00    +0.000 A 
ATOM      6  N   UNL     1      47.034   8.116  13.706  0.00  0.00    +0.000 N 
ATOM      7  N   UNL     1      45.560   6.920  12.384  0.00  0.00    +0.000 NA
ATOM      8  C   UNL     1      44.983   5.746  12.014  0.00  0.00    +0.000 A 
ATOM      9  H   UNL     1      46.669   8.795  13.040  0.00  0.00    +0.000 HD
BRANCH   2  11
ATOM     10  N   UNL     1      44.985   2.764  10.895  0.00  0.00    +0.000 N 
ATOM     11  C   UNL     1      44.614   3.301  12.098  0.00  0.00    +0.000 C 
ATOM     12  O   UNL     1      43.752   2.774  12.790  0.00  0.00    +0.000 OA
ATOM     13  H   UNL     1      44.561   1.878  10.647  0.00  0.00    +0.000 HD
ATOM     14  H   UNL     1      45.843   3.016  10.425  0.00  0.00    +0.000 HD
ENDBRANCH   2  11
ENDBRANCH   1   6
BRANCH   1  15
ATOM     15  C   UNL     1      48.688   8.957  15.324  0.00  0.00    +0.000 C 
BRANCH  15  16
ATOM     16  C   UNL     1      48.575   8.009  16.498  0.00  0.00    +0.000 A 
ATOM     17  C   UNL     1      48.117   8.463  17.736  0.00  0.00    +0.000 A 
ATOM     18  C   UNL     1      48.088   7.591  18.816  0.00  0.00    +0.000 A 
ATOM     19  F   UNL     1      47.654   8.031  20.003  0.00  0.00    +0.000 F 
ATOM     20  C   UNL     1      48.518   6.272  18.693  0.00  0.00    +0.000 A 
ATOM     21  C   UNL     1      48.982   5.774  17.463  0.00  0.00    +0.000 A 
ATOM     22  C   UNL     1      48.992   6.670  16.373  0.00  0.00    +0.000 A 
BRANCH  21  23
ATOM     23  C   UNL     1      49.456   4.375  17.325  0.00  0.00    +0.000 A 
ATOM     24  C   UNL     1      48.608   3.352  16.876  0.00  0.00    +0.000 A 
ATOM     25  C   UNL     1      49.094   2.055  16.775  0.00  0.00    +0.000 A 
ATOM     26  N   UNL     1      50.358   1.700  17.078  0.00  0.00    +0.000 NA
ATOM     27  C   UNL     1      51.170   2.687  17.502  0.00  0.00    +0.000 A 
ATOM     28  C   UNL     1      50.772   4.009  17.643  0.00  0.00    +0.000 A 
ENDBRANCH  21  23
ENDBRANCH  15  16
ENDBRANCH   1  15
TORSDOF 5
ENDMDL
