MODEL 1
REMARK VINA RESULT:    -6.781      0.000      0.000
REMARK INTER + INTRA:         -10.863
REMARK INTER:                  -9.556
REMARK INTRA:                  -1.308
REMARK UNBOUND:                -1.308
REMARK  Name = 
REMARK  8 active torsions:
REMARK  status: ('A' for Active; 'I' for Inactive)
REMARK    1  A    between atoms: C_1  and  O_2
REMARK    2  A    between atoms: O_2  and  C_3
REMARK    3  A    between atoms: C_8  and  N_9
REMARK    4  A    between atoms: N_9  and  C_10
REMARK    5  A    between atoms: C_10  and  C_11
REMARK    6  A    between atoms: C_14  and  C_15
REMARK    7  A    between atoms: C_15  and  N_16
REMARK    8  A    between atoms: C_17  and  C_19
REMARK                            x       y       z     vdW  Elec       q    Type
REMARK                         _______ _______ _______ _____ _____    ______ ____
ROOT
ATOM      1  C   UNL     1      45.235   7.769  11.629  0.00  0.00    +0.000 A 
ATOM      2  C   UNL     1      46.350   6.971  11.378  0.00  0.00    +0.000 A 
ATOM      3  C   UNL     1      47.508   7.174  12.130  0.00  0.00    +0.000 A 
ATOM      4  C   UNL     1      47.535   8.161  13.119  0.00  0.00    +0.000 A 
ATOM      5  C   UNL     1      46.363   8.874  13.334  0.00  0.00    +0.000 A 
ATOM      6  N   UNL     1      45.229   8.703  12.616  0.00  0.00    +0.000 NA
ENDROOT
BRANCH   1   7
ATOM      7  C   UNL     1      43.997   7.676  10.746  0.00  0.00    +0.000 C 
BRANCH   7   8
ATOM      8  N   UNL     1      42.974   6.787  11.295  0.00  0.00    +0.000 N 
ATOM      9  H   UNL     1      42.348   7.244  11.948  0.00  0.00    +0.000 HD
BRANCH   8  15
ATOM     10  C   UNL     1      43.535   4.401  10.740  0.00  0.00    +0.000 A 
ATOM     11  C   UNL     1      43.770   3.126  11.265  0.00  0.00    +0.000 A 
ATOM     12  N   UNL     1      43.669   2.798  12.571  0.00  0.00    +0.000 NA
ATOM     13  C   UNL     1      43.328   3.799  13.401  0.00  0.00    +0.000 A 
ATOM     14  C   UNL     1      43.131   5.111  12.990  0.00  0.00    +0.000 A 
ATOM     15  C   UNL     1      43.268   5.455  11.635  0.00  0.00    +0.000 A 
BRANCH  10  17
ATOM     16  C   UNL     1      44.855   4.286   8.781  0.00  0.00    +0.000 C 
ATOM     17  O   UNL     1      43.620   4.651   9.396  0.00  0.00    +0.000 OA
ENDBRANCH  10  17
ENDBRANCH   8  15
ENDBRANCH   7   8
ENDBRANCH   1   7
BRANCH   4  18
ATOM     18  C   UNL     1      48.747   8.393  13.971  0.00  0.00    +0.000 C 
BRANCH  18  19
ATOM     19  N   UNL     1      48.762   7.473  15.076  0.00  0.00    +0.000 N 
ATOM     20  C   UNL     1      49.924   6.951  15.578  0.00  0.00    +0.000 C 
ATOM     21  O   UNL     1      51.022   7.281  15.142  0.00  0.00    +0.000 OA
ATOM     22  H   UNL     1      47.875   7.043  15.326  0.00  0.00    +0.000 HD
BRANCH  20  23
ATOM     23  C   UNL     1      49.786   6.021  16.707  0.00  0.00    +0.000 A 
ATOM     24  C   UNL     1      50.641   6.135  17.795  0.00  0.00    +0.000 A 
ATOM     25  S   UNL     1      50.316   5.015  19.040  0.00  0.00    +0.000 S 
ATOM     26  C   UNL     1      49.054   4.306  18.150  0.00  0.00    +0.000 A 
ATOM     27  N   UNL     1      48.353   3.249  18.649  0.00  0.00    +0.000 NA
ATOM     28  C   UNL     1      47.438   2.795  17.860  0.00  0.00    +0.000 A 
ATOM     29  N   UNL     1      47.152   3.303  16.619  0.00  0.00    +0.000 N 
ATOM     30  C   UNL     1      47.815   4.380  16.085  0.00  0.00    +0.000 A 
ATOM     31  O   UNL     1      47.515   4.829  14.984  0.00  0.00    +0.000 OA
ATOM     32  C   UNL     1      48.869   4.926  16.925  0.00  0.00    +0.000 A 
ATOM     33  H   UNL     1      46.415   2.906  16.056  0.00  0.00    +0.000 HD
ENDBRANCH  20  23
ENDBRANCH  18  19
ENDBRANCH   4  18
TORSDOF 7
ENDMDL
MODEL 2
REMARK VINA RESULT:    -6.727      3.167      4.929
REMARK INTER + INTRA:         -10.787
REMARK INTER:                 -10.016
REMARK INTRA:                  -0.771
REMARK UNBOUND:                -1.308
REMARK  Name = 
REMARK  8 active torsions:
REMARK  status: ('A' for Active; 'I' for Inactive)
REMARK    1  A    between atoms: C_1  and  O_2
REMARK    2  A    between atoms: O_2  and  C_3
REMARK    3  A    between atoms: C_8  and  N_9
REMARK    4  A    between atoms: N_9  and  C_10
REMARK    5  A    between atoms: C_10  and  C_11
REMARK    6  A    between atoms: C_14  and  C_15
REMARK    7  A    between atoms: C_15  and  N_16
REMARK    8  A    between atoms: C_17  and  C_19
REMARK                            x       y       z     vdW  Elec       q    Type
REMARK                         _______ _______ _______ _____ _____    ______ ____
ROOT
ATOM      1  C   UNL     1      45.238   7.784  11.976  0.00  0.00    +0.000 A 
ATOM      2  C   UNL     1      46.522   7.703  12.511  0.00  0.00    +0.000 A 
ATOM      3  C   UNL     1      46.884   6.563  13.230  0.00  0.00    +0.000 A 
ATOM      4  C   UNL     1      45.965   5.524  13.399  0.00  0.00    +0.000 A 
ATOM      5  C   UNL     1      44.727   5.668  12.789  0.00  0.00    +0.000 A 
ATOM      6  N   UNL     1      44.347   6.764  12.093  0.00  0.00    +0.000 NA
ENDROOT
BRANCH   1   7
ATOM      7  C   UNL     1      44.755   9.061  11.301  0.00  0.00    +0.000 C 
BRANCH   7   8
ATOM      8  N   UNL     1      43.341   9.008  10.930  0.00  0.00    +0.000 N 
ATOM      9  H   UNL     1      43.051   8.106  10.568  0.00  0.00    +0.000 HD
BRANCH   8  15
ATOM     10  C   UNL     1      41.363  10.484  10.460  0.00  0.00    +0.000 A 
ATOM     11  C   UNL     1      40.897  11.577   9.722  0.00  0.00    +0.000 A 
ATOM     12  N   UNL     1      41.614  12.242   8.790  0.00  0.00    +0.000 NA
ATOM     13  C   UNL     1      42.868  11.801   8.592  0.00  0.00    +0.000 A 
ATOM     14  C   UNL     1      43.445  10.764   9.313  0.00  0.00    +0.000 A 
ATOM     15  C   UNL     1      42.708  10.095  10.304  0.00  0.00    +0.000 A 
BRANCH  10  17
ATOM     16  C   UNL     1      39.205  10.267  11.402  0.00  0.00    +0.000 C 
ATOM     17  O   UNL     1      40.564   9.835  11.363  0.00  0.00    +0.000 OA
ENDBRANCH  10  17
ENDBRANCH   8  15
ENDBRANCH   7   8
ENDBRANCH   1   7
BRANCH   4  18
ATOM     18  C   UNL     1      46.321   4.267  14.138  0.00  0.00    +0.000 C 
BRANCH  18  19
ATOM     19  N   UNL     1      47.436   4.505  15.015  0.00  0.00    +0.000 N 
ATOM     20  C   UNL     1      47.455   4.059  16.310  0.00  0.00    +0.000 C 
ATOM     21  O   UNL     1      46.540   3.388  16.776  0.00  0.00    +0.000 OA
ATOM     22  H   UNL     1      48.108   5.209  14.722  0.00  0.00    +0.000 HD
BRANCH  20  23
ATOM     23  C   UNL     1      48.658   4.378  17.091  0.00  0.00    +0.000 A 
ATOM     24  C   UNL     1      48.752   5.608  17.727  0.00  0.00    +0.000 A 
ATOM     25  S   UNL     1      50.185   5.802  18.632  0.00  0.00    +0.000 S 
ATOM     26  C   UNL     1      50.753   4.270  18.166  0.00  0.00    +0.000 A 
ATOM     27  N   UNL     1      51.966   3.814  18.589  0.00  0.00    +0.000 NA
ATOM     28  C   UNL     1      52.283   2.646  18.142  0.00  0.00    +0.000 A 
ATOM     29  N   UNL     1      51.496   1.883  17.316  0.00  0.00    +0.000 N 
ATOM     30  C   UNL     1      50.258   2.291  16.885  0.00  0.00    +0.000 A 
ATOM     31  O   UNL     1      49.567   1.573  16.171  0.00  0.00    +0.000 OA
ATOM     32  C   UNL     1      49.854   3.609  17.345  0.00  0.00    +0.000 A 
ATOM     33  H   UNL     1      51.800   0.971  17.012  0.00  0.00    +0.000 HD
ENDBRANCH  20  23
ENDBRANCH  18  19
ENDBRANCH   4  18
TORSDOF 7
ENDMDL
MODEL 3
REMARK VINA RESULT:    -6.634      2.874      7.151
REMARK INTER + INTRA:         -10.656
REMARK INTER:                  -8.900
REMARK INTRA:                  -1.756
REMARK UNBOUND:                -1.308
REMARK  Name = 
REMARK  8 active torsions:
REMARK  status: ('A' for Active; 'I' for Inactive)
REMARK    1  A    between atoms: C_1  and  O_2
REMARK    2  A    between atoms: O_2  and  C_3
REMARK    3  A    between atoms: C_8  and  N_9
REMARK    4  A    between atoms: N_9  and  C_10
REMARK    5  A    between atoms: C_10  and  C_11
REMARK    6  A    between atoms: C_14  and  C_15
REMARK    7  A    between atoms: C_15  and  N_16
REMARK    8  A    between atoms: C_17  and  C_19
REMARK                            x       y       z     vdW  Elec       q    Type
REMARK                         _______ _______ _______ _____ _____    ______ ____
ROOT
ATOM      1  C   UNL     1      50.535   6.622  17.957  0.00  0.00    +0.000 A 
ATOM      2  C   UNL     1      50.891   6.525  16.613  0.00  0.00    +0.000 A 
ATOM      3  C   UNL     1      50.167   7.254  15.669  0.00  0.00    +0.000 A 
ATOM      4  C   UNL     1      49.107   8.067  16.077  0.00  0.00    +0.000 A 
ATOM      5  C   UNL     1      48.855   8.142  17.440  0.00  0.00    +0.000 A 
ATOM      6  N   UNL     1      49.535   7.442  18.376  0.00  0.00    +0.000 NA
ENDROOT
BRANCH   1   7
ATOM      7  C   UNL     1      51.207   5.745  19.005  0.00  0.00    +0.000 C 
BRANCH   7   8
ATOM      8  N   UNL     1      50.462   4.517  19.281  0.00  0.00    +0.000 N 
ATOM      9  H   UNL     1      50.742   4.057  20.139  0.00  0.00    +0.000 HD
BRANCH   8  15
ATOM     10  C   UNL     1      48.815   3.350  17.784  0.00  0.00    +0.000 A 
ATOM     11  C   UNL     1      48.660   2.398  16.771  0.00  0.00    +0.000 A 
ATOM     12  N   UNL     1      49.658   1.643  16.261  0.00  0.00    +0.000 NA
ATOM     13  C   UNL     1      50.879   1.858  16.781  0.00  0.00    +0.000 A 
ATOM     14  C   UNL     1      51.149   2.820  17.746  0.00  0.00    +0.000 A 
ATOM     15  C   UNL     1      50.115   3.625  18.251  0.00  0.00    +0.000 A 
BRANCH  10  17
ATOM     16  C   UNL     1      47.093   4.910  17.344  0.00  0.00    +0.000 C 
ATOM     17  O   UNL     1      47.748   4.052  18.278  0.00  0.00    +0.000 OA
ENDBRANCH  10  17
ENDBRANCH   8  15
ENDBRANCH   7   8
ENDBRANCH   1   7
BRANCH   4  18
ATOM     18  C   UNL     1      48.321   8.891  15.100  0.00  0.00    +0.000 C 
BRANCH  18  19
ATOM     19  N   UNL     1      47.320   8.082  14.459  0.00  0.00    +0.000 N 
ATOM     20  C   UNL     1      47.210   7.999  13.096  0.00  0.00    +0.000 C 
ATOM     21  O   UNL     1      47.994   8.573  12.348  0.00  0.00    +0.000 OA
ATOM     22  H   UNL     1      46.553   7.755  15.041  0.00  0.00    +0.000 HD
BRANCH  20  23
ATOM     23  C   UNL     1      46.138   7.136  12.582  0.00  0.00    +0.000 A 
ATOM     24  C   UNL     1      45.088   7.701  11.870  0.00  0.00    +0.000 A 
ATOM     25  S   UNL     1      43.956   6.560  11.299  0.00  0.00    +0.000 S 
ATOM     26  C   UNL     1      44.800   5.276  12.024  0.00  0.00    +0.000 A 
ATOM     27  N   UNL     1      44.342   3.996  11.932  0.00  0.00    +0.000 NA
ATOM     28  C   UNL     1      45.067   3.123  12.546  0.00  0.00    +0.000 A 
ATOM     29  N   UNL     1      46.215   3.409  13.241  0.00  0.00    +0.000 N 
ATOM     30  C   UNL     1      46.728   4.678  13.340  0.00  0.00    +0.000 A 
ATOM     31  O   UNL     1      47.772   4.896  13.944  0.00  0.00    +0.000 OA
ATOM     32  C   UNL     1      45.943   5.707  12.678  0.00  0.00    +0.000 A 
ATOM     33  H   UNL     1      46.742   2.675  13.690  0.00  0.00    +0.000 HD
ENDBRANCH  20  23
ENDBRANCH  18  19
ENDBRANCH   4  18
TORSDOF 7
ENDMDL
MODEL 4
REMARK VINA RESULT:    -6.612      2.764      7.599
REMARK INTER + INTRA:         -10.625
REMARK INTER:                  -9.372
REMARK INTRA:                  -1.253
REMARK UNBOUND:                -1.308
REMARK  Name = 
REMARK  8 active torsions:
REMARK  status: ('A' for Active; 'I' for Inactive)
REMARK    1  A    between atoms: C_1  and  O_2
REMARK    2  A    between atoms: O_2  and  C_3
REMARK    3  A    between atoms: C_8  and  N_9
REMARK    4  A    between atoms: N_9  and  C_10
REMARK    5  A    between atoms: C_10  and  C_11
REMARK    6  A    between atoms: C_14  and  C_15
REMARK    7  A    between atoms: C_15  and  N_16
REMARK    8  A    between atoms: C_17  and  C_19
REMARK                            x       y       z     vdW  Elec       q    Type
REMARK                         _______ _______ _______ _____ _____    ______ ____
ROOT
ATOM      1  C   UNL     1      49.292   7.671  15.811  0.00  0.00    +0.000 A 
ATOM      2  C   UNL     1      48.359   8.681  15.585  0.00  0.00    +0.000 A 
ATOM      3  C   UNL     1      47.756   8.775  14.330  0.00  0.00    +0.000 A 
ATOM      4  C   UNL     1      48.088   7.863  13.326  0.00  0.00    +0.000 A 
ATOM      5  C   UNL     1      48.989   6.860  13.654  0.00  0.00    +0.000 A 
ATOM      6  N   UNL     1      49.593   6.748  14.859  0.00  0.00    +0.000 NA
ENDROOT
BRANCH   1   7
ATOM      7  C   UNL     1      50.073   7.611  17.117  0.00  0.00    +0.000 C 
BRANCH   7   8
ATOM      8  N   UNL     1      49.623   6.533  17.998  0.00  0.00    +0.000 N 
ATOM      9  H   UNL     1      49.590   6.797  18.976  0.00  0.00    +0.000 HD
BRANCH   8  15
ATOM     10  C   UNL     1      49.173   4.092  17.609  0.00  0.00    +0.000 A 
ATOM     11  C   UNL     1      49.754   2.830  17.450  0.00  0.00    +0.000 A 
ATOM     12  N   UNL     1      51.076   2.570  17.549  0.00  0.00    +0.000 NA
ATOM     13  C   UNL     1      51.863   3.628  17.808  0.00  0.00    +0.000 A 
ATOM     14  C   UNL     1      51.393   4.930  17.924  0.00  0.00    +0.000 A 
ATOM     15  C   UNL     1      50.022   5.202  17.788  0.00  0.00    +0.000 A 
BRANCH  10  17
ATOM     16  C   UNL     1      47.276   4.290  16.212  0.00  0.00    +0.000 C 
ATOM     17  O   UNL     1      47.818   4.273  17.531  0.00  0.00    +0.000 OA
ENDBRANCH  10  17
ENDBRANCH   8  15
ENDBRANCH   7   8
ENDBRANCH   1   7
BRANCH   4  18
ATOM     18  C   UNL     1      47.442   7.908  11.972  0.00  0.00    +0.000 C 
BRANCH  18  19
ATOM     19  N   UNL     1      46.756   6.672  11.707  0.00  0.00    +0.000 N 
ATOM     20  C   UNL     1      45.458   6.460  12.087  0.00  0.00    +0.000 C 
ATOM     21  O   UNL     1      44.793   7.335  12.632  0.00  0.00    +0.000 OA
ATOM     22  H   UNL     1      47.331   5.879  11.435  0.00  0.00    +0.000 HD
BRANCH  20  23
ATOM     23  C   UNL     1      44.888   5.148  11.752  0.00  0.00    +0.000 A 
ATOM     24  C   UNL     1      44.192   4.439  12.722  0.00  0.00    +0.000 A 
ATOM     25  S   UNL     1      43.550   2.961  12.159  0.00  0.00    +0.000 S 
ATOM     26  C   UNL     1      44.221   3.193  10.616  0.00  0.00    +0.000 A 
ATOM     27  N   UNL     1      44.060   2.261   9.635  0.00  0.00    +0.000 NA
ATOM     28  C   UNL     1      44.640   2.553   8.520  0.00  0.00    +0.000 A 
ATOM     29  N   UNL     1      45.362   3.696   8.289  0.00  0.00    +0.000 N 
ATOM     30  C   UNL     1      45.531   4.673   9.238  0.00  0.00    +0.000 A 
ATOM     31  O   UNL     1      46.158   5.697   8.990  0.00  0.00    +0.000 OA
ATOM     32  C   UNL     1      44.911   4.391  10.522  0.00  0.00    +0.000 A 
ATOM     33  H   UNL     1      45.782   3.868   7.388  0.00  0.00    +0.000 HD
ENDBRANCH  20  23
ENDBRANCH  18  19
ENDBRANCH   4  18
TORSDOF 7
ENDMDL
MODEL 5
REMARK VINA RESULT:    -6.569      2.170      2.923
REMARK INTER + INTRA:         -10.565
REMARK INTER:                  -9.596
REMARK INTRA:                  -0.969
REMARK UNBOUND:                -1.308
REMARK  Name = 
REMARK  8 active torsions:
REMARK  status: ('A' for Active; 'I' for Inactive)
REMARK    1  A    between atoms: C_1  and  O_2
REMARK    2  A    between atoms: O_2  and  C_3
REMARK    3  A    between atoms: C_8  and  N_9
REMARK    4  A    between atoms: N_9  and  C_10
REMARK    5  A    between atoms: C_10  and  C_11
REMARK    6  A    between atoms: C_14  and  C_15
REMARK    7  A    between atoms: C_15  and  N_16
REMARK    8  A    between atoms: C_17  and  C_19
REMARK                            x       y       z     vdW  Elec       q    Type
REMARK                         _______ _______ _______ _____ _____    ______ ____
ROOT
ATOM      1  C   UNL     1      44.943   5.938  12.053  0.00  0.00    +0.000 A 
ATOM      2  C   UNL     1      45.788   6.906  11.511  0.00  0.00    +0.000 A 
ATOM      3  C   UNL     1      46.990   7.192  12.159  0.00  0.00    +0.000 A 
ATOM      4  C   UNL     1      47.332   6.509  13.329  0.00  0.00    +0.000 A 
ATOM      5  C   UNL     1      46.456   5.527  13.768  0.00  0.00    +0.000 A 
ATOM      6  N   UNL     1      45.281   5.233  13.165  0.00  0.00    +0.000 NA
ENDROOT
BRANCH   1   7
ATOM      7  C   UNL     1      43.564   5.688  11.458  0.00  0.00    +0.000 C 
BRANCH   7   8
ATOM      8  N   UNL     1      43.609   5.389  10.027  0.00  0.00    +0.000 N 
ATOM      9  H   UNL     1      42.744   5.600   9.542  0.00  0.00    +0.000 HD
BRANCH   8  15
ATOM     10  C   UNL     1      44.087   2.923   9.987  0.00  0.00    +0.000 A 
ATOM     11  C   UNL     1      44.860   1.914   9.404  0.00  0.00    +0.000 A 
ATOM     12  N   UNL     1      45.842   2.118   8.498  0.00  0.00    +0.000 NA
ATOM     13  C   UNL     1      46.056   3.398   8.146  0.00  0.00    +0.000 A 
ATOM     14  C   UNL     1      45.305   4.466   8.621  0.00  0.00    +0.000 A 
ATOM     15  C   UNL     1      44.264   4.246   9.538  0.00  0.00    +0.000 A 
BRANCH  10  17
ATOM     16  C   UNL     1      43.628   2.222  12.198  0.00  0.00    +0.000 C 
ATOM     17  O   UNL     1      43.132   2.642  10.928  0.00  0.00    +0.000 OA
ENDBRANCH  10  17
ENDBRANCH   8  15
ENDBRANCH   7   8
ENDBRANCH   1   7
BRANCH   4  18
ATOM     18  C   UNL     1      48.628   6.763  14.042  0.00  0.00    +0.000 C 
BRANCH  18  19
ATOM     19  N   UNL     1      48.446   6.644  15.463  0.00  0.00    +0.000 N 
ATOM     20  C   UNL     1      48.985   7.542  16.346  0.00  0.00    +0.000 C 
ATOM     21  O   UNL     1      49.612   8.525  15.967  0.00  0.00    +0.000 OA
ATOM     22  H   UNL     1      48.101   5.753  15.809  0.00  0.00    +0.000 HD
BRANCH  20  23
ATOM     23  C   UNL     1      48.719   7.294  17.770  0.00  0.00    +0.000 A 
ATOM     24  C   UNL     1      48.332   8.348  18.586  0.00  0.00    +0.000 A 
ATOM     25  S   UNL     1      48.012   7.884  20.196  0.00  0.00    +0.000 S 
ATOM     26  C   UNL     1      48.426   6.269  19.873  0.00  0.00    +0.000 A 
ATOM     27  N   UNL     1      48.388   5.325  20.855  0.00  0.00    +0.000 NA
ATOM     28  C   UNL     1      48.748   4.145  20.478  0.00  0.00    +0.000 A 
ATOM     29  N   UNL     1      49.138   3.816  19.205  0.00  0.00    +0.000 N 
ATOM     30  C   UNL     1      49.169   4.727  18.178  0.00  0.00    +0.000 A 
ATOM     31  O   UNL     1      49.494   4.393  17.044  0.00  0.00    +0.000 OA
ATOM     32  C   UNL     1      48.787   6.079  18.549  0.00  0.00    +0.000 A 
ATOM     33  H   UNL     1      49.398   2.869  18.973  0.00  0.00    +0.000 HD
ENDBRANCH  20  23
ENDBRANCH  18  19
ENDBRANCH   4  18
TORSDOF 7
ENDMDL
MODEL 6
REMARK VINA RESULT:    -6.553      2.631      7.442
REMARK INTER + INTRA:         -10.542
REMARK INTER:                  -9.038
REMARK INTRA:                  -1.503
REMARK UNBOUND:                -1.308
REMARK  Name = 
REMARK  8 active torsions:
REMARK  status: ('A' for Active; 'I' for Inactive)
REMARK    1  A    between atoms: C_1  and  O_2
REMARK    2  A    between atoms: O_2  and  C_3
REMARK    3  A    between atoms: C_8  and  N_9
REMARK    4  A    between atoms: N_9  and  C_10
REMARK    5  A    between atoms: C_10  and  C_11
REMARK    6  A    between atoms: C_14  and  C_15
REMARK    7  A    between atoms: C_15  and  N_16
REMARK    8  A    between atoms: C_17  and  C_19
REMARK                            x       y       z     vdW  Elec       q    Type
REMARK                         _______ _______ _______ _____ _____    ______ ____
ROOT
ATOM      1  C   UNL     1      50.695   6.932  17.658  0.00  0.00    +0.000 A 
ATOM      2  C   UNL     1      51.343   7.068  16.432  0.00  0.00    +0.000 A 
ATOM      3  C   UNL     1      50.629   7.571  15.343  0.00  0.00    +0.000 A 
ATOM      4  C   UNL     1      49.288   7.933  15.495  0.00  0.00    +0.000 A 
ATOM      5  C   UNL     1      48.739   7.811  16.763  0.00  0.00    +0.000 A 
ATOM      6  N   UNL     1      49.404   7.320  17.834  0.00  0.00    +0.000 NA
ENDROOT
BRANCH   1   7
ATOM      7  C   UNL     1      51.392   6.264  18.836  0.00  0.00    +0.000 C 
BRANCH   7   8
ATOM      8  N   UNL     1      50.733   5.029  19.260  0.00  0.00    +0.000 N 
ATOM      9  H   UNL     1      50.981   4.739  20.199  0.00  0.00    +0.000 HD
BRANCH   8  15
ATOM     10  C   UNL     1      49.316   3.497  17.859  0.00  0.00    +0.000 A 
ATOM     11  C   UNL     1      49.323   2.385  17.011  0.00  0.00    +0.000 A 
ATOM     12  N   UNL     1      50.415   1.649  16.711  0.00  0.00    +0.000 NA
ATOM     13  C   UNL     1      51.566   2.051  17.278  0.00  0.00    +0.000 A 
ATOM     14  C   UNL     1      51.677   3.175  18.086  0.00  0.00    +0.000 A 
ATOM     15  C   UNL     1      50.546   3.957  18.371  0.00  0.00    +0.000 A 
BRANCH  10  17
ATOM     16  C   UNL     1      47.256   4.334  17.056  0.00  0.00    +0.000 C 
ATOM     17  O   UNL     1      48.161   4.173  18.148  0.00  0.00    +0.000 OA
ENDBRANCH  10  17
ENDBRANCH   8  15
ENDBRANCH   7   8
ENDBRANCH   1   7
BRANCH   4  18
ATOM     18  C   UNL     1      48.491   8.506  14.360  0.00  0.00    +0.000 C 
BRANCH  18  19
ATOM     19  N   UNL     1      47.452   7.592  13.969  0.00  0.00    +0.000 N 
ATOM     20  C   UNL     1      47.702   6.489  13.195  0.00  0.00    +0.000 C 
ATOM     21  O   UNL     1      48.837   6.196  12.835  0.00  0.00    +0.000 OA
ATOM     22  H   UNL     1      46.494   7.908  14.090  0.00  0.00    +0.000 HD
BRANCH  20  23
ATOM     23  C   UNL     1      46.543   5.646  12.872  0.00  0.00    +0.000 A 
ATOM     24  C   UNL     1      46.601   4.281  13.121  0.00  0.00    +0.000 A 
ATOM     25  S   UNL     1      45.158   3.455  12.738  0.00  0.00    +0.000 S 
ATOM     26  C   UNL     1      44.422   4.881  12.181  0.00  0.00    +0.000 A 
ATOM     27  N   UNL     1      43.154   4.866  11.684  0.00  0.00    +0.000 NA
ATOM     28  C   UNL     1      42.726   6.013  11.276  0.00  0.00    +0.000 A 
ATOM     29  N   UNL     1      43.447   7.180  11.325  0.00  0.00    +0.000 N 
ATOM     30  C   UNL     1      44.718   7.247  11.839  0.00  0.00    +0.000 A 
ATOM     31  O   UNL     1      45.324   8.312  11.896  0.00  0.00    +0.000 OA
ATOM     32  C   UNL     1      45.258   5.979  12.302  0.00  0.00    +0.000 A 
ATOM     33  H   UNL     1      43.049   8.047  10.998  0.00  0.00    +0.000 HD
ENDBRANCH  20  23
ENDBRANCH  18  19
ENDBRANCH   4  18
TORSDOF 7
ENDMDL
MODEL 7
REMARK VINA RESULT:    -6.453      2.923      7.496
REMARK INTER + INTRA:         -10.401
REMARK INTER:                  -8.976
REMARK INTRA:                  -1.425
REMARK UNBOUND:                -1.308
REMARK  Name = 
REMARK  8 active torsions:
REMARK  status: ('A' for Active; 'I' for Inactive)
REMARK    1  A    between atoms: C_1  and  O_2
REMARK    2  A    between atoms: O_2  and  C_3
REMARK    3  A    between atoms: C_8  and  N_9
REMARK    4  A    between atoms: N_9  and  C_10
REMARK    5  A    between atoms: C_10  and  C_11
REMARK    6  A    between atoms: C_14  and  C_15
REMARK    7  A    between atoms: C_15  and  N_16
REMARK    8  A    between atoms: C_17  and  C_19
REMARK                            x       y       z     vdW  Elec       q    Type
REMARK                         _______ _______ _______ _____ _____    ______ ____
ROOT
ATOM      1  C   UNL     1      49.568   8.360  15.462  0.00  0.00    +0.000 A 
ATOM      2  C   UNL     1      50.251   7.697  14.444  0.00  0.00    +0.000 A 
ATOM      3  C   UNL     1      49.639   7.565  13.197  0.00  0.00    +0.000 A 
ATOM      4  C   UNL     1      48.365   8.096  12.984  0.00  0.00    +0.000 A 
ATOM      5  C   UNL     1      47.781   8.783  14.038  0.00  0.00    +0.000 A 
ATOM      6  N   UNL     1      48.347   8.921  15.259  0.00  0.00    +0.000 NA
ENDROOT
BRANCH   1   7
ATOM      7  C   UNL     1      50.136   8.412  16.874  0.00  0.00    +0.000 C 
BRANCH   7   8
ATOM      8  N   UNL     1      50.189   7.098  17.514  0.00  0.00    +0.000 N 
ATOM      9  H   UNL     1      51.000   6.550  17.248  0.00  0.00    +0.000 HD
BRANCH   8  15
ATOM     10  C   UNL     1      48.049   6.519  18.697  0.00  0.00    +0.000 A 
ATOM     11  C   UNL     1      46.975   5.625  18.753  0.00  0.00    +0.000 A 
ATOM     12  N   UNL     1      46.845   4.524  17.982  0.00  0.00    +0.000 NA
ATOM     13  C   UNL     1      47.835   4.310  17.097  0.00  0.00    +0.000 A 
ATOM     14  C   UNL     1      48.913   5.167  16.921  0.00  0.00    +0.000 A 
ATOM     15  C   UNL     1      49.028   6.329  17.702  0.00  0.00    +0.000 A 
BRANCH  10  17
ATOM     16  C   UNL     1      47.302   8.707  19.196  0.00  0.00    +0.000 C 
ATOM     17  O   UNL     1      48.131   7.597  19.538  0.00  0.00    +0.000 OA
ENDBRANCH  10  17
ENDBRANCH   8  15
ENDBRANCH   7   8
ENDBRANCH   1   7
BRANCH   4  18
ATOM     18  C   UNL     1      47.683   8.003  11.650  0.00  0.00    +0.000 C 
BRANCH  18  19
ATOM     19  N   UNL     1      46.954   6.768  11.549  0.00  0.00    +0.000 N 
ATOM     20  C   UNL     1      45.589   6.714  11.655  0.00  0.00    +0.000 C 
ATOM     21  O   UNL     1      44.911   7.727  11.792  0.00  0.00    +0.000 OA
ATOM     22  H   UNL     1      47.493   5.910  11.627  0.00  0.00    +0.000 HD
BRANCH  20  23
ATOM     23  C   UNL     1      44.979   5.383  11.535  0.00  0.00    +0.000 A 
ATOM     24  C   UNL     1      44.298   4.845  12.618  0.00  0.00    +0.000 A 
ATOM     25  S   UNL     1      43.606   3.318  12.300  0.00  0.00    +0.000 S 
ATOM     26  C   UNL     1      44.234   3.299  10.721  0.00  0.00    +0.000 A 
ATOM     27  N   UNL     1      44.021   2.237   9.895  0.00  0.00    +0.000 NA
ATOM     28  C   UNL     1      44.572   2.344   8.733  0.00  0.00    +0.000 A 
ATOM     29  N   UNL     1      45.313   3.421   8.315  0.00  0.00    +0.000 N 
ATOM     30  C   UNL     1      45.533   4.523   9.103  0.00  0.00    +0.000 A 
ATOM     31  O   UNL     1      46.175   5.482   8.689  0.00  0.00    +0.000 OA
ATOM     32  C   UNL     1      44.947   4.451  10.432  0.00  0.00    +0.000 A 
ATOM     33  H   UNL     1      45.708   3.446   7.387  0.00  0.00    +0.000 HD
ENDBRANCH  20  23
ENDBRANCH  18  19
ENDBRANCH   4  18
TORSDOF 7
ENDMDL
MODEL 8
REMARK VINA RESULT:    -6.226      1.811      2.120
REMARK INTER + INTRA:         -10.081
REMARK INTER:                  -8.908
REMARK INTRA:                  -1.173
REMARK UNBOUND:                -1.308
REMARK  Name = 
REMARK  8 active torsions:
REMARK  status: ('A' for Active; 'I' for Inactive)
REMARK    1  A    between atoms: C_1  and  O_2
REMARK    2  A    between atoms: O_2  and  C_3
REMARK    3  A    between atoms: C_8  and  N_9
REMARK    4  A    between atoms: N_9  and  C_10
REMARK    5  A    between atoms: C_10  and  C_11
REMARK    6  A    between atoms: C_14  and  C_15
REMARK    7  A    between atoms: C_15  and  N_16
REMARK    8  A    between atoms: C_17  and  C_19
REMARK                            x       y       z     vdW  Elec       q    Type
REMARK                         _______ _______ _______ _____ _____    ______ ____
ROOT
ATOM      1  C   UNL     1      46.061   7.348  11.963  0.00  0.00    +0.000 A 
ATOM      2  C   UNL     1      47.354   6.847  11.820  0.00  0.00    +0.000 A 
ATOM      3  C   UNL     1      48.370   7.363  12.625  0.00  0.00    +0.000 A 
ATOM      4  C   UNL     1      48.083   8.363  13.558  0.00  0.00    +0.000 A 
ATOM      5  C   UNL     1      46.759   8.766  13.666  0.00  0.00    +0.000 A 
ATOM      6  N   UNL     1      45.756   8.288  12.895  0.00  0.00    +0.000 NA
ENDROOT
BRANCH   1   7
ATOM      7  C   UNL     1      44.950   6.913  11.017  0.00  0.00    +0.000 C 
BRANCH   7   8
ATOM      8  N   UNL     1      45.430   6.061   9.930  0.00  0.00    +0.000 N 
ATOM      9  H   UNL     1      45.476   6.534   9.034  0.00  0.00    +0.000 HD
BRANCH   8  15
ATOM     10  C   UNL     1      45.208   3.873   8.713  0.00  0.00    +0.000 A 
ATOM     11  C   UNL     1      44.729   2.561   8.791  0.00  0.00    +0.000 A 
ATOM     12  N   UNL     1      44.035   2.052   9.831  0.00  0.00    +0.000 NA
ATOM     13  C   UNL     1      43.817   2.894  10.856  0.00  0.00    +0.000 A 
ATOM     14  C   UNL     1      44.300   4.196  10.904  0.00  0.00    +0.000 A 
ATOM     15  C   UNL     1      45.049   4.712   9.834  0.00  0.00    +0.000 A 
BRANCH  10  17
ATOM     16  C   UNL     1      46.651   3.356   6.912  0.00  0.00    +0.000 C 
ATOM     17  O   UNL     1      45.874   4.330   7.607  0.00  0.00    +0.000 OA
ENDBRANCH  10  17
ENDBRANCH   8  15
ENDBRANCH   7   8
ENDBRANCH   1   7
BRANCH   4  18
ATOM     18  C   UNL     1      49.138   8.924  14.465  0.00  0.00    +0.000 C 
BRANCH  18  19
ATOM     19  N   UNL     1      49.259   8.116  15.648  0.00  0.00    +0.000 N 
ATOM     20  C   UNL     1      48.622   8.434  16.818  0.00  0.00    +0.000 C 
ATOM     21  O   UNL     1      47.873   9.401  16.904  0.00  0.00    +0.000 OA
ATOM     22  H   UNL     1      50.010   7.431  15.660  0.00  0.00    +0.000 HD
BRANCH  20  23
ATOM     23  C   UNL     1      48.839   7.518  17.946  0.00  0.00    +0.000 A 
ATOM     24  C   UNL     1      49.173   8.035  19.191  0.00  0.00    +0.000 A 
ATOM     25  S   UNL     1      49.339   6.846  20.403  0.00  0.00    +0.000 S 
ATOM     26  C   UNL     1      49.021   5.595  19.299  0.00  0.00    +0.000 A 
ATOM     27  N   UNL     1      49.031   4.291  19.695  0.00  0.00    +0.000 NA
ATOM     28  C   UNL     1      48.795   3.444  18.751  0.00  0.00    +0.000 A 
ATOM     29  N   UNL     1      48.542   3.778  17.444  0.00  0.00    +0.000 N 
ATOM     30  C   UNL     1      48.498   5.077  17.004  0.00  0.00    +0.000 A 
ATOM     31  O   UNL     1      48.240   5.343  15.836  0.00  0.00    +0.000 OA
ATOM     32  C   UNL     1      48.772   6.077  18.024  0.00  0.00    +0.000 A 
ATOM     33  H   UNL     1      48.355   3.064  16.756  0.00  0.00    +0.000 HD
ENDBRANCH  20  23
ENDBRANCH  18  19
ENDBRANCH   4  18
TORSDOF 7
ENDMDL
MODEL 9
REMARK VINA RESULT:    -6.223      3.619      5.367
REMARK INTER + INTRA:         -10.078
REMARK INTER:                  -9.020
REMARK INTRA:                  -1.058
REMARK UNBOUND:                -1.308
REMARK  Name = 
REMARK  8 active torsions:
REMARK  status: ('A' for Active; 'I' for Inactive)
REMARK    1  A    between atoms: C_1  and  O_2
REMARK    2  A    between atoms: O_2  and  C_3
REMARK    3  A    between atoms: C_8  and  N_9
REMARK    4  A    between atoms: N_9  and  C_10
REMARK    5  A    between atoms: C_10  and  C_11
REMARK    6  A    between atoms: C_14  and  C_15
REMARK    7  A    between atoms: C_15  and  N_16
REMARK    8  A    between atoms: C_17  and  C_19
REMARK                            x       y       z     vdW  Elec       q    Type
REMARK                         _______ _______ _______ _____ _____    ______ ____
ROOT
ATOM      1  C   UNL     1      44.354   9.006  11.656  0.00  0.00    +0.000 A 
ATOM      2  C   UNL     1      43.787   7.857  11.107  0.00  0.00    +0.000 A 
ATOM      3  C   UNL     1      44.317   6.613  11.450  0.00  0.00    +0.000 A 
ATOM      4  C   UNL     1      45.396   6.533  12.334  0.00  0.00    +0.000 A 
ATOM      5  C   UNL     1      45.864   7.724  12.871  0.00  0.00    +0.000 A 
ATOM      6  N   UNL     1      45.374   8.944  12.551  0.00  0.00    +0.000 NA
ENDROOT
BRANCH   1   7
ATOM      7  C   UNL     1      43.898  10.388  11.208  0.00  0.00    +0.000 C 
BRANCH   7   8
ATOM      8  N   UNL     1      42.967  11.012  12.148  0.00  0.00    +0.000 N 
ATOM      9  H   UNL     1      43.110  10.726  13.109  0.00  0.00    +0.000 HD
BRANCH   8  15
ATOM     10  C   UNL     1      40.642  11.845  12.613  0.00  0.00    +0.000 A 
ATOM     11  C   UNL     1      39.332  11.918  12.129  0.00  0.00    +0.000 A 
ATOM     12  N   UNL     1      38.897  11.343  10.987  0.00  0.00    +0.000 NA
ATOM     13  C   UNL     1      39.822  10.669  10.282  0.00  0.00    +0.000 A 
ATOM     14  C   UNL     1      41.160  10.586  10.644  0.00  0.00    +0.000 A 
ATOM     15  C   UNL     1      41.616  11.212  11.816  0.00  0.00    +0.000 A 
BRANCH  10  17
ATOM     16  C   UNL     1      40.000  12.412  14.817  0.00  0.00    +0.000 C 
ATOM     17  O   UNL     1      41.002  12.423  13.801  0.00  0.00    +0.000 OA
ENDBRANCH  10  17
ENDBRANCH   8  15
ENDBRANCH   7   8
ENDBRANCH   1   7
BRANCH   4  18
ATOM     18  C   UNL     1      45.977   5.215  12.755  0.00  0.00    +0.000 C 
BRANCH  18  19
ATOM     19  N   UNL     1      46.550   5.321  14.070  0.00  0.00    +0.000 N 
ATOM     20  C   UNL     1      47.132   4.255  14.701  0.00  0.00    +0.000 C 
ATOM     21  O   UNL     1      47.241   3.161  14.157  0.00  0.00    +0.000 OA
ATOM     22  H   UNL     1      46.307   6.147  14.610  0.00  0.00    +0.000 HD
BRANCH  20  23
ATOM     23  C   UNL     1      47.672   4.509  16.043  0.00  0.00    +0.000 A 
ATOM     24  C   UNL     1      47.266   3.713  17.105  0.00  0.00    +0.000 A 
ATOM     25  S   UNL     1      48.024   4.104  18.583  0.00  0.00    +0.000 S 
ATOM     26  C   UNL     1      48.884   5.383  17.868  0.00  0.00    +0.000 A 
ATOM     27  N   UNL     1      49.723   6.163  18.606  0.00  0.00    +0.000 NA
ATOM     28  C   UNL     1      50.295   7.110  17.943  0.00  0.00    +0.000 A 
ATOM     29  N   UNL     1      50.112   7.349  16.605  0.00  0.00    +0.000 N 
ATOM     30  C   UNL     1      49.296   6.577  15.816  0.00  0.00    +0.000 A 
ATOM     31  O   UNL     1      49.177   6.799  14.616  0.00  0.00    +0.000 OA
ATOM     32  C   UNL     1      48.613   5.500  16.514  0.00  0.00    +0.000 A 
ATOM     33  H   UNL     1      50.599   8.103  16.144  0.00  0.00    +0.000 HD
ENDBRANCH  20  23
ENDBRANCH  18  19
ENDBRANCH   4  18
TORSDOF 7
ENDMDL
