MODEL 1
REMARK VINA RESULT:    -8.374      0.000      0.000
REMARK INTER + INTRA:         -10.982
REMARK INTER:                 -10.333
REMARK INTRA:                  -0.650
REMARK UNBOUND:                -0.650
REMARK  Name = 
REMARK  4 active torsions:
REMARK  status: ('A' for Active; 'I' for Inactive)
REMARK    1  A    between atoms: C_2  and  C_4
REMARK    2  A    between atoms: N_8  and  C_9
REMARK    3  A    between atoms: C_9  and  C_10
REMARK    4  A    between atoms: C_14  and  N_15
REMARK                            x       y       z     vdW  Elec       q    Type
REMARK                         _______ _______ _______ _____ _____    ______ ____
ROOT
ATOM      1  C   UNL     1      46.609   2.374   7.408  0.00  0.00    +0.000 A 
ATOM      2  C   UNL     1      45.910   1.763   8.441  0.00  0.00    +0.000 A 
ATOM      3  C   UNL     1      45.030   2.522   9.210  0.00  0.00    +0.000 A 
ATOM      4  C   UNL     1      44.877   3.882   8.948  0.00  0.00    +0.000 A 
ATOM      5  N   UNL     1      43.973   4.685   9.605  0.00  0.00    +0.000 N 
ATOM      6  N   UNL     1      45.571   4.491   7.968  0.00  0.00    +0.000 NA
ATOM      7  C   UNL     1      46.424   3.736   7.223  0.00  0.00    +0.000 A 
ATOM      8  H   UNL     1      44.082   5.643   9.286  0.00  0.00    +0.000 HD
ENDROOT
BRANCH   1  10
ATOM      9  N   UNL     1      48.693   2.262   6.174  0.00  0.00    +0.000 N 
ATOM     10  C   UNL     1      47.524   1.639   6.514  0.00  0.00    +0.000 C 
ATOM     11  O   UNL     1      47.267   0.509   6.122  0.00  0.00    +0.000 OA
ATOM     12  H   UNL     1      49.359   1.710   5.648  0.00  0.00    +0.000 HD
ATOM     13  H   UNL     1      49.047   3.067   6.669  0.00  0.00    +0.000 HD
ENDBRANCH   1  10
BRANCH   5  14
ATOM     14  C   UNL     1      43.657   4.521  11.008  0.00  0.00    +0.000 C 
BRANCH  14  15
ATOM     15  C   UNL     1      44.796   4.773  11.961  0.00  0.00    +0.000 A 
ATOM     16  C   UNL     1      45.252   3.690  12.712  0.00  0.00    +0.000 A 
ATOM     17  N   UNL     1      46.236   3.753  13.627  0.00  0.00    +0.000 NA
ATOM     18  C   UNL     1      46.800   4.968  13.796  0.00  0.00    +0.000 A 
ATOM     19  C   UNL     1      46.463   6.137  13.100  0.00  0.00    +0.000 A 
ATOM     20  C   UNL     1      45.420   6.014  12.178  0.00  0.00    +0.000 A 
BRANCH  19  21
ATOM     21  N   UNL     1      47.146   7.317  13.357  0.00  0.00    +0.000 N 
ATOM     22  C   UNL     1      48.243   7.390  14.333  0.00  0.00    +0.000 C 
ATOM     23  C   UNL     1      49.307   8.385  13.837  0.00  0.00    +0.000 C 
ATOM     24  S   UNL     1      48.659  10.078  13.558  0.00  0.00    +0.000 S 
ATOM     25  C   UNL     1      47.196   9.638  12.555  0.00  0.00    +0.000 C 
ATOM     26  C   UNL     1      46.355   8.555  13.232  0.00  0.00    +0.000 C 
ENDBRANCH  19  21
ENDBRANCH  14  15
ENDBRANCH   5  14
TORSDOF 4
ENDMDL
MODEL 2
REMARK VINA RESULT:    -7.323      1.638      2.416
REMARK INTER + INTRA:          -9.685
REMARK INTER:                  -9.208
REMARK INTRA:                  -0.477
REMARK UNBOUND:                -0.650
REMARK  Name = 
REMARK  4 active torsions:
REMARK  status: ('A' for Active; 'I' for Inactive)
REMARK    1  A    between atoms: C_2  and  C_4
REMARK    2  A    between atoms: N_8  and  C_9
REMARK    3  A    between atoms: C_9  and  C_10
REMARK    4  A    between atoms: C_14  and  N_15
REMARK                            x       y       z     vdW  Elec       q    Type
REMARK                         _______ _______ _______ _____ _____    ______ ____
ROOT
ATOM      1  C   UNL     1      46.904   2.091   6.812  0.00  0.00    +0.000 A 
ATOM      2  C   UNL     1      46.459   3.359   7.162  0.00  0.00    +0.000 A 
ATOM      3  C   UNL     1      45.720   3.522   8.333  0.00  0.00    +0.000 A 
ATOM      4  C   UNL     1      45.422   2.415   9.123  0.00  0.00    +0.000 A 
ATOM      5  N   UNL     1      44.769   2.499  10.332  0.00  0.00    +0.000 N 
ATOM      6  N   UNL     1      45.823   1.177   8.778  0.00  0.00    +0.000 NA
ATOM      7  C   UNL     1      46.546   1.034   7.635  0.00  0.00    +0.000 A 
ATOM      8  H   UNL     1      44.615   1.563  10.695  0.00  0.00    +0.000 HD
ENDROOT
BRANCH   1  10
ATOM      9  N   UNL     1      48.242   2.923   4.969  0.00  0.00    +0.000 N 
ATOM     10  C   UNL     1      47.730   1.833   5.618  0.00  0.00    +0.000 C 
ATOM     11  O   UNL     1      47.978   0.695   5.244  0.00  0.00    +0.000 OA
ATOM     12  H   UNL     1      48.892   2.733   4.216  0.00  0.00    +0.000 HD
ATOM     13  H   UNL     1      48.271   3.842   5.385  0.00  0.00    +0.000 HD
ENDBRANCH   1  10
BRANCH   5  14
ATOM     14  C   UNL     1      43.710   3.453  10.584  0.00  0.00    +0.000 C 
BRANCH  14  15
ATOM     15  C   UNL     1      44.161   4.806  11.070  0.00  0.00    +0.000 A 
ATOM     16  C   UNL     1      43.238   5.849  11.003  0.00  0.00    +0.000 A 
ATOM     17  N   UNL     1      43.490   7.119  11.366  0.00  0.00    +0.000 NA
ATOM     18  C   UNL     1      44.737   7.359  11.829  0.00  0.00    +0.000 A 
ATOM     19  C   UNL     1      45.758   6.410  11.973  0.00  0.00    +0.000 A 
ATOM     20  C   UNL     1      45.443   5.113  11.560  0.00  0.00    +0.000 A 
BRANCH  19  21
ATOM     21  N   UNL     1      46.988   6.790  12.489  0.00  0.00    +0.000 N 
ATOM     22  C   UNL     1      47.937   7.613  11.725  0.00  0.00    +0.000 C 
ATOM     23  C   UNL     1      48.685   8.559  12.682  0.00  0.00    +0.000 C 
ATOM     24  S   UNL     1      49.602   7.688  14.010  0.00  0.00    +0.000 S 
ATOM     25  C   UNL     1      48.259   6.588  14.581  0.00  0.00    +0.000 C 
ATOM     26  C   UNL     1      47.617   5.833  13.417  0.00  0.00    +0.000 C 
ENDBRANCH  19  21
ENDBRANCH  14  15
ENDBRANCH   5  14
TORSDOF 4
ENDMDL
MODEL 3
REMARK VINA RESULT:    -7.153      2.301      2.811
REMARK INTER + INTRA:          -9.475
REMARK INTER:                  -8.894
REMARK INTRA:                  -0.582
REMARK UNBOUND:                -0.650
REMARK  Name = 
REMARK  4 active torsions:
REMARK  status: ('A' for Active; 'I' for Inactive)
REMARK    1  A    between atoms: C_2  and  C_4
REMARK    2  A    between atoms: N_8  and  C_9
REMARK    3  A    between atoms: C_9  and  C_10
REMARK    4  A    between atoms: C_14  and  N_15
REMARK                            x       y       z     vdW  Elec       q    Type
REMARK                         _______ _______ _______ _____ _____    ______ ____
ROOT
ATOM      1  C   UNL     1      46.796   2.196   6.895  0.00  0.00    +0.000 A 
ATOM      2  C   UNL     1      46.521   3.509   7.253  0.00  0.00    +0.000 A 
ATOM      3  C   UNL     1      45.818   3.760   8.430  0.00  0.00    +0.000 A 
ATOM      4  C   UNL     1      45.383   2.697   9.218  0.00  0.00    +0.000 A 
ATOM      5  N   UNL     1      44.755   2.859  10.432  0.00  0.00    +0.000 N 
ATOM      6  N   UNL     1      45.618   1.419   8.865  0.00  0.00    +0.000 NA
ATOM      7  C   UNL     1      46.309   1.189   7.716  0.00  0.00    +0.000 A 
ATOM      8  H   UNL     1      44.483   1.949  10.792  0.00  0.00    +0.000 HD
ENDROOT
BRANCH   1  10
ATOM      9  N   UNL     1      48.268   2.845   5.081  0.00  0.00    +0.000 N 
ATOM     10  C   UNL     1      47.574   1.838   5.693  0.00  0.00    +0.000 C 
ATOM     11  O   UNL     1      47.626   0.687   5.282  0.00  0.00    +0.000 OA
ATOM     12  H   UNL     1      48.882   2.571   4.324  0.00  0.00    +0.000 HD
ATOM     13  H   UNL     1      48.452   3.731   5.527  0.00  0.00    +0.000 HD
ENDBRANCH   1  10
BRANCH   5  14
ATOM     14  C   UNL     1      43.831   3.941  10.696  0.00  0.00    +0.000 C 
BRANCH  14  15
ATOM     15  C   UNL     1      44.419   5.136  11.400  0.00  0.00    +0.000 A 
ATOM     16  C   UNL     1      45.192   4.892  12.535  0.00  0.00    +0.000 A 
ATOM     17  N   UNL     1      45.760   5.846  13.294  0.00  0.00    +0.000 NA
ATOM     18  C   UNL     1      45.547   7.118  12.891  0.00  0.00    +0.000 A 
ATOM     19  C   UNL     1      44.814   7.513  11.764  0.00  0.00    +0.000 A 
ATOM     20  C   UNL     1      44.231   6.478  11.027  0.00  0.00    +0.000 A 
BRANCH  19  21
ATOM     21  N   UNL     1      44.697   8.859  11.451  0.00  0.00    +0.000 N 
ATOM     22  C   UNL     1      45.382   9.904  12.224  0.00  0.00    +0.000 C 
ATOM     23  C   UNL     1      45.818  11.041  11.282  0.00  0.00    +0.000 C 
ATOM     24  S   UNL     1      44.428  11.808  10.363  0.00  0.00    +0.000 S 
ATOM     25  C   UNL     1      43.643  10.277   9.746  0.00  0.00    +0.000 C 
ATOM     26  C   UNL     1      43.405   9.273  10.873  0.00  0.00    +0.000 C 
ENDBRANCH  19  21
ENDBRANCH  14  15
ENDBRANCH   5  14
TORSDOF 4
ENDMDL
MODEL 4
REMARK VINA RESULT:    -6.643      3.545      7.031
REMARK INTER + INTRA:          -8.846
REMARK INTER:                  -8.184
REMARK INTRA:                  -0.663
REMARK UNBOUND:                -0.650
REMARK  Name = 
REMARK  4 active torsions:
REMARK  status: ('A' for Active; 'I' for Inactive)
REMARK    1  A    between atoms: C_2  and  C_4
REMARK    2  A    between atoms: N_8  and  C_9
REMARK    3  A    between atoms: C_9  and  C_10
REMARK    4  A    between atoms: C_14  and  N_15
REMARK                            x       y       z     vdW  Elec       q    Type
REMARK                         _______ _______ _______ _____ _____    ______ ____
ROOT
ATOM      1  C   UNL     1      49.159   8.076  12.254  0.00  0.00    +0.000 A 
ATOM      2  C   UNL     1      47.903   8.587  11.957  0.00  0.00    +0.000 A 
ATOM      3  C   UNL     1      46.769   7.887  12.365  0.00  0.00    +0.000 A 
ATOM      4  C   UNL     1      46.908   6.679  13.045  0.00  0.00    +0.000 A 
ATOM      5  N   UNL     1      45.846   5.967  13.553  0.00  0.00    +0.000 N 
ATOM      6  N   UNL     1      48.121   6.160  13.313  0.00  0.00    +0.000 NA
ATOM      7  C   UNL     1      49.219   6.856  12.911  0.00  0.00    +0.000 A 
ATOM      8  H   UNL     1      46.186   5.098  13.954  0.00  0.00    +0.000 HD
ENDROOT
BRANCH   1  10
ATOM      9  N   UNL     1      50.511  10.088  12.260  0.00  0.00    +0.000 N 
ATOM     10  C   UNL     1      50.411   8.772  11.903  0.00  0.00    +0.000 C 
ATOM     11  O   UNL     1      51.334   8.191  11.348  0.00  0.00    +0.000 OA
ATOM     12  H   UNL     1      51.412  10.527  12.111  0.00  0.00    +0.000 HD
ATOM     13  H   UNL     1      49.891  10.521  12.928  0.00  0.00    +0.000 HD
ENDBRANCH   1  10
BRANCH   5  14
ATOM     14  C   UNL     1      44.565   5.891  12.884  0.00  0.00    +0.000 C 
BRANCH  14  15
ATOM     15  C   UNL     1      44.367   4.687  12.000  0.00  0.00    +0.000 A 
ATOM     16  C   UNL     1      43.410   3.753  12.396  0.00  0.00    +0.000 A 
ATOM     17  N   UNL     1      43.134   2.613  11.738  0.00  0.00    +0.000 NA
ATOM     18  C   UNL     1      43.853   2.398  10.615  0.00  0.00    +0.000 A 
ATOM     19  C   UNL     1      44.828   3.254  10.084  0.00  0.00    +0.000 A 
ATOM     20  C   UNL     1      45.085   4.412  10.823  0.00  0.00    +0.000 A 
BRANCH  19  21
ATOM     21  N   UNL     1      45.473   2.919   8.903  0.00  0.00    +0.000 N 
ATOM     22  C   UNL     1      45.640   3.878   7.802  0.00  0.00    +0.000 C 
ATOM     23  C   UNL     1      46.992   3.636   7.108  0.00  0.00    +0.000 C 
ATOM     24  S   UNL     1      47.182   1.939   6.438  0.00  0.00    +0.000 S 
ATOM     25  C   UNL     1      46.671   1.010   7.927  0.00  0.00    +0.000 C 
ATOM     26  C   UNL     1      45.336   1.514   8.474  0.00  0.00    +0.000 C 
ENDBRANCH  19  21
ENDBRANCH  14  15
ENDBRANCH   5  14
TORSDOF 4
ENDMDL
MODEL 5
REMARK VINA RESULT:    -6.567      4.242      7.871
REMARK INTER + INTRA:          -8.752
REMARK INTER:                  -8.190
REMARK INTRA:                  -0.563
REMARK UNBOUND:                -0.650
REMARK  Name = 
REMARK  4 active torsions:
REMARK  status: ('A' for Active; 'I' for Inactive)
REMARK    1  A    between atoms: C_2  and  C_4
REMARK    2  A    between atoms: N_8  and  C_9
REMARK    3  A    between atoms: C_9  and  C_10
REMARK    4  A    between atoms: C_14  and  N_15
REMARK                            x       y       z     vdW  Elec       q    Type
REMARK                         _______ _______ _______ _____ _____    ______ ____
ROOT
ATOM      1  C   UNL     1      48.558   4.372  16.966  0.00  0.00    +0.000 A 
ATOM      2  C   UNL     1      47.418   3.753  16.469  0.00  0.00    +0.000 A 
ATOM      3  C   UNL     1      46.782   4.293  15.352  0.00  0.00    +0.000 A 
ATOM      4  C   UNL     1      47.282   5.452  14.764  0.00  0.00    +0.000 A 
ATOM      5  N   UNL     1      46.763   6.004  13.615  0.00  0.00    +0.000 N 
ATOM      6  N   UNL     1      48.369   6.077  15.255  0.00  0.00    +0.000 NA
ATOM      7  C   UNL     1      48.981   5.536  16.342  0.00  0.00    +0.000 A 
ATOM      8  H   UNL     1      47.252   6.870  13.409  0.00  0.00    +0.000 HD
ENDROOT
BRANCH   1  10
ATOM      9  N   UNL     1      48.601   3.344  19.162  0.00  0.00    +0.000 N 
ATOM     10  C   UNL     1      49.322   3.844  18.112  0.00  0.00    +0.000 C 
ATOM     11  O   UNL     1      50.545   3.821  18.112  0.00  0.00    +0.000 OA
ATOM     12  H   UNL     1      49.131   2.889  19.894  0.00  0.00    +0.000 HD
ATOM     13  H   UNL     1      47.620   3.117  19.091  0.00  0.00    +0.000 HD
ENDBRANCH   1  10
BRANCH   5  14
ATOM     14  C   UNL     1      45.348   5.994  13.312  0.00  0.00    +0.000 C 
BRANCH  14  15
ATOM     15  C   UNL     1      44.891   4.891  12.393  0.00  0.00    +0.000 A 
ATOM     16  C   UNL     1      43.823   4.104  12.821  0.00  0.00    +0.000 A 
ATOM     17  N   UNL     1      43.316   3.063  12.137  0.00  0.00    +0.000 NA
ATOM     18  C   UNL     1      43.908   2.799  10.951  0.00  0.00    +0.000 A 
ATOM     19  C   UNL     1      44.971   3.514  10.385  0.00  0.00    +0.000 A 
ATOM     20  C   UNL     1      45.469   4.571  11.152  0.00  0.00    +0.000 A 
BRANCH  19  21
ATOM     21  N   UNL     1      45.467   3.147   9.142  0.00  0.00    +0.000 N 
ATOM     22  C   UNL     1      45.569   4.099   8.027  0.00  0.00    +0.000 C 
ATOM     23  C   UNL     1      46.823   3.784   7.193  0.00  0.00    +0.000 C 
ATOM     24  S   UNL     1      46.845   2.081   6.512  0.00  0.00    +0.000 S 
ATOM     25  C   UNL     1      46.445   1.177   8.049  0.00  0.00    +0.000 C 
ATOM     26  C   UNL     1      45.206   1.754   8.734  0.00  0.00    +0.000 C 
ENDBRANCH  19  21
ENDBRANCH  14  15
ENDBRANCH   5  14
TORSDOF 4
ENDMDL
MODEL 6
REMARK VINA RESULT:    -6.333      5.449      8.421
REMARK INTER + INTRA:          -8.463
REMARK INTER:                  -7.872
REMARK INTRA:                  -0.591
REMARK UNBOUND:                -0.650
REMARK  Name = 
REMARK  4 active torsions:
REMARK  status: ('A' for Active; 'I' for Inactive)
REMARK    1  A    between atoms: C_2  and  C_4
REMARK    2  A    between atoms: N_8  and  C_9
REMARK    3  A    between atoms: C_9  and  C_10
REMARK    4  A    between atoms: C_14  and  N_15
REMARK                            x       y       z     vdW  Elec       q    Type
REMARK                         _______ _______ _______ _____ _____    ______ ____
ROOT
ATOM      1  C   UNL     1      51.998   2.410  17.810  0.00  0.00    +0.000 A 
ATOM      2  C   UNL     1      51.394   3.547  18.330  0.00  0.00    +0.000 A 
ATOM      3  C   UNL     1      50.044   3.778  18.071  0.00  0.00    +0.000 A 
ATOM      4  C   UNL     1      49.326   2.883  17.282  0.00  0.00    +0.000 A 
ATOM      5  N   UNL     1      47.975   2.994  17.044  0.00  0.00    +0.000 N 
ATOM      6  N   UNL     1      49.910   1.793  16.748  0.00  0.00    +0.000 NA
ATOM      7  C   UNL     1      51.227   1.578  17.013  0.00  0.00    +0.000 A 
ATOM      8  H   UNL     1      47.687   2.264  16.400  0.00  0.00    +0.000 HD
ENDROOT
BRANCH   1  10
ATOM      9  N   UNL     1      53.658   0.803  18.546  0.00  0.00    +0.000 N 
ATOM     10  C   UNL     1      53.408   2.061  18.071  0.00  0.00    +0.000 C 
ATOM     11  O   UNL     1      54.316   2.847  17.841  0.00  0.00    +0.000 OA
ATOM     12  H   UNL     1      54.632   0.537  18.622  0.00  0.00    +0.000 HD
ATOM     13  H   UNL     1      52.977   0.059  18.507  0.00  0.00    +0.000 HD
ENDBRANCH   1  10
BRANCH   5  14
ATOM     14  C   UNL     1      47.311   4.270  16.886  0.00  0.00    +0.000 C 
BRANCH  14  15
ATOM     15  C   UNL     1      47.416   4.888  15.516  0.00  0.00    +0.000 A 
ATOM     16  C   UNL     1      48.412   5.844  15.320  0.00  0.00    +0.000 A 
ATOM     17  N   UNL     1      48.618   6.511  14.171  0.00  0.00    +0.000 NA
ATOM     18  C   UNL     1      47.784   6.199  13.156  0.00  0.00    +0.000 A 
ATOM     19  C   UNL     1      46.756   5.247  13.198  0.00  0.00    +0.000 A 
ATOM     20  C   UNL     1      46.577   4.602  14.425  0.00  0.00    +0.000 A 
BRANCH  19  21
ATOM     21  N   UNL     1      45.988   5.008  12.068  0.00  0.00    +0.000 N 
ATOM     22  C   UNL     1      45.772   6.032  11.037  0.00  0.00    +0.000 C 
ATOM     23  C   UNL     1      45.709   5.364   9.651  0.00  0.00    +0.000 C 
ATOM     24  S   UNL     1      44.391   4.097   9.504  0.00  0.00    +0.000 S 
ATOM     25  C   UNL     1      44.761   3.153  11.025  0.00  0.00    +0.000 C 
ATOM     26  C   UNL     1      44.864   4.070  12.244  0.00  0.00    +0.000 C 
ENDBRANCH  19  21
ENDBRANCH  14  15
ENDBRANCH   5  14
TORSDOF 4
ENDMDL
MODEL 7
REMARK VINA RESULT:    -6.004      4.429      6.584
REMARK INTER + INTRA:          -8.059
REMARK INTER:                  -7.422
REMARK INTRA:                  -0.637
REMARK UNBOUND:                -0.650
REMARK  Name = 
REMARK  4 active torsions:
REMARK  status: ('A' for Active; 'I' for Inactive)
REMARK    1  A    between atoms: C_2  and  C_4
REMARK    2  A    between atoms: N_8  and  C_9
REMARK    3  A    between atoms: C_9  and  C_10
REMARK    4  A    between atoms: C_14  and  N_15
REMARK                            x       y       z     vdW  Elec       q    Type
REMARK                         _______ _______ _______ _____ _____    ______ ____
ROOT
ATOM      1  C   UNL     1      44.539   4.352  11.531  0.00  0.00    +0.000 A 
ATOM      2  C   UNL     1      45.695   4.893  10.985  0.00  0.00    +0.000 A 
ATOM      3  C   UNL     1      46.212   6.073  11.517  0.00  0.00    +0.000 A 
ATOM      4  C   UNL     1      45.553   6.704  12.570  0.00  0.00    +0.000 A 
ATOM      5  N   UNL     1      46.037   7.826  13.204  0.00  0.00    +0.000 N 
ATOM      6  N   UNL     1      44.415   6.204  13.087  0.00  0.00    +0.000 NA
ATOM      7  C   UNL     1      43.926   5.050  12.560  0.00  0.00    +0.000 A 
ATOM      8  H   UNL     1      45.363   8.135  13.898  0.00  0.00    +0.000 HD
ENDROOT
BRANCH   1  10
ATOM      9  N   UNL     1      44.615   2.417  10.072  0.00  0.00    +0.000 N 
ATOM     10  C   UNL     1      43.949   3.083  11.063  0.00  0.00    +0.000 C 
ATOM     11  O   UNL     1      42.929   2.628  11.562  0.00  0.00    +0.000 OA
ATOM     12  H   UNL     1      44.262   1.498   9.833  0.00  0.00    +0.000 HD
ATOM     13  H   UNL     1      45.570   2.625   9.820  0.00  0.00    +0.000 HD
ENDBRANCH   1  10
BRANCH   5  14
ATOM     14  C   UNL     1      46.746   8.875  12.504  0.00  0.00    +0.000 C 
BRANCH  14  15
ATOM     15  C   UNL     1      45.900  10.036  12.051  0.00  0.00    +0.000 A 
ATOM     16  C   UNL     1      46.561  11.222  11.730  0.00  0.00    +0.000 A 
ATOM     17  N   UNL     1      45.953  12.356  11.341  0.00  0.00    +0.000 NA
ATOM     18  C   UNL     1      44.605  12.300  11.261  0.00  0.00    +0.000 A 
ATOM     19  C   UNL     1      43.811  11.177  11.530  0.00  0.00    +0.000 A 
ATOM     20  C   UNL     1      44.498  10.035  11.950  0.00  0.00    +0.000 A 
BRANCH  19  21
ATOM     21  N   UNL     1      42.434  11.253  11.381  0.00  0.00    +0.000 N 
ATOM     22  C   UNL     1      41.668  10.233  10.651  0.00  0.00    +0.000 C 
ATOM     23  C   UNL     1      40.296  10.040  11.323  0.00  0.00    +0.000 C 
ATOM     24  S   UNL     1      39.296  11.574  11.408  0.00  0.00    +0.000 S 
ATOM     25  C   UNL     1      40.572  12.684  12.101  0.00  0.00    +0.000 C 
ATOM     26  C   UNL     1      41.872  12.614  11.301  0.00  0.00    +0.000 C 
ENDBRANCH  19  21
ENDBRANCH  14  15
ENDBRANCH   5  14
TORSDOF 4
ENDMDL
MODEL 8
REMARK VINA RESULT:    -5.943      5.182      7.175
REMARK INTER + INTRA:          -7.983
REMARK INTER:                  -7.469
REMARK INTRA:                  -0.514
REMARK UNBOUND:                -0.650
REMARK  Name = 
REMARK  4 active torsions:
REMARK  status: ('A' for Active; 'I' for Inactive)
REMARK    1  A    between atoms: C_2  and  C_4
REMARK    2  A    between atoms: N_8  and  C_9
REMARK    3  A    between atoms: C_9  and  C_10
REMARK    4  A    between atoms: C_14  and  N_15
REMARK                            x       y       z     vdW  Elec       q    Type
REMARK                         _______ _______ _______ _____ _____    ______ ____
ROOT
ATOM      1  C   UNL     1      45.552   4.884  11.653  0.00  0.00    +0.000 A 
ATOM      2  C   UNL     1      46.209   5.801  12.462  0.00  0.00    +0.000 A 
ATOM      3  C   UNL     1      46.771   5.370  13.662  0.00  0.00    +0.000 A 
ATOM      4  C   UNL     1      46.648   4.036  14.044  0.00  0.00    +0.000 A 
ATOM      5  N   UNL     1      47.240   3.512  15.171  0.00  0.00    +0.000 N 
ATOM      6  N   UNL     1      45.988   3.145  13.281  0.00  0.00    +0.000 NA
ATOM      7  C   UNL     1      45.449   3.579  12.111  0.00  0.00    +0.000 A 
ATOM      8  H   UNL     1      46.965   2.540  15.272  0.00  0.00    +0.000 HD
ENDROOT
BRANCH   1  10
ATOM      9  N   UNL     1      43.614   5.415  10.295  0.00  0.00    +0.000 N 
ATOM     10  C   UNL     1      44.970   5.241  10.345  0.00  0.00    +0.000 C 
ATOM     11  O   UNL     1      45.670   5.410   9.356  0.00  0.00    +0.000 OA
ATOM     12  H   UNL     1      43.238   5.762   9.421  0.00  0.00    +0.000 HD
ATOM     13  H   UNL     1      43.048   5.533  11.122  0.00  0.00    +0.000 HD
ENDBRANCH   1  10
BRANCH   5  14
ATOM     14  C   UNL     1      47.373   4.259  16.404  0.00  0.00    +0.000 C 
BRANCH  14  15
ATOM     15  C   UNL     1      48.782   4.623  16.791  0.00  0.00    +0.000 A 
ATOM     16  C   UNL     1      49.149   5.964  16.682  0.00  0.00    +0.000 A 
ATOM     17  N   UNL     1      50.373   6.447  16.957  0.00  0.00    +0.000 NA
ATOM     18  C   UNL     1      51.282   5.538  17.371  0.00  0.00    +0.000 A 
ATOM     19  C   UNL     1      51.052   4.167  17.548  0.00  0.00    +0.000 A 
ATOM     20  C   UNL     1      49.768   3.720  17.227  0.00  0.00    +0.000 A 
BRANCH  19  21
ATOM     21  N   UNL     1      52.074   3.348  18.007  0.00  0.00    +0.000 N 
ATOM     22  C   UNL     1      52.098   1.903  17.744  0.00  0.00    +0.000 C 
ATOM     23  C   UNL     1      53.552   1.439  17.545  0.00  0.00    +0.000 C 
ATOM     24  S   UNL     1      54.640   1.791  18.978  0.00  0.00    +0.000 S 
ATOM     25  C   UNL     1      54.203   3.550  19.216  0.00  0.00    +0.000 C 
ATOM     26  C   UNL     1      52.689   3.748  19.287  0.00  0.00    +0.000 C 
ENDBRANCH  19  21
ENDBRANCH  14  15
ENDBRANCH   5  14
TORSDOF 4
ENDMDL
MODEL 9
REMARK VINA RESULT:    -5.914      4.706      7.533
REMARK INTER + INTRA:          -7.947
REMARK INTER:                  -7.354
REMARK INTRA:                  -0.593
REMARK UNBOUND:                -0.650
REMARK  Name = 
REMARK  4 active torsions:
REMARK  status: ('A' for Active; 'I' for Inactive)
REMARK    1  A    between atoms: C_2  and  C_4
REMARK    2  A    between atoms: N_8  and  C_9
REMARK    3  A    between atoms: C_9  and  C_10
REMARK    4  A    between atoms: C_14  and  N_15
REMARK                            x       y       z     vdW  Elec       q    Type
REMARK                         _______ _______ _______ _____ _____    ______ ____
ROOT
ATOM      1  C   UNL     1      48.601   4.512  18.264  0.00  0.00    +0.000 A 
ATOM      2  C   UNL     1      48.740   5.459  17.258  0.00  0.00    +0.000 A 
ATOM      3  C   UNL     1      48.066   5.276  16.053  0.00  0.00    +0.000 A 
ATOM      4  C   UNL     1      47.280   4.141  15.864  0.00  0.00    +0.000 A 
ATOM      5  N   UNL     1      46.520   3.922  14.738  0.00  0.00    +0.000 N 
ATOM      6  N   UNL     1      47.162   3.202  16.822  0.00  0.00    +0.000 NA
ATOM      7  C   UNL     1      47.823   3.397  17.995  0.00  0.00    +0.000 A 
ATOM      8  H   UNL     1      46.081   3.009  14.802  0.00  0.00    +0.000 HD
ENDROOT
BRANCH   1  10
ATOM      9  N   UNL     1      48.697   3.927  20.615  0.00  0.00    +0.000 N 
ATOM     10  C   UNL     1      49.239   4.648  19.587  0.00  0.00    +0.000 C 
ATOM     11  O   UNL     1      50.230   5.347  19.753  0.00  0.00    +0.000 OA
ATOM     12  H   UNL     1      49.204   3.944  21.492  0.00  0.00    +0.000 HD
ATOM     13  H   UNL     1      48.056   3.162  20.467  0.00  0.00    +0.000 HD
ENDBRANCH   1  10
BRANCH   5  14
ATOM     14  C   UNL     1      46.948   4.322  13.415  0.00  0.00    +0.000 C 
BRANCH  14  15
ATOM     15  C   UNL     1      46.135   5.416  12.774  0.00  0.00    +0.000 A 
ATOM     16  C   UNL     1      44.951   5.043  12.138  0.00  0.00    +0.000 A 
ATOM     17  N   UNL     1      44.129   5.890  11.493  0.00  0.00    +0.000 NA
ATOM     18  C   UNL     1      44.510   7.186  11.489  0.00  0.00    +0.000 A 
ATOM     19  C   UNL     1      45.656   7.709  12.103  0.00  0.00    +0.000 A 
ATOM     20  C   UNL     1      46.481   6.778  12.739  0.00  0.00    +0.000 A 
BRANCH  19  21
ATOM     21  N   UNL     1      45.912   9.071  12.042  0.00  0.00    +0.000 N 
ATOM     22  C   UNL     1      47.148   9.660  12.577  0.00  0.00    +0.000 C 
ATOM     23  C   UNL     1      47.581  10.842  11.691  0.00  0.00    +0.000 C 
ATOM     24  S   UNL     1      46.315  12.162  11.554  0.00  0.00    +0.000 S 
ATOM     25  C   UNL     1      44.880  11.108  11.139  0.00  0.00    +0.000 C 
ATOM     26  C   UNL     1      44.730   9.949  12.124  0.00  0.00    +0.000 C 
ENDBRANCH  19  21
ENDBRANCH  14  15
ENDBRANCH   5  14
TORSDOF 4
ENDMDL
