MODEL 1
REMARK VINA RESULT:    -6.928      0.000      0.000
REMARK INTER + INTRA:         -11.647
REMARK INTER:                  -9.763
REMARK INTRA:                  -1.884
REMARK UNBOUND:                -1.884
REMARK  Name = 
REMARK  9 active torsions:
REMARK  status: ('A' for Active; 'I' for Inactive)
REMARK    1  A    between atoms: C_1  and  C_2
REMARK    2  A    between atoms: C_7  and  C_8
REMARK    3  A    between atoms: C_8  and  N_9
REMARK    4  A    between atoms: N_9  and  C_10
REMARK    5  A    between atoms: N_9  and  C_11
REMARK    6  A    between atoms: C_11  and  C_12
REMARK    7  A    between atoms: C_15  and  C_16
REMARK    8  A    between atoms: C_16  and  N_17
REMARK    9  A    between atoms: C_18  and  C_20
REMARK                            x       y       z     vdW  Elec       q    Type
REMARK                         _______ _______ _______ _____ _____    ______ ____
ROOT
ATOM      1  C   UNL     1      49.087   7.902  16.229  0.00  0.00    +0.000 A 
ATOM      2  C   UNL     1      49.320   6.806  15.387  0.00  0.00    +0.000 A 
ATOM      3  C   UNL     1      48.846   6.803  14.072  0.00  0.00    +0.000 A 
ATOM      4  C   UNL     1      48.139   7.902  13.567  0.00  0.00    +0.000 A 
ATOM      5  C   UNL     1      47.902   8.996  14.408  0.00  0.00    +0.000 A 
ATOM      6  C   UNL     1      48.373   8.998  15.724  0.00  0.00    +0.000 A 
ENDROOT
BRANCH   1   7
ATOM      7  C   UNL     1      49.560   7.888  17.669  0.00  0.00    +0.000 C 
BRANCH   7   8
ATOM      8  N   UNL     1      48.551   7.405  18.632  0.00  0.00    +0.000 NA
ATOM      9  C   UNL     1      48.323   8.437  19.651  0.00  0.00    +0.000 C 
BRANCH   8  10
ATOM     10  C   UNL     1      48.964   6.130  19.253  0.00  0.00    +0.000 C 
BRANCH  10  17
ATOM     11  C   UNL     1      51.206   4.311  18.279  0.00  0.00    +0.000 C 
ATOM     12  C   UNL     1      49.773   4.110  17.882  0.00  0.00    +0.000 A 
ATOM     13  N   UNL     1      49.553   3.071  17.035  0.00  0.00    +0.000 NA
ATOM     14  C   UNL     1      48.280   2.822  16.658  0.00  0.00    +0.000 A 
ATOM     15  C   UNL     1      47.194   3.557  17.089  0.00  0.00    +0.000 A 
ATOM     16  C   UNL     1      47.433   4.627  17.941  0.00  0.00    +0.000 A 
ATOM     17  C   UNL     1      48.740   4.933  18.352  0.00  0.00    +0.000 A 
ENDBRANCH  10  17
ENDBRANCH   8  10
ENDBRANCH   7   8
ENDBRANCH   1   7
BRANCH   4  18
ATOM     18  C   UNL     1      47.585   7.886  12.164  0.00  0.00    +0.000 C 
BRANCH  18  19
ATOM     19  N   UNL     1      46.899   6.647  11.895  0.00  0.00    +0.000 N 
ATOM     20  C   UNL     1      45.542   6.533  12.056  0.00  0.00    +0.000 C 
ATOM     21  O   UNL     1      44.848   7.488  12.399  0.00  0.00    +0.000 OA
ATOM     22  H   UNL     1      47.468   5.810  11.822  0.00  0.00    +0.000 HD
BRANCH  20  23
ATOM     23  C   UNL     1      44.946   5.228  11.743  0.00  0.00    +0.000 A 
ATOM     24  C   UNL     1      44.247   4.542  12.728  0.00  0.00    +0.000 A 
ATOM     25  S   UNL     1      43.581   3.067  12.193  0.00  0.00    +0.000 S 
ATOM     26  C   UNL     1      44.243   3.265  10.641  0.00  0.00    +0.000 A 
ATOM     27  N   UNL     1      44.064   2.322   9.678  0.00  0.00    +0.000 NA
ATOM     28  C   UNL     1      44.643   2.586   8.555  0.00  0.00    +0.000 A 
ATOM     29  N   UNL     1      45.384   3.716   8.307  0.00  0.00    +0.000 N 
ATOM     30  C   UNL     1      45.568   4.708   9.239  0.00  0.00    +0.000 A 
ATOM     31  O   UNL     1      46.201   5.725   8.969  0.00  0.00    +0.000 OA
ATOM     32  C   UNL     1      44.946   4.453  10.524  0.00  0.00    +0.000 A 
ATOM     33  H   UNL     1      45.806   3.867   7.404  0.00  0.00    +0.000 HD
ENDBRANCH  20  23
ENDBRANCH  18  19
ENDBRANCH   4  18
TORSDOF 7
ENDMDL
MODEL 2
REMARK VINA RESULT:    -6.888      1.639      2.265
REMARK INTER + INTRA:         -11.591
REMARK INTER:                 -10.046
REMARK INTRA:                  -1.545
REMARK UNBOUND:                -1.884
REMARK  Name = 
REMARK  9 active torsions:
REMARK  status: ('A' for Active; 'I' for Inactive)
REMARK    1  A    between atoms: C_1  and  C_2
REMARK    2  A    between atoms: C_7  and  C_8
REMARK    3  A    between atoms: C_8  and  N_9
REMARK    4  A    between atoms: N_9  and  C_10
REMARK    5  A    between atoms: N_9  and  C_11
REMARK    6  A    between atoms: C_11  and  C_12
REMARK    7  A    between atoms: C_15  and  C_16
REMARK    8  A    between atoms: C_16  and  N_17
REMARK    9  A    between atoms: C_18  and  C_20
REMARK                            x       y       z     vdW  Elec       q    Type
REMARK                         _______ _______ _______ _____ _____    ______ ____
ROOT
ATOM      1  C   UNL     1      50.325   7.005  15.819  0.00  0.00    +0.000 A 
ATOM      2  C   UNL     1      48.987   6.644  15.606  0.00  0.00    +0.000 A 
ATOM      3  C   UNL     1      48.340   6.978  14.412  0.00  0.00    +0.000 A 
ATOM      4  C   UNL     1      49.021   7.669  13.402  0.00  0.00    +0.000 A 
ATOM      5  C   UNL     1      50.356   8.033  13.615  0.00  0.00    +0.000 A 
ATOM      6  C   UNL     1      51.003   7.703  14.810  0.00  0.00    +0.000 A 
ENDROOT
BRANCH   1   7
ATOM      7  C   UNL     1      51.014   6.685  17.131  0.00  0.00    +0.000 C 
BRANCH   7   8
ATOM      8  N   UNL     1      50.090   6.466  18.261  0.00  0.00    +0.000 NA
ATOM      9  C   UNL     1      50.282   7.530  19.255  0.00  0.00    +0.000 C 
BRANCH   8  10
ATOM     10  C   UNL     1      50.287   5.134  18.868  0.00  0.00    +0.000 C 
BRANCH  10  17
ATOM     11  C   UNL     1      51.996   2.855  17.784  0.00  0.00    +0.000 C 
ATOM     12  C   UNL     1      50.528   2.973  17.494  0.00  0.00    +0.000 A 
ATOM     13  N   UNL     1      50.022   2.000  16.691  0.00  0.00    +0.000 NA
ATOM     14  C   UNL     1      48.702   2.036  16.412  0.00  0.00    +0.000 A 
ATOM     15  C   UNL     1      47.839   2.997  16.899  0.00  0.00    +0.000 A 
ATOM     16  C   UNL     1      48.370   3.995  17.705  0.00  0.00    +0.000 A 
ATOM     17  C   UNL     1      49.739   4.008  18.016  0.00  0.00    +0.000 A 
ENDBRANCH  10  17
ENDBRANCH   8  10
ENDBRANCH   7   8
ENDBRANCH   1   7
BRANCH   4  18
ATOM     18  C   UNL     1      48.316   8.072  12.131  0.00  0.00    +0.000 C 
BRANCH  18  19
ATOM     19  N   UNL     1      47.617   6.950  11.553  0.00  0.00    +0.000 N 
ATOM     20  C   UNL     1      46.252   6.947  11.428  0.00  0.00    +0.000 C 
ATOM     21  O   UNL     1      45.568   7.911  11.768  0.00  0.00    +0.000 OA
ATOM     22  H   UNL     1      48.132   6.080  11.467  0.00  0.00    +0.000 HD
BRANCH  20  23
ATOM     23  C   UNL     1      45.646   5.758  10.816  0.00  0.00    +0.000 A 
ATOM     24  C   UNL     1      45.803   5.536   9.454  0.00  0.00    +0.000 A 
ATOM     25  S   UNL     1      45.079   4.093   8.908  0.00  0.00    +0.000 S 
ATOM     26  C   UNL     1      44.487   3.735  10.460  0.00  0.00    +0.000 A 
ATOM     27  N   UNL     1      43.742   2.620  10.685  0.00  0.00    +0.000 NA
ATOM     28  C   UNL     1      43.335   2.486  11.903  0.00  0.00    +0.000 A 
ATOM     29  N   UNL     1      43.612   3.367  12.920  0.00  0.00    +0.000 N 
ATOM     30  C   UNL     1      44.382   4.490  12.745  0.00  0.00    +0.000 A 
ATOM     31  O   UNL     1      44.644   5.235  13.686  0.00  0.00    +0.000 OA
ATOM     32  C   UNL     1      44.856   4.695  11.390  0.00  0.00    +0.000 A 
ATOM     33  H   UNL     1      43.268   3.200  13.853  0.00  0.00    +0.000 HD
ENDBRANCH  20  23
ENDBRANCH  18  19
ENDBRANCH   4  18
TORSDOF 7
ENDMDL
MODEL 3
REMARK VINA RESULT:    -6.320      1.989      2.659
REMARK INTER + INTRA:         -10.789
REMARK INTER:                  -8.771
REMARK INTRA:                  -2.019
REMARK UNBOUND:                -1.884
REMARK  Name = 
REMARK  9 active torsions:
REMARK  status: ('A' for Active; 'I' for Inactive)
REMARK    1  A    between atoms: C_1  and  C_2
REMARK    2  A    between atoms: C_7  and  C_8
REMARK    3  A    between atoms: C_8  and  N_9
REMARK    4  A    between atoms: N_9  and  C_10
REMARK    5  A    between atoms: N_9  and  C_11
REMARK    6  A    between atoms: C_11  and  C_12
REMARK    7  A    between atoms: C_15  and  C_16
REMARK    8  A    between atoms: C_16  and  N_17
REMARK    9  A    between atoms: C_18  and  C_20
REMARK                            x       y       z     vdW  Elec       q    Type
REMARK                         _______ _______ _______ _____ _____    ______ ____
ROOT
ATOM      1  C   UNL     1      50.642   7.339  17.832  0.00  0.00    +0.000 A 
ATOM      2  C   UNL     1      51.007   6.892  16.555  0.00  0.00    +0.000 A 
ATOM      3  C   UNL     1      50.314   7.328  15.422  0.00  0.00    +0.000 A 
ATOM      4  C   UNL     1      49.247   8.228  15.541  0.00  0.00    +0.000 A 
ATOM      5  C   UNL     1      48.879   8.672  16.817  0.00  0.00    +0.000 A 
ATOM      6  C   UNL     1      49.570   8.234  17.951  0.00  0.00    +0.000 A 
ENDROOT
BRANCH   1   7
ATOM      7  C   UNL     1      51.362   6.831  19.066  0.00  0.00    +0.000 C 
BRANCH   7   8
ATOM      8  N   UNL     1      50.498   6.100  20.013  0.00  0.00    +0.000 NA
ATOM      9  C   UNL     1      50.975   6.334  21.382  0.00  0.00    +0.000 C 
BRANCH   8  10
ATOM     10  C   UNL     1      50.462   4.656  19.705  0.00  0.00    +0.000 C 
BRANCH  10  17
ATOM     11  C   UNL     1      50.972   2.680  17.442  0.00  0.00    +0.000 C 
ATOM     12  C   UNL     1      49.671   3.411  17.598  0.00  0.00    +0.000 A 
ATOM     13  N   UNL     1      48.745   3.144  16.640  0.00  0.00    +0.000 NA
ATOM     14  C   UNL     1      47.543   3.752  16.737  0.00  0.00    +0.000 A 
ATOM     15  C   UNL     1      47.202   4.620  17.754  0.00  0.00    +0.000 A 
ATOM     16  C   UNL     1      48.161   4.898  18.718  0.00  0.00    +0.000 A 
ATOM     17  C   UNL     1      49.429   4.299  18.655  0.00  0.00    +0.000 A 
ENDBRANCH  10  17
ENDBRANCH   8  10
ENDBRANCH   7   8
ENDBRANCH   1   7
BRANCH   4  18
ATOM     18  C   UNL     1      48.466   8.667  14.328  0.00  0.00    +0.000 C 
BRANCH  18  19
ATOM     19  N   UNL     1      47.450   7.701  13.993  0.00  0.00    +0.000 N 
ATOM     20  C   UNL     1      47.677   6.719  13.063  0.00  0.00    +0.000 C 
ATOM     21  O   UNL     1      48.765   6.597  12.503  0.00  0.00    +0.000 OA
ATOM     22  H   UNL     1      46.499   7.912  14.278  0.00  0.00    +0.000 HD
BRANCH  20  23
ATOM     23  C   UNL     1      46.576   5.782  12.807  0.00  0.00    +0.000 A 
ATOM     24  C   UNL     1      46.741   4.436  13.104  0.00  0.00    +0.000 A 
ATOM     25  S   UNL     1      45.358   3.490  12.791  0.00  0.00    +0.000 S 
ATOM     26  C   UNL     1      44.502   4.836  12.202  0.00  0.00    +0.000 A 
ATOM     27  N   UNL     1      43.231   4.708  11.738  0.00  0.00    +0.000 NA
ATOM     28  C   UNL     1      42.709   5.804  11.295  0.00  0.00    +0.000 A 
ATOM     29  N   UNL     1      43.347   7.020  11.281  0.00  0.00    +0.000 N 
ATOM     30  C   UNL     1      44.620   7.202  11.764  0.00  0.00    +0.000 A 
ATOM     31  O   UNL     1      45.144   8.312  11.774  0.00  0.00    +0.000 OA
ATOM     32  C   UNL     1      45.256   5.997  12.263  0.00  0.00    +0.000 A 
ATOM     33  H   UNL     1      42.881   7.841  10.927  0.00  0.00    +0.000 HD
ENDBRANCH  20  23
ENDBRANCH  18  19
ENDBRANCH   4  18
TORSDOF 7
ENDMDL
MODEL 4
REMARK VINA RESULT:    -6.319      2.751      5.134
REMARK INTER + INTRA:         -10.788
REMARK INTER:                  -8.922
REMARK INTRA:                  -1.866
REMARK UNBOUND:                -1.884
REMARK  Name = 
REMARK  9 active torsions:
REMARK  status: ('A' for Active; 'I' for Inactive)
REMARK    1  A    between atoms: C_1  and  C_2
REMARK    2  A    between atoms: C_7  and  C_8
REMARK    3  A    between atoms: C_8  and  N_9
REMARK    4  A    between atoms: N_9  and  C_10
REMARK    5  A    between atoms: N_9  and  C_11
REMARK    6  A    between atoms: C_11  and  C_12
REMARK    7  A    between atoms: C_15  and  C_16
REMARK    8  A    between atoms: C_16  and  N_17
REMARK    9  A    between atoms: C_18  and  C_20
REMARK                            x       y       z     vdW  Elec       q    Type
REMARK                         _______ _______ _______ _____ _____    ______ ____
ROOT
ATOM      1  C   UNL     1      51.141   3.880  18.470  0.00  0.00    +0.000 A 
ATOM      2  C   UNL     1      50.082   4.643  18.982  0.00  0.00    +0.000 A 
ATOM      3  C   UNL     1      48.775   4.443  18.530  0.00  0.00    +0.000 A 
ATOM      4  C   UNL     1      48.497   3.467  17.563  0.00  0.00    +0.000 A 
ATOM      5  C   UNL     1      49.555   2.707  17.048  0.00  0.00    +0.000 A 
ATOM      6  C   UNL     1      50.863   2.909  17.499  0.00  0.00    +0.000 A 
ENDROOT
BRANCH   1   7
ATOM      7  C   UNL     1      52.566   4.128  18.926  0.00  0.00    +0.000 C 
BRANCH   7   8
ATOM      8  N   UNL     1      53.453   4.662  17.874  0.00  0.00    +0.000 NA
ATOM      9  C   UNL     1      54.761   4.001  17.964  0.00  0.00    +0.000 C 
BRANCH   8  10
ATOM     10  C   UNL     1      53.593   6.128  17.978  0.00  0.00    +0.000 C 
BRANCH  10  17
ATOM     11  C   UNL     1      52.143   8.255  19.610  0.00  0.00    +0.000 C 
ATOM     12  C   UNL     1      51.688   7.836  18.242  0.00  0.00    +0.000 A 
ATOM     13  N   UNL     1      50.566   8.459  17.795  0.00  0.00    +0.000 NA
ATOM     14  C   UNL     1      50.118   8.144  16.561  0.00  0.00    +0.000 A 
ATOM     15  C   UNL     1      50.737   7.233  15.729  0.00  0.00    +0.000 A 
ATOM     16  C   UNL     1      51.873   6.591  16.202  0.00  0.00    +0.000 A 
ATOM     17  C   UNL     1      52.372   6.877  17.483  0.00  0.00    +0.000 A 
ENDBRANCH  10  17
ENDBRANCH   8  10
ENDBRANCH   7   8
ENDBRANCH   1   7
BRANCH   4  18
ATOM     18  C   UNL     1      47.097   3.277  17.038  0.00  0.00    +0.000 C 
BRANCH  18  19
ATOM     19  N   UNL     1      46.762   4.304  16.082  0.00  0.00    +0.000 N 
ATOM     20  C   UNL     1      46.940   4.112  14.736  0.00  0.00    +0.000 C 
ATOM     21  O   UNL     1      47.355   3.047  14.283  0.00  0.00    +0.000 OA
ATOM     22  H   UNL     1      46.625   5.243  16.442  0.00  0.00    +0.000 HD
BRANCH  20  23
ATOM     23  C   UNL     1      46.555   5.220  13.853  0.00  0.00    +0.000 A 
ATOM     24  C   UNL     1      47.407   6.307  13.710  0.00  0.00    +0.000 A 
ATOM     25  S   UNL     1      46.837   7.486  12.618  0.00  0.00    +0.000 S 
ATOM     26  C   UNL     1      45.408   6.611  12.333  0.00  0.00    +0.000 A 
ATOM     27  N   UNL     1      44.452   7.088  11.492  0.00  0.00    +0.000 NA
ATOM     28  C   UNL     1      43.407   6.337  11.388  0.00  0.00    +0.000 A 
ATOM     29  N   UNL     1      43.235   5.145  12.048  0.00  0.00    +0.000 N 
ATOM     30  C   UNL     1      44.184   4.611  12.885  0.00  0.00    +0.000 A 
ATOM     31  O   UNL     1      44.015   3.522  13.426  0.00  0.00    +0.000 OA
ATOM     32  C   UNL     1      45.375   5.423  13.046  0.00  0.00    +0.000 A 
ATOM     33  H   UNL     1      42.396   4.601  11.919  0.00  0.00    +0.000 HD
ENDBRANCH  20  23
ENDBRANCH  18  19
ENDBRANCH   4  18
TORSDOF 7
ENDMDL
MODEL 5
REMARK VINA RESULT:    -6.233      3.330      9.081
REMARK INTER + INTRA:         -10.668
REMARK INTER:                 -10.302
REMARK INTRA:                  -0.366
REMARK UNBOUND:                -1.884
REMARK  Name = 
REMARK  9 active torsions:
REMARK  status: ('A' for Active; 'I' for Inactive)
REMARK    1  A    between atoms: C_1  and  C_2
REMARK    2  A    between atoms: C_7  and  C_8
REMARK    3  A    between atoms: C_8  and  N_9
REMARK    4  A    between atoms: N_9  and  C_10
REMARK    5  A    between atoms: N_9  and  C_11
REMARK    6  A    between atoms: C_11  and  C_12
REMARK    7  A    between atoms: C_15  and  C_16
REMARK    8  A    between atoms: C_16  and  N_17
REMARK    9  A    between atoms: C_18  and  C_20
REMARK                            x       y       z     vdW  Elec       q    Type
REMARK                         _______ _______ _______ _____ _____    ______ ____
ROOT
ATOM      1  C   UNL     1      45.922   4.446  12.534  0.00  0.00    +0.000 A 
ATOM      2  C   UNL     1      46.495   4.169  13.783  0.00  0.00    +0.000 A 
ATOM      3  C   UNL     1      47.359   5.084  14.391  0.00  0.00    +0.000 A 
ATOM      4  C   UNL     1      47.660   6.302  13.768  0.00  0.00    +0.000 A 
ATOM      5  C   UNL     1      47.091   6.579  12.518  0.00  0.00    +0.000 A 
ATOM      6  C   UNL     1      46.229   5.662  11.908  0.00  0.00    +0.000 A 
ENDROOT
BRANCH   1   7
ATOM      7  C   UNL     1      45.022   3.435  11.852  0.00  0.00    +0.000 C 
BRANCH   7   8
ATOM      8  N   UNL     1      44.487   3.881  10.551  0.00  0.00    +0.000 NA
ATOM      9  C   UNL     1      43.240   4.624  10.770  0.00  0.00    +0.000 C 
BRANCH   8  10
ATOM     10  C   UNL     1      44.271   2.740   9.637  0.00  0.00    +0.000 C 
BRANCH  10  17
ATOM     11  C   UNL     1      45.901   4.970   8.350  0.00  0.00    +0.000 C 
ATOM     12  C   UNL     1      46.177   3.517   8.096  0.00  0.00    +0.000 A 
ATOM     13  N   UNL     1      47.194   3.271   7.229  0.00  0.00    +0.000 NA
ATOM     14  C   UNL     1      47.509   1.982   6.976  0.00  0.00    +0.000 A 
ATOM     15  C   UNL     1      46.863   0.907   7.551  0.00  0.00    +0.000 A 
ATOM     16  C   UNL     1      45.815   1.170   8.423  0.00  0.00    +0.000 A 
ATOM     17  C   UNL     1      45.443   2.493   8.710  0.00  0.00    +0.000 A 
ENDBRANCH  10  17
ENDBRANCH   8  10
ENDBRANCH   7   8
ENDBRANCH   1   7
BRANCH   4  18
ATOM     18  C   UNL     1      48.626   7.274  14.396  0.00  0.00    +0.000 C 
BRANCH  18  19
ATOM     19  N   UNL     1      48.413   7.363  15.820  0.00  0.00    +0.000 N 
ATOM     20  C   UNL     1      49.377   6.968  16.712  0.00  0.00    +0.000 C 
ATOM     21  O   UNL     1      50.474   6.558  16.340  0.00  0.00    +0.000 OA
ATOM     22  H   UNL     1      47.458   7.493  16.137  0.00  0.00    +0.000 HD
BRANCH  20  23
ATOM     23  C   UNL     1      49.058   7.113  18.138  0.00  0.00    +0.000 A 
ATOM     24  C   UNL     1      48.933   8.383  18.685  0.00  0.00    +0.000 A 
ATOM     25  S   UNL     1      48.517   8.379  20.338  0.00  0.00    +0.000 S 
ATOM     26  C   UNL     1      48.535   6.681  20.396  0.00  0.00    +0.000 A 
ATOM     27  N   UNL     1      48.280   6.018  21.555  0.00  0.00    +0.000 NA
ATOM     28  C   UNL     1      48.353   4.731  21.464  0.00  0.00    +0.000 A 
ATOM     29  N   UNL     1      48.655   4.048  20.312  0.00  0.00    +0.000 N 
ATOM     30  C   UNL     1      48.893   4.673  19.113  0.00  0.00    +0.000 A 
ATOM     31  O   UNL     1      49.119   4.029  18.093  0.00  0.00    +0.000 OA
ATOM     32  C   UNL     1      48.834   6.122  19.164  0.00  0.00    +0.000 A 
ATOM     33  H   UNL     1      48.690   3.040  20.305  0.00  0.00    +0.000 HD
ENDBRANCH  20  23
ENDBRANCH  18  19
ENDBRANCH   4  18
TORSDOF 7
ENDMDL
MODEL 6
REMARK VINA RESULT:    -6.015      4.156      6.191
REMARK INTER + INTRA:         -10.360
REMARK INTER:                  -9.244
REMARK INTRA:                  -1.116
REMARK UNBOUND:                -1.884
REMARK  Name = 
REMARK  9 active torsions:
REMARK  status: ('A' for Active; 'I' for Inactive)
REMARK    1  A    between atoms: C_1  and  C_2
REMARK    2  A    between atoms: C_7  and  C_8
REMARK    3  A    between atoms: C_8  and  N_9
REMARK    4  A    between atoms: N_9  and  C_10
REMARK    5  A    between atoms: N_9  and  C_11
REMARK    6  A    between atoms: C_11  and  C_12
REMARK    7  A    between atoms: C_15  and  C_16
REMARK    8  A    between atoms: C_16  and  N_17
REMARK    9  A    between atoms: C_18  and  C_20
REMARK                            x       y       z     vdW  Elec       q    Type
REMARK                         _______ _______ _______ _____ _____    ______ ____
ROOT
ATOM      1  C   UNL     1      50.307   8.984  11.474  0.00  0.00    +0.000 A 
ATOM      2  C   UNL     1      49.473  10.043  11.860  0.00  0.00    +0.000 A 
ATOM      3  C   UNL     1      48.190   9.797  12.356  0.00  0.00    +0.000 A 
ATOM      4  C   UNL     1      47.717   8.485  12.488  0.00  0.00    +0.000 A 
ATOM      5  C   UNL     1      48.547   7.426  12.100  0.00  0.00    +0.000 A 
ATOM      6  C   UNL     1      49.830   7.673  11.600  0.00  0.00    +0.000 A 
ENDROOT
BRANCH   1   7
ATOM      7  C   UNL     1      51.681   9.252  10.892  0.00  0.00    +0.000 C 
BRANCH   7   8
ATOM      8  N   UNL     1      52.708   8.270  11.290  0.00  0.00    +0.000 NA
ATOM      9  C   UNL     1      53.216   8.615  12.624  0.00  0.00    +0.000 C 
BRANCH   8  10
ATOM     10  C   UNL     1      53.807   8.211  10.305  0.00  0.00    +0.000 C 
BRANCH  10  17
ATOM     11  C   UNL     1      54.484   5.244  10.468  0.00  0.00    +0.000 C 
ATOM     12  C   UNL     1      53.879   5.868   9.245  0.00  0.00    +0.000 A 
ATOM     13  N   UNL     1      53.678   5.016   8.206  0.00  0.00    +0.000 NA
ATOM     14  C   UNL     1      53.114   5.511   7.084  0.00  0.00    +0.000 A 
ATOM     15  C   UNL     1      52.725   6.827   6.936  0.00  0.00    +0.000 A 
ATOM     16  C   UNL     1      52.951   7.693   7.998  0.00  0.00    +0.000 A 
ATOM     17  C   UNL     1      53.544   7.228   9.182  0.00  0.00    +0.000 A 
ENDBRANCH  10  17
ENDBRANCH   8  10
ENDBRANCH   7   8
ENDBRANCH   1   7
BRANCH   4  18
ATOM     18  C   UNL     1      46.318   8.213  12.980  0.00  0.00    +0.000 C 
BRANCH  18  19
ATOM     19  N   UNL     1      45.902   6.876  12.635  0.00  0.00    +0.000 N 
ATOM     20  C   UNL     1      44.889   6.654  11.737  0.00  0.00    +0.000 C 
ATOM     21  O   UNL     1      44.319   7.578  11.161  0.00  0.00    +0.000 OA
ATOM     22  H   UNL     1      46.205   6.126  13.246  0.00  0.00    +0.000 HD
BRANCH  20  23
ATOM     23  C   UNL     1      44.555   5.253  11.452  0.00  0.00    +0.000 A 
ATOM     24  C   UNL     1      43.824   4.522  12.379  0.00  0.00    +0.000 A 
ATOM     25  S   UNL     1      43.481   2.929  11.879  0.00  0.00    +0.000 S 
ATOM     26  C   UNL     1      44.337   3.140  10.427  0.00  0.00    +0.000 A 
ATOM     27  N   UNL     1      44.455   2.125   9.530  0.00  0.00    +0.000 NA
ATOM     28  C   UNL     1      45.154   2.414   8.483  0.00  0.00    +0.000 A 
ATOM     29  N   UNL     1      45.743   3.632   8.251  0.00  0.00    +0.000 N 
ATOM     30  C   UNL     1      45.628   4.694   9.114  0.00  0.00    +0.000 A 
ATOM     31  O   UNL     1      46.133   5.783   8.855  0.00  0.00    +0.000 OA
ATOM     32  C   UNL     1      44.861   4.418  10.314  0.00  0.00    +0.000 A 
ATOM     33  H   UNL     1      46.272   3.797   7.408  0.00  0.00    +0.000 HD
ENDBRANCH  20  23
ENDBRANCH  18  19
ENDBRANCH   4  18
TORSDOF 7
ENDMDL
MODEL 7
REMARK VINA RESULT:    -5.901      4.944      9.533
REMARK INTER + INTRA:         -10.199
REMARK INTER:                  -8.972
REMARK INTRA:                  -1.227
REMARK UNBOUND:                -1.884
REMARK  Name = 
REMARK  9 active torsions:
REMARK  status: ('A' for Active; 'I' for Inactive)
REMARK    1  A    between atoms: C_1  and  C_2
REMARK    2  A    between atoms: C_7  and  C_8
REMARK    3  A    between atoms: C_8  and  N_9
REMARK    4  A    between atoms: N_9  and  C_10
REMARK    5  A    between atoms: N_9  and  C_11
REMARK    6  A    between atoms: C_11  and  C_12
REMARK    7  A    between atoms: C_15  and  C_16
REMARK    8  A    between atoms: C_16  and  N_17
REMARK    9  A    between atoms: C_18  and  C_20
REMARK                            x       y       z     vdW  Elec       q    Type
REMARK                         _______ _______ _______ _____ _____    ______ ____
ROOT
ATOM      1  C   UNL     1      44.728   9.214  11.554  0.00  0.00    +0.000 A 
ATOM      2  C   UNL     1      45.758   9.014  12.485  0.00  0.00    +0.000 A 
ATOM      3  C   UNL     1      46.068   7.730  12.941  0.00  0.00    +0.000 A 
ATOM      4  C   UNL     1      45.364   6.616  12.468  0.00  0.00    +0.000 A 
ATOM      5  C   UNL     1      44.332   6.813  11.541  0.00  0.00    +0.000 A 
ATOM      6  C   UNL     1      44.019   8.099  11.087  0.00  0.00    +0.000 A 
ENDROOT
BRANCH   1   7
ATOM      7  C   UNL     1      44.359  10.610  11.094  0.00  0.00    +0.000 C 
BRANCH   7   8
ATOM      8  N   UNL     1      43.151  10.669  10.248  0.00  0.00    +0.000 NA
ATOM      9  C   UNL     1      43.547  10.927   8.858  0.00  0.00    +0.000 C 
BRANCH   8  10
ATOM     10  C   UNL     1      42.205  11.696  10.729  0.00  0.00    +0.000 C 
BRANCH  10  17
ATOM     11  C   UNL     1      40.338  12.902   8.644  0.00  0.00    +0.000 C 
ATOM     12  C   UNL     1      39.888  11.861   9.626  0.00  0.00    +0.000 A 
ATOM     13  N   UNL     1      38.577  11.513   9.533  0.00  0.00    +0.000 NA
ATOM     14  C   UNL     1      38.115  10.563  10.373  0.00  0.00    +0.000 A 
ATOM     15  C   UNL     1      38.896   9.923  11.313  0.00  0.00    +0.000 A 
ATOM     16  C   UNL     1      40.230  10.298  11.411  0.00  0.00    +0.000 A 
ATOM     17  C   UNL     1      40.755  11.289  10.567  0.00  0.00    +0.000 A 
ENDBRANCH  10  17
ENDBRANCH   8  10
ENDBRANCH   7   8
ENDBRANCH   1   7
BRANCH   4  18
ATOM     18  C   UNL     1      45.663   5.233  12.989  0.00  0.00    +0.000 C 
BRANCH  18  19
ATOM     19  N   UNL     1      46.330   5.298  14.266  0.00  0.00    +0.000 N 
ATOM     20  C   UNL     1      47.084   4.252  14.732  0.00  0.00    +0.000 C 
ATOM     21  O   UNL     1      47.256   3.232  14.068  0.00  0.00    +0.000 OA
ATOM     22  H   UNL     1      46.031   6.026  14.907  0.00  0.00    +0.000 HD
BRANCH  20  23
ATOM     23  C   UNL     1      47.727   4.430  16.040  0.00  0.00    +0.000 A 
ATOM     24  C   UNL     1      47.488   3.507  17.050  0.00  0.00    +0.000 A 
ATOM     25  S   UNL     1      48.341   3.832  18.490  0.00  0.00    +0.000 S 
ATOM     26  C   UNL     1      49.024   5.243  17.834  0.00  0.00    +0.000 A 
ATOM     27  N   UNL     1      49.856   6.026  18.571  0.00  0.00    +0.000 NA
ATOM     28  C   UNL     1      50.281   7.081  17.959  0.00  0.00    +0.000 A 
ATOM     29  N   UNL     1      49.950   7.420  16.670  0.00  0.00    +0.000 N 
ATOM     30  C   UNL     1      49.137   6.647  15.879  0.00  0.00    +0.000 A 
ATOM     31  O   UNL     1      48.897   6.959  14.716  0.00  0.00    +0.000 OA
ATOM     32  C   UNL     1      48.623   5.454  16.524  0.00  0.00    +0.000 A 
ATOM     33  H   UNL     1      50.322   8.257  16.247  0.00  0.00    +0.000 HD
ENDBRANCH  20  23
ENDBRANCH  18  19
ENDBRANCH   4  18
TORSDOF 7
ENDMDL
MODEL 8
REMARK VINA RESULT:    -5.621      4.698      7.370
REMARK INTER + INTRA:          -9.804
REMARK INTER:                  -8.516
REMARK INTRA:                  -1.288
REMARK UNBOUND:                -1.884
REMARK  Name = 
REMARK  9 active torsions:
REMARK  status: ('A' for Active; 'I' for Inactive)
REMARK    1  A    between atoms: C_1  and  C_2
REMARK    2  A    between atoms: C_7  and  C_8
REMARK    3  A    between atoms: C_8  and  N_9
REMARK    4  A    between atoms: N_9  and  C_10
REMARK    5  A    between atoms: N_9  and  C_11
REMARK    6  A    between atoms: C_11  and  C_12
REMARK    7  A    between atoms: C_15  and  C_16
REMARK    8  A    between atoms: C_16  and  N_17
REMARK    9  A    between atoms: C_18  and  C_20
REMARK                            x       y       z     vdW  Elec       q    Type
REMARK                         _______ _______ _______ _____ _____    ______ ____
ROOT
ATOM      1  C   UNL     1      50.518  10.321  10.725  0.00  0.00    +0.000 A 
ATOM      2  C   UNL     1      51.012   9.080  11.150  0.00  0.00    +0.000 A 
ATOM      3  C   UNL     1      50.209   8.208  11.891  0.00  0.00    +0.000 A 
ATOM      4  C   UNL     1      48.891   8.554  12.214  0.00  0.00    +0.000 A 
ATOM      5  C   UNL     1      48.397   9.795  11.793  0.00  0.00    +0.000 A 
ATOM      6  C   UNL     1      49.201  10.669  11.055  0.00  0.00    +0.000 A 
ENDROOT
BRANCH   1   7
ATOM      7  C   UNL     1      51.402  11.286   9.961  0.00  0.00    +0.000 C 
BRANCH   7   8
ATOM      8  N   UNL     1      52.769  10.788   9.714  0.00  0.00    +0.000 NA
ATOM      9  C   UNL     1      53.739  11.757  10.240  0.00  0.00    +0.000 C 
BRANCH   8  10
ATOM     10  C   UNL     1      52.999  10.536   8.277  0.00  0.00    +0.000 C 
BRANCH  10  17
ATOM     11  C   UNL     1      52.313   9.399   5.534  0.00  0.00    +0.000 C 
ATOM     12  C   UNL     1      52.733   8.533   6.685  0.00  0.00    +0.000 A 
ATOM     13  N   UNL     1      52.761   7.201   6.420  0.00  0.00    +0.000 NA
ATOM     14  C   UNL     1      53.156   6.369   7.408  0.00  0.00    +0.000 A 
ATOM     15  C   UNL     1      53.535   6.795   8.664  0.00  0.00    +0.000 A 
ATOM     16  C   UNL     1      53.487   8.157   8.929  0.00  0.00    +0.000 A 
ATOM     17  C   UNL     1      53.074   9.061   7.938  0.00  0.00    +0.000 A 
ENDBRANCH  10  17
ENDBRANCH   8  10
ENDBRANCH   7   8
ENDBRANCH   1   7
BRANCH   4  18
ATOM     18  C   UNL     1      48.034   7.639  13.052  0.00  0.00    +0.000 C 
BRANCH  18  19
ATOM     19  N   UNL     1      47.421   6.619  12.237  0.00  0.00    +0.000 N 
ATOM     20  C   UNL     1      46.110   6.712  11.844  0.00  0.00    +0.000 C 
ATOM     21  O   UNL     1      45.414   7.682  12.135  0.00  0.00    +0.000 OA
ATOM     22  H   UNL     1      47.904   5.730  12.169  0.00  0.00    +0.000 HD
BRANCH  20  23
ATOM     23  C   UNL     1      45.592   5.623  11.007  0.00  0.00    +0.000 A 
ATOM     24  C   UNL     1      45.777   5.670   9.631  0.00  0.00    +0.000 A 
ATOM     25  S   UNL     1      45.156   4.312   8.810  0.00  0.00    +0.000 S 
ATOM     26  C   UNL     1      44.574   3.633  10.255  0.00  0.00    +0.000 A 
ATOM     27  N   UNL     1      43.903   2.450  10.252  0.00  0.00    +0.000 NA
ATOM     28  C   UNL     1      43.493   2.064  11.414  0.00  0.00    +0.000 A 
ATOM     29  N   UNL     1      43.700   2.756  12.582  0.00  0.00    +0.000 N 
ATOM     30  C   UNL     1      44.395   3.939  12.638  0.00  0.00    +0.000 A 
ATOM     31  O   UNL     1      44.597   4.509  13.706  0.00  0.00    +0.000 OA
ATOM     32  C   UNL     1      44.868   4.423  11.355  0.00  0.00    +0.000 A 
ATOM     33  H   UNL     1      43.359   2.396  13.461  0.00  0.00    +0.000 HD
ENDBRANCH  20  23
ENDBRANCH  18  19
ENDBRANCH   4  18
TORSDOF 7
ENDMDL
MODEL 9
REMARK VINA RESULT:    -5.516      2.878      4.481
REMARK INTER + INTRA:          -9.657
REMARK INTER:                  -7.900
REMARK INTRA:                  -1.757
REMARK UNBOUND:                -1.884
REMARK  Name = 
REMARK  9 active torsions:
REMARK  status: ('A' for Active; 'I' for Inactive)
REMARK    1  A    between atoms: C_1  and  C_2
REMARK    2  A    between atoms: C_7  and  C_8
REMARK    3  A    between atoms: C_8  and  N_9
REMARK    4  A    between atoms: N_9  and  C_10
REMARK    5  A    between atoms: N_9  and  C_11
REMARK    6  A    between atoms: C_11  and  C_12
REMARK    7  A    between atoms: C_15  and  C_16
REMARK    8  A    between atoms: C_16  and  N_17
REMARK    9  A    between atoms: C_18  and  C_20
REMARK                            x       y       z     vdW  Elec       q    Type
REMARK                         _______ _______ _______ _____ _____    ______ ____
ROOT
ATOM      1  C   UNL     1      49.435   9.520  11.679  0.00  0.00    +0.000 A 
ATOM      2  C   UNL     1      49.147   8.148  11.685  0.00  0.00    +0.000 A 
ATOM      3  C   UNL     1      47.844   7.694  11.905  0.00  0.00    +0.000 A 
ATOM      4  C   UNL     1      46.798   8.602  12.113  0.00  0.00    +0.000 A 
ATOM      5  C   UNL     1      47.084   9.973  12.111  0.00  0.00    +0.000 A 
ATOM      6  C   UNL     1      48.389  10.428  11.894  0.00  0.00    +0.000 A 
ENDROOT
BRANCH   1   7
ATOM      7  C   UNL     1      50.855  10.013  11.487  0.00  0.00    +0.000 C 
BRANCH   7   8
ATOM      8  N   UNL     1      51.402  10.748  12.644  0.00  0.00    +0.000 NA
ATOM      9  C   UNL     1      52.631  11.442  12.239  0.00  0.00    +0.000 C 
BRANCH   8  10
ATOM     10  C   UNL     1      51.657   9.845  13.785  0.00  0.00    +0.000 C 
BRANCH  10  17
ATOM     11  C   UNL     1      50.441   7.355  15.053  0.00  0.00    +0.000 C 
ATOM     12  C   UNL     1      49.981   8.742  15.394  0.00  0.00    +0.000 A 
ATOM     13  N   UNL     1      48.964   8.803  16.293  0.00  0.00    +0.000 NA
ATOM     14  C   UNL     1      48.519  10.024  16.661  0.00  0.00    +0.000 A 
ATOM     15  C   UNL     1      49.042  11.208  16.182  0.00  0.00    +0.000 A 
ATOM     16  C   UNL     1      50.070  11.133  15.251  0.00  0.00    +0.000 A 
ATOM     17  C   UNL     1      50.559   9.887  14.829  0.00  0.00    +0.000 A 
ENDBRANCH  10  17
ENDBRANCH   8  10
ENDBRANCH   7   8
ENDBRANCH   1   7
BRANCH   4  18
ATOM     18  C   UNL     1      45.398   8.118  12.396  0.00  0.00    +0.000 C 
BRANCH  18  19
ATOM     19  N   UNL     1      45.252   6.728  12.040  0.00  0.00    +0.000 N 
ATOM     20  C   UNL     1      44.087   6.249  11.499  0.00  0.00    +0.000 C 
ATOM     21  O   UNL     1      43.132   6.985  11.260  0.00  0.00    +0.000 OA
ATOM     22  H   UNL     1      45.934   6.080  12.419  0.00  0.00    +0.000 HD
BRANCH  20  23
ATOM     23  C   UNL     1      44.052   4.819  11.163  0.00  0.00    +0.000 A 
ATOM     24  C   UNL     1      43.313   3.949  11.954  0.00  0.00    +0.000 A 
ATOM     25  S   UNL     1      43.340   2.335  11.407  0.00  0.00    +0.000 S 
ATOM     26  C   UNL     1      44.379   2.730  10.121  0.00  0.00    +0.000 A 
ATOM     27  N   UNL     1      44.819   1.774   9.259  0.00  0.00    +0.000 NA
ATOM     28  C   UNL     1      45.624   2.206   8.346  0.00  0.00    +0.000 A 
ATOM     29  N   UNL     1      46.024   3.513   8.216  0.00  0.00    +0.000 N 
ATOM     30  C   UNL     1      45.584   4.516   9.044  0.00  0.00    +0.000 A 
ATOM     31  O   UNL     1      45.930   5.682   8.872  0.00  0.00    +0.000 OA
ATOM     32  C   UNL     1      44.685   4.081  10.096  0.00  0.00    +0.000 A 
ATOM     33  H   UNL     1      46.651   3.788   7.475  0.00  0.00    +0.000 HD
ENDBRANCH  20  23
ENDBRANCH  18  19
ENDBRANCH   4  18
TORSDOF 7
ENDMDL
