MODEL 1
REMARK VINA RESULT:    -7.569      0.000      0.000
REMARK INTER + INTRA:         -12.497
REMARK INTER:                 -11.773
REMARK INTRA:                  -0.724
REMARK UNBOUND:                -0.724
REMARK  Name = 
REMARK  11 active torsions:
REMARK  status: ('A' for Active; 'I' for Inactive)
REMARK    1  A    between atoms: C_1  and  N_2
REMARK    2  A    between atoms: N_2  and  C_3
REMARK    3  A    between atoms: N_2  and  C_10
REMARK    4  A    between atoms: C_3  and  C_4
REMARK    5  A    between atoms: C_10  and  C_11
REMARK    6  A    between atoms: C_14  and  C_15
REMARK    7  A    between atoms: C_15  and  N_16
REMARK    8  A    between atoms: N_16  and  C_17
REMARK    9  A    between atoms: C_17  and  C_18
REMARK   10  A    between atoms: C_18  and  O_19
REMARK   11  A    between atoms: C_20  and  C_22
REMARK                            x       y       z     vdW  Elec       q    Type
REMARK                         _______ _______ _______ _____ _____    ______ ____
ROOT
ATOM      1  N   UNL     1      49.171   5.586  16.650  0.00  0.00    +0.000 N 
ATOM      2  C   UNL     1      49.365   4.451  17.464  0.00  0.00    +0.000 C 
ATOM      3  O   UNL     1      48.426   3.719  17.772  0.00  0.00    +0.000 OA
ENDROOT
BRANCH   2   4
ATOM      4  C   UNL     1      50.713   4.134  17.970  0.00  0.00    +0.000 A 
ATOM      5  C   UNL     1      51.450   4.950  18.813  0.00  0.00    +0.000 A 
ATOM      6  S   UNL     1      52.937   4.265  19.301  0.00  0.00    +0.000 S 
ATOM      7  C   UNL     1      52.588   2.805  18.501  0.00  0.00    +0.000 A 
ATOM      8  N   UNL     1      53.414   1.729  18.610  0.00  0.00    +0.000 NA
ATOM      9  C   UNL     1      52.987   0.674  18.001  0.00  0.00    +0.000 A 
ATOM     10  N   UNL     1      51.837   0.609  17.254  0.00  0.00    +0.000 N 
ATOM     11  C   UNL     1      51.048   1.712  17.003  0.00  0.00    +0.000 A 
ATOM     12  O   UNL     1      50.183   1.686  16.132  0.00  0.00    +0.000 OA
ATOM     13  C   UNL     1      51.408   2.880  17.785  0.00  0.00    +0.000 A 
ATOM     14  H   UNL     1      51.604  -0.224  16.734  0.00  0.00    +0.000 HD
ENDBRANCH   2   4
BRANCH   1  15
ATOM     15  C   UNL     1      47.803   5.813  16.167  0.00  0.00    +0.000 C 
BRANCH  15  19
ATOM     16  C   UNL     1      46.202   5.433  12.231  0.00  0.00    +0.000 A 
ATOM     17  C   UNL     1      46.146   4.333  13.082  0.00  0.00    +0.000 A 
ATOM     18  C   UNL     1      46.792   4.391  14.323  0.00  0.00    +0.000 A 
ATOM     19  C   UNL     1      47.472   5.549  14.712  0.00  0.00    +0.000 A 
ATOM     20  C   UNL     1      47.580   6.548  13.745  0.00  0.00    +0.000 A 
ATOM     21  N   UNL     1      46.965   6.518  12.528  0.00  0.00    +0.000 NA
BRANCH  16  22
ATOM     22  C   UNL     1      45.342   5.475  10.966  0.00  0.00    +0.000 C 
BRANCH  22  24
ATOM     23  C   UNL     1      43.370   4.103  11.312  0.00  0.00    +0.000 C 
ATOM     24  N   UNL     1      44.667   4.186  10.622  0.00  0.00    +0.000 NA
BRANCH  24  25
ATOM     25  C   UNL     1      44.480   4.091   9.156  0.00  0.00    +0.000 C 
BRANCH  25  26
ATOM     26  C   UNL     1      45.457   3.172   8.452  0.00  0.00    +0.000 A 
ATOM     27  C   UNL     1      46.364   3.653   7.499  0.00  0.00    +0.000 A 
ATOM     28  C   UNL     1      47.252   2.775   6.875  0.00  0.00    +0.000 A 
ATOM     29  C   UNL     1      47.210   1.438   7.232  0.00  0.00    +0.000 A 
ATOM     30  N   UNL     1      46.360   0.935   8.152  0.00  0.00    +0.000 NA
ATOM     31  C   UNL     1      45.505   1.810   8.735  0.00  0.00    +0.000 A 
ENDBRANCH  25  26
ENDBRANCH  24  25
ENDBRANCH  22  24
ENDBRANCH  16  22
ENDBRANCH  15  19
ENDBRANCH   1  15
BRANCH   1  32
ATOM     32  C   UNL     1      50.303   6.360  16.092  0.00  0.00    +0.000 C 
BRANCH  32  33
ATOM     33  C   UNL     1      50.418   7.861  16.388  0.00  0.00    +0.000 C 
BRANCH  33  34
ATOM     34  O   UNL     1      50.139   8.128  17.757  0.00  0.00    +0.000 OA
ATOM     35  H   UNL     1      50.739   8.840  18.039  0.00  0.00    +0.000 HD
ENDBRANCH  33  34
ENDBRANCH  32  33
ENDBRANCH   1  32
TORSDOF 10
ENDMDL
MODEL 2
REMARK VINA RESULT:    -7.235      2.191      2.819
REMARK INTER + INTRA:         -11.978
REMARK INTER:                 -11.104
REMARK INTRA:                  -0.874
REMARK UNBOUND:                -0.724
REMARK  Name = 
REMARK  11 active torsions:
REMARK  status: ('A' for Active; 'I' for Inactive)
REMARK    1  A    between atoms: C_1  and  N_2
REMARK    2  A    between atoms: N_2  and  C_3
REMARK    3  A    between atoms: N_2  and  C_10
REMARK    4  A    between atoms: C_3  and  C_4
REMARK    5  A    between atoms: C_10  and  C_11
REMARK    6  A    between atoms: C_14  and  C_15
REMARK    7  A    between atoms: C_15  and  N_16
REMARK    8  A    between atoms: N_16  and  C_17
REMARK    9  A    between atoms: C_17  and  C_18
REMARK   10  A    between atoms: C_18  and  O_19
REMARK   11  A    between atoms: C_20  and  C_22
REMARK                            x       y       z     vdW  Elec       q    Type
REMARK                         _______ _______ _______ _____ _____    ______ ____
ROOT
ATOM      1  N   UNL     1      49.043   6.858  15.714  0.00  0.00    +0.000 N 
ATOM      2  C   UNL     1      48.849   5.824  16.654  0.00  0.00    +0.000 C 
ATOM      3  O   UNL     1      48.606   4.675  16.294  0.00  0.00    +0.000 OA
ENDROOT
BRANCH   2   4
ATOM      4  C   UNL     1      48.925   6.121  18.095  0.00  0.00    +0.000 A 
ATOM      5  C   UNL     1      47.958   6.811  18.810  0.00  0.00    +0.000 A 
ATOM      6  S   UNL     1      48.287   6.913  20.483  0.00  0.00    +0.000 S 
ATOM      7  C   UNL     1      49.668   5.932  20.326  0.00  0.00    +0.000 A 
ATOM      8  N   UNL     1      50.371   5.529  21.419  0.00  0.00    +0.000 NA
ATOM      9  C   UNL     1      51.355   4.738  21.149  0.00  0.00    +0.000 A 
ATOM     10  N   UNL     1      51.730   4.354  19.885  0.00  0.00    +0.000 N 
ATOM     11  C   UNL     1      51.133   4.851  18.747  0.00  0.00    +0.000 A 
ATOM     12  O   UNL     1      51.648   4.697  17.643  0.00  0.00    +0.000 OA
ATOM     13  C   UNL     1      49.933   5.625  19.005  0.00  0.00    +0.000 A 
ATOM     14  H   UNL     1      52.561   3.800  19.739  0.00  0.00    +0.000 HD
ENDBRANCH   2   4
BRANCH   1  15
ATOM     15  C   UNL     1      48.978   6.471  14.299  0.00  0.00    +0.000 C 
BRANCH  15  19
ATOM     16  C   UNL     1      45.558   5.844  11.829  0.00  0.00    +0.000 A 
ATOM     17  C   UNL     1      46.276   7.027  11.684  0.00  0.00    +0.000 A 
ATOM     18  C   UNL     1      47.313   7.316  12.580  0.00  0.00    +0.000 A 
ATOM     19  C   UNL     1      47.635   6.416  13.600  0.00  0.00    +0.000 A 
ATOM     20  C   UNL     1      46.781   5.323  13.744  0.00  0.00    +0.000 A 
ATOM     21  N   UNL     1      45.762   5.018  12.889  0.00  0.00    +0.000 NA
BRANCH  16  22
ATOM     22  C   UNL     1      44.561   5.408  10.752  0.00  0.00    +0.000 C 
BRANCH  22  24
ATOM     23  C   UNL     1      43.621   3.182  10.988  0.00  0.00    +0.000 C 
ATOM     24  N   UNL     1      44.673   3.976  10.335  0.00  0.00    +0.000 NA
BRANCH  24  25
ATOM     25  C   UNL     1      44.561   3.871   8.862  0.00  0.00    +0.000 C 
BRANCH  25  26
ATOM     26  C   UNL     1      45.608   2.993   8.209  0.00  0.00    +0.000 A 
ATOM     27  C   UNL     1      46.511   3.500   7.265  0.00  0.00    +0.000 A 
ATOM     28  C   UNL     1      47.465   2.660   6.689  0.00  0.00    +0.000 A 
ATOM     29  C   UNL     1      47.489   1.332   7.081  0.00  0.00    +0.000 A 
ATOM     30  N   UNL     1      46.645   0.805   7.992  0.00  0.00    +0.000 NA
ATOM     31  C   UNL     1      45.726   1.644   8.530  0.00  0.00    +0.000 A 
ENDBRANCH  25  26
ENDBRANCH  24  25
ENDBRANCH  22  24
ENDBRANCH  16  22
ENDBRANCH  15  19
ENDBRANCH   1  15
BRANCH   1  32
ATOM     32  C   UNL     1      49.542   8.197  16.104  0.00  0.00    +0.000 C 
BRANCH  32  33
ATOM     33  C   UNL     1      48.736   9.448  15.733  0.00  0.00    +0.000 C 
BRANCH  33  34
ATOM     34  O   UNL     1      47.341   9.213  15.885  0.00  0.00    +0.000 OA
ATOM     35  H   UNL     1      47.209   8.249  15.870  0.00  0.00    +0.000 HD
ENDBRANCH  33  34
ENDBRANCH  32  33
ENDBRANCH   1  32
TORSDOF 10
ENDMDL
MODEL 3
REMARK VINA RESULT:    -7.146      2.622      3.311
REMARK INTER + INTRA:         -11.839
REMARK INTER:                 -10.471
REMARK INTRA:                  -1.367
REMARK UNBOUND:                -0.724
REMARK  Name = 
REMARK  11 active torsions:
REMARK  status: ('A' for Active; 'I' for Inactive)
REMARK    1  A    between atoms: C_1  and  N_2
REMARK    2  A    between atoms: N_2  and  C_3
REMARK    3  A    between atoms: N_2  and  C_10
REMARK    4  A    between atoms: C_3  and  C_4
REMARK    5  A    between atoms: C_10  and  C_11
REMARK    6  A    between atoms: C_14  and  C_15
REMARK    7  A    between atoms: C_15  and  N_16
REMARK    8  A    between atoms: N_16  and  C_17
REMARK    9  A    between atoms: C_17  and  C_18
REMARK   10  A    between atoms: C_18  and  O_19
REMARK   11  A    between atoms: C_20  and  C_22
REMARK                            x       y       z     vdW  Elec       q    Type
REMARK                         _______ _______ _______ _____ _____    ______ ____
ROOT
ATOM      1  N   UNL     1      48.761   8.595  15.031  0.00  0.00    +0.000 N 
ATOM      2  C   UNL     1      49.854   7.707  15.104  0.00  0.00    +0.000 C 
ATOM      3  O   UNL     1      50.521   7.434  14.108  0.00  0.00    +0.000 OA
ENDROOT
BRANCH   2   4
ATOM      4  C   UNL     1      50.205   7.082  16.392  0.00  0.00    +0.000 A 
ATOM      5  C   UNL     1      51.183   7.550  17.255  0.00  0.00    +0.000 A 
ATOM      6  S   UNL     1      51.290   6.666  18.713  0.00  0.00    +0.000 S 
ATOM      7  C   UNL     1      49.949   5.707  18.292  0.00  0.00    +0.000 A 
ATOM      8  N   UNL     1      49.430   4.803  19.166  0.00  0.00    +0.000 NA
ATOM      9  C   UNL     1      48.377   4.197  18.732  0.00  0.00    +0.000 A 
ATOM     10  N   UNL     1      47.825   4.374  17.487  0.00  0.00    +0.000 N 
ATOM     11  C   UNL     1      48.401   5.173  16.524  0.00  0.00    +0.000 A 
ATOM     12  O   UNL     1      48.040   5.113  15.351  0.00  0.00    +0.000 OA
ATOM     13  C   UNL     1      49.499   5.985  17.015  0.00  0.00    +0.000 A 
ATOM     14  H   UNL     1      47.050   3.805  17.180  0.00  0.00    +0.000 HD
ENDBRANCH   2   4
BRANCH   1  15
ATOM     15  C   UNL     1      48.498   9.196  13.717  0.00  0.00    +0.000 C 
BRANCH  15  19
ATOM     16  C   UNL     1      45.428   6.990  11.741  0.00  0.00    +0.000 A 
ATOM     17  C   UNL     1      46.747   6.564  11.606  0.00  0.00    +0.000 A 
ATOM     18  C   UNL     1      47.780   7.353  12.126  0.00  0.00    +0.000 A 
ATOM     19  C   UNL     1      47.489   8.549  12.789  0.00  0.00    +0.000 A 
ATOM     20  C   UNL     1      46.156   8.955  12.763  0.00  0.00    +0.000 A 
ATOM     21  N   UNL     1      45.129   8.209  12.262  0.00  0.00    +0.000 NA
BRANCH  16  22
ATOM     22  C   UNL     1      44.273   6.058  11.366  0.00  0.00    +0.000 C 
BRANCH  22  24
ATOM     23  C   UNL     1      44.198   3.805  12.267  0.00  0.00    +0.000 C 
ATOM     24  N   UNL     1      44.665   4.632  11.143  0.00  0.00    +0.000 NA
BRANCH  24  25
ATOM     25  C   UNL     1      44.088   4.145   9.869  0.00  0.00    +0.000 C 
BRANCH  25  26
ATOM     26  C   UNL     1      45.058   3.392   8.982  0.00  0.00    +0.000 A 
ATOM     27  C   UNL     1      45.834   4.046   8.017  0.00  0.00    +0.000 A 
ATOM     28  C   UNL     1      46.720   3.318   7.222  0.00  0.00    +0.000 A 
ATOM     29  C   UNL     1      46.808   1.950   7.423  0.00  0.00    +0.000 A 
ATOM     30  N   UNL     1      46.086   1.282   8.348  0.00  0.00    +0.000 NA
ATOM     31  C   UNL     1      45.229   2.016   9.100  0.00  0.00    +0.000 A 
ENDBRANCH  25  26
ENDBRANCH  24  25
ENDBRANCH  22  24
ENDBRANCH  16  22
ENDBRANCH  15  19
ENDBRANCH   1  15
BRANCH   1  32
ATOM     32  C   UNL     1      48.075   9.105  16.241  0.00  0.00    +0.000 C 
BRANCH  32  33
ATOM     33  C   UNL     1      48.637  10.330  16.974  0.00  0.00    +0.000 C 
BRANCH  33  34
ATOM     34  O   UNL     1      47.590  11.219  17.345  0.00  0.00    +0.000 OA
ATOM     35  H   UNL     1      47.846  12.107  17.042  0.00  0.00    +0.000 HD
ENDBRANCH  33  34
ENDBRANCH  32  33
ENDBRANCH   1  32
TORSDOF 10
ENDMDL
MODEL 4
REMARK VINA RESULT:    -7.041      3.696      8.770
REMARK INTER + INTRA:         -11.676
REMARK INTER:                  -9.938
REMARK INTRA:                  -1.737
REMARK UNBOUND:                -0.724
REMARK  Name = 
REMARK  11 active torsions:
REMARK  status: ('A' for Active; 'I' for Inactive)
REMARK    1  A    between atoms: C_1  and  N_2
REMARK    2  A    between atoms: N_2  and  C_3
REMARK    3  A    between atoms: N_2  and  C_10
REMARK    4  A    between atoms: C_3  and  C_4
REMARK    5  A    between atoms: C_10  and  C_11
REMARK    6  A    between atoms: C_14  and  C_15
REMARK    7  A    between atoms: C_15  and  N_16
REMARK    8  A    between atoms: N_16  and  C_17
REMARK    9  A    between atoms: C_17  and  C_18
REMARK   10  A    between atoms: C_18  and  O_19
REMARK   11  A    between atoms: C_20  and  C_22
REMARK                            x       y       z     vdW  Elec       q    Type
REMARK                         _______ _______ _______ _____ _____    ______ ____
ROOT
ATOM      1  N   UNL     1      46.593   7.125  12.566  0.00  0.00    +0.000 N 
ATOM      2  C   UNL     1      45.543   7.170  11.626  0.00  0.00    +0.000 C 
ATOM      3  O   UNL     1      44.899   8.200  11.440  0.00  0.00    +0.000 OA
ENDROOT
BRANCH   2   4
ATOM      4  C   UNL     1      45.197   5.962  10.856  0.00  0.00    +0.000 A 
ATOM      5  C   UNL     1      45.677   5.672   9.588  0.00  0.00    +0.000 A 
ATOM      6  S   UNL     1      45.170   4.151   8.997  0.00  0.00    +0.000 S 
ATOM      7  C   UNL     1      44.397   3.778  10.465  0.00  0.00    +0.000 A 
ATOM      8  N   UNL     1      43.842   2.553  10.676  0.00  0.00    +0.000 NA
ATOM      9  C   UNL     1      43.349   2.396  11.858  0.00  0.00    +0.000 A 
ATOM     10  N   UNL     1      43.314   3.364  12.831  0.00  0.00    +0.000 N 
ATOM     11  C   UNL     1      43.736   4.657  12.610  0.00  0.00    +0.000 A 
ATOM     12  O   UNL     1      43.459   5.557  13.398  0.00  0.00    +0.000 OA
ATOM     13  C   UNL     1      44.431   4.840  11.349  0.00  0.00    +0.000 A 
ATOM     14  H   UNL     1      42.837   3.201  13.705  0.00  0.00    +0.000 HD
ENDBRANCH   2   4
BRANCH   1  15
ATOM     15  C   UNL     1      46.891   8.380  13.269  0.00  0.00    +0.000 C 
BRANCH  15  19
ATOM     16  C   UNL     1      50.366   7.934  15.701  0.00  0.00    +0.000 A 
ATOM     17  C   UNL     1      49.214   8.462  16.276  0.00  0.00    +0.000 A 
ATOM     18  C   UNL     1      48.110   8.749  15.464  0.00  0.00    +0.000 A 
ATOM     19  C   UNL     1      48.159   8.493  14.091  0.00  0.00    +0.000 A 
ATOM     20  C   UNL     1      49.394   8.085  13.588  0.00  0.00    +0.000 A 
ATOM     21  N   UNL     1      50.486   7.800  14.354  0.00  0.00    +0.000 NA
BRANCH  16  22
ATOM     22  C   UNL     1      51.507   7.423  16.585  0.00  0.00    +0.000 C 
BRANCH  22  24
ATOM     23  C   UNL     1      52.855   5.469  17.092  0.00  0.00    +0.000 C 
ATOM     24  N   UNL     1      51.487   5.951  16.847  0.00  0.00    +0.000 NA
BRANCH  24  25
ATOM     25  C   UNL     1      50.620   5.658  18.012  0.00  0.00    +0.000 C 
BRANCH  25  26
ATOM     26  C   UNL     1      49.448   4.746  17.714  0.00  0.00    +0.000 A 
ATOM     27  C   UNL     1      49.628   3.388  17.421  0.00  0.00    +0.000 A 
ATOM     28  C   UNL     1      48.523   2.578  17.156  0.00  0.00    +0.000 A 
ATOM     29  C   UNL     1      47.264   3.153  17.201  0.00  0.00    +0.000 A 
ATOM     30  N   UNL     1      47.045   4.454  17.489  0.00  0.00    +0.000 NA
ATOM     31  C   UNL     1      48.139   5.217  17.735  0.00  0.00    +0.000 A 
ENDBRANCH  25  26
ENDBRANCH  24  25
ENDBRANCH  22  24
ENDBRANCH  16  22
ENDBRANCH  15  19
ENDBRANCH   1  15
BRANCH   1  32
ATOM     32  C   UNL     1      47.519   5.973  12.662  0.00  0.00    +0.000 C 
BRANCH  32  33
ATOM     33  C   UNL     1      47.352   4.955  13.797  0.00  0.00    +0.000 C 
BRANCH  33  34
ATOM     34  O   UNL     1      46.188   5.239  14.563  0.00  0.00    +0.000 OA
ATOM     35  H   UNL     1      46.385   5.002  15.486  0.00  0.00    +0.000 HD
ENDBRANCH  33  34
ENDBRANCH  32  33
ENDBRANCH   1  32
TORSDOF 10
ENDMDL
MODEL 5
REMARK VINA RESULT:    -6.911      2.544      3.614
REMARK INTER + INTRA:         -11.473
REMARK INTER:                 -10.087
REMARK INTRA:                  -1.386
REMARK UNBOUND:                -0.724
REMARK  Name = 
REMARK  11 active torsions:
REMARK  status: ('A' for Active; 'I' for Inactive)
REMARK    1  A    between atoms: C_1  and  N_2
REMARK    2  A    between atoms: N_2  and  C_3
REMARK    3  A    between atoms: N_2  and  C_10
REMARK    4  A    between atoms: C_3  and  C_4
REMARK    5  A    between atoms: C_10  and  C_11
REMARK    6  A    between atoms: C_14  and  C_15
REMARK    7  A    between atoms: C_15  and  N_16
REMARK    8  A    between atoms: N_16  and  C_17
REMARK    9  A    between atoms: C_17  and  C_18
REMARK   10  A    between atoms: C_18  and  O_19
REMARK   11  A    between atoms: C_20  and  C_22
REMARK                            x       y       z     vdW  Elec       q    Type
REMARK                         _______ _______ _______ _____ _____    ______ ____
ROOT
ATOM      1  N   UNL     1      48.998   8.533  13.835  0.00  0.00    +0.000 N 
ATOM      2  C   UNL     1      48.614   8.492  15.192  0.00  0.00    +0.000 C 
ATOM      3  O   UNL     1      47.561   9.000  15.572  0.00  0.00    +0.000 OA
ENDROOT
BRANCH   2   4
ATOM      4  C   UNL     1      49.490   7.840  16.182  0.00  0.00    +0.000 A 
ATOM      5  C   UNL     1      50.471   8.490  16.915  0.00  0.00    +0.000 A 
ATOM      6  S   UNL     1      51.255   7.484  18.051  0.00  0.00    +0.000 S 
ATOM      7  C   UNL     1      50.225   6.179  17.687  0.00  0.00    +0.000 A 
ATOM      8  N   UNL     1      50.286   5.018  18.394  0.00  0.00    +0.000 NA
ATOM      9  C   UNL     1      49.401   4.145  18.046  0.00  0.00    +0.000 A 
ATOM     10  N   UNL     1      48.496   4.305  17.027  0.00  0.00    +0.000 N 
ATOM     11  C   UNL     1      48.496   5.406  16.197  0.00  0.00    +0.000 A 
ATOM     12  O   UNL     1      47.859   5.408  15.147  0.00  0.00    +0.000 OA
ATOM     13  C   UNL     1      49.372   6.474  16.641  0.00  0.00    +0.000 A 
ATOM     14  H   UNL     1      47.887   3.548  16.752  0.00  0.00    +0.000 HD
ENDBRANCH   2   4
BRANCH   1  15
ATOM     15  C   UNL     1      48.054   9.175  12.912  0.00  0.00    +0.000 C 
BRANCH  15  19
ATOM     16  C   UNL     1      45.025   6.515  11.519  0.00  0.00    +0.000 A 
ATOM     17  C   UNL     1      46.357   6.128  11.402  0.00  0.00    +0.000 A 
ATOM     18  C   UNL     1      47.369   7.043  11.719  0.00  0.00    +0.000 A 
ATOM     19  C   UNL     1      47.044   8.327  12.166  0.00  0.00    +0.000 A 
ATOM     20  C   UNL     1      45.691   8.663  12.131  0.00  0.00    +0.000 A 
ATOM     21  N   UNL     1      44.685   7.795  11.824  0.00  0.00    +0.000 NA
BRANCH  16  22
ATOM     22  C   UNL     1      43.905   5.481  11.376  0.00  0.00    +0.000 C 
BRANCH  22  24
ATOM     23  C   UNL     1      43.834   3.358  12.552  0.00  0.00    +0.000 C 
ATOM     24  N   UNL     1      44.362   4.057  11.370  0.00  0.00    +0.000 NA
BRANCH  24  25
ATOM     25  C   UNL     1      43.908   3.388  10.129  0.00  0.00    +0.000 C 
BRANCH  25  26
ATOM     26  C   UNL     1      44.987   3.193   9.085  0.00  0.00    +0.000 A 
ATOM     27  C   UNL     1      45.526   1.929   8.808  0.00  0.00    +0.000 A 
ATOM     28  C   UNL     1      46.516   1.790   7.835  0.00  0.00    +0.000 A 
ATOM     29  C   UNL     1      46.936   2.924   7.160  0.00  0.00    +0.000 A 
ATOM     30  N   UNL     1      46.437   4.158   7.388  0.00  0.00    +0.000 NA
ATOM     31  C   UNL     1      45.481   4.263   8.343  0.00  0.00    +0.000 A 
ENDBRANCH  25  26
ENDBRANCH  24  25
ENDBRANCH  22  24
ENDBRANCH  16  22
ENDBRANCH  15  19
ENDBRANCH   1  15
BRANCH   1  32
ATOM     32  C   UNL     1      50.144   7.753  13.315  0.00  0.00    +0.000 C 
BRANCH  32  33
ATOM     33  C   UNL     1      51.386   8.484  12.789  0.00  0.00    +0.000 C 
BRANCH  33  34
ATOM     34  O   UNL     1      52.564   7.990  13.413  0.00  0.00    +0.000 OA
ATOM     35  H   UNL     1      52.822   8.637  14.093  0.00  0.00    +0.000 HD
ENDBRANCH  33  34
ENDBRANCH  32  33
ENDBRANCH   1  32
TORSDOF 10
ENDMDL
MODEL 6
REMARK VINA RESULT:    -6.718      4.690      6.068
REMARK INTER + INTRA:         -11.173
REMARK INTER:                  -9.735
REMARK INTRA:                  -1.438
REMARK UNBOUND:                -0.724
REMARK  Name = 
REMARK  11 active torsions:
REMARK  status: ('A' for Active; 'I' for Inactive)
REMARK    1  A    between atoms: C_1  and  N_2
REMARK    2  A    between atoms: N_2  and  C_3
REMARK    3  A    between atoms: N_2  and  C_10
REMARK    4  A    between atoms: C_3  and  C_4
REMARK    5  A    between atoms: C_10  and  C_11
REMARK    6  A    between atoms: C_14  and  C_15
REMARK    7  A    between atoms: C_15  and  N_16
REMARK    8  A    between atoms: N_16  and  C_17
REMARK    9  A    between atoms: C_17  and  C_18
REMARK   10  A    between atoms: C_18  and  O_19
REMARK   11  A    between atoms: C_20  and  C_22
REMARK                            x       y       z     vdW  Elec       q    Type
REMARK                         _______ _______ _______ _____ _____    ______ ____
ROOT
ATOM      1  N   UNL     1      48.991   9.516  13.090  0.00  0.00    +0.000 N 
ATOM      2  C   UNL     1      49.373  10.165  11.898  0.00  0.00    +0.000 C 
ATOM      3  O   UNL     1      48.536  10.525  11.073  0.00  0.00    +0.000 OA
ENDROOT
BRANCH   2   4
ATOM      4  C   UNL     1      50.800  10.410  11.622  0.00  0.00    +0.000 A 
ATOM      5  C   UNL     1      51.433  11.633  11.776  0.00  0.00    +0.000 A 
ATOM      6  S   UNL     1      53.113  11.577  11.468  0.00  0.00    +0.000 S 
ATOM      7  C   UNL     1      53.069   9.892  11.241  0.00  0.00    +0.000 A 
ATOM      8  N   UNL     1      54.212   9.179  11.050  0.00  0.00    +0.000 NA
ATOM      9  C   UNL     1      54.028   7.905  10.956  0.00  0.00    +0.000 A 
ATOM     10  N   UNL     1      52.804   7.283  10.986  0.00  0.00    +0.000 N 
ATOM     11  C   UNL     1      51.616   7.980  11.036  0.00  0.00    +0.000 A 
ATOM     12  O   UNL     1      50.546   7.425  10.803  0.00  0.00    +0.000 OA
ATOM     13  C   UNL     1      51.779   9.399  11.291  0.00  0.00    +0.000 A 
ATOM     14  H   UNL     1      52.724   6.290  10.823  0.00  0.00    +0.000 HD
ENDBRANCH   2   4
BRANCH   1  15
ATOM     15  C   UNL     1      47.548   9.337  13.300  0.00  0.00    +0.000 C 
BRANCH  15  19
ATOM     16  C   UNL     1      45.045   6.492  11.343  0.00  0.00    +0.000 A 
ATOM     17  C   UNL     1      46.398   6.200  11.488  0.00  0.00    +0.000 A 
ATOM     18  C   UNL     1      47.261   7.178  11.997  0.00  0.00    +0.000 A 
ATOM     19  C   UNL     1      46.766   8.431  12.372  0.00  0.00    +0.000 A 
ATOM     20  C   UNL     1      45.426   8.673  12.072  0.00  0.00    +0.000 A 
ATOM     21  N   UNL     1      44.563   7.742  11.574  0.00  0.00    +0.000 NA
BRANCH  16  22
ATOM     22  C   UNL     1      44.050   5.385  10.983  0.00  0.00    +0.000 C 
BRANCH  22  24
ATOM     23  C   UNL     1      44.260   3.229  12.079  0.00  0.00    +0.000 C 
ATOM     24  N   UNL     1      44.642   4.014  10.895  0.00  0.00    +0.000 NA
BRANCH  24  25
ATOM     25  C   UNL     1      44.176   3.345   9.658  0.00  0.00    +0.000 C 
BRANCH  25  26
ATOM     26  C   UNL     1      45.277   2.970   8.689  0.00  0.00    +0.000 A 
ATOM     27  C   UNL     1      45.889   3.923   7.864  0.00  0.00    +0.000 A 
ATOM     28  C   UNL     1      46.904   3.539   6.987  0.00  0.00    +0.000 A 
ATOM     29  C   UNL     1      47.283   2.207   6.967  0.00  0.00    +0.000 A 
ATOM     30  N   UNL     1      46.727   1.258   7.751  0.00  0.00    +0.000 NA
ATOM     31  C   UNL     1      45.739   1.661   8.588  0.00  0.00    +0.000 A 
ENDBRANCH  25  26
ENDBRANCH  24  25
ENDBRANCH  22  24
ENDBRANCH  16  22
ENDBRANCH  15  19
ENDBRANCH   1  15
BRANCH   1  32
ATOM     32  C   UNL     1      49.947   9.262  14.192  0.00  0.00    +0.000 C 
BRANCH  32  33
ATOM     33  C   UNL     1      50.081   7.849  14.773  0.00  0.00    +0.000 C 
BRANCH  33  34
ATOM     34  O   UNL     1      49.961   6.869  13.750  0.00  0.00    +0.000 OA
ATOM     35  H   UNL     1      49.030   6.587  13.729  0.00  0.00    +0.000 HD
ENDBRANCH  33  34
ENDBRANCH  32  33
ENDBRANCH   1  32
TORSDOF 10
ENDMDL
MODEL 7
REMARK VINA RESULT:    -6.261      4.015      8.825
REMARK INTER + INTRA:         -10.462
REMARK INTER:                  -9.124
REMARK INTRA:                  -1.339
REMARK UNBOUND:                -0.724
REMARK  Name = 
REMARK  11 active torsions:
REMARK  status: ('A' for Active; 'I' for Inactive)
REMARK    1  A    between atoms: C_1  and  N_2
REMARK    2  A    between atoms: N_2  and  C_3
REMARK    3  A    between atoms: N_2  and  C_10
REMARK    4  A    between atoms: C_3  and  C_4
REMARK    5  A    between atoms: C_10  and  C_11
REMARK    6  A    between atoms: C_14  and  C_15
REMARK    7  A    between atoms: C_15  and  N_16
REMARK    8  A    between atoms: N_16  and  C_17
REMARK    9  A    between atoms: C_17  and  C_18
REMARK   10  A    between atoms: C_18  and  O_19
REMARK   11  A    between atoms: C_20  and  C_22
REMARK                            x       y       z     vdW  Elec       q    Type
REMARK                         _______ _______ _______ _____ _____    ______ ____
ROOT
ATOM      1  N   UNL     1      46.658   7.875  12.294  0.00  0.00    +0.000 N 
ATOM      2  C   UNL     1      47.040   6.652  11.704  0.00  0.00    +0.000 C 
ATOM      3  O   UNL     1      48.200   6.251  11.763  0.00  0.00    +0.000 OA
ENDROOT
BRANCH   2   4
ATOM      4  C   UNL     1      46.038   5.838  10.992  0.00  0.00    +0.000 A 
ATOM      5  C   UNL     1      45.914   5.772   9.613  0.00  0.00    +0.000 A 
ATOM      6  S   UNL     1      44.721   4.668   9.086  0.00  0.00    +0.000 S 
ATOM      7  C   UNL     1      44.419   4.151  10.679  0.00  0.00    +0.000 A 
ATOM      8  N   UNL     1      43.568   3.122  10.934  0.00  0.00    +0.000 NA
ATOM      9  C   UNL     1      43.488   2.802  12.182  0.00  0.00    +0.000 A 
ATOM     10  N   UNL     1      44.143   3.447  13.202  0.00  0.00    +0.000 N 
ATOM     11  C   UNL     1      44.902   4.579  13.001  0.00  0.00    +0.000 A 
ATOM     12  O   UNL     1      45.258   5.279  13.945  0.00  0.00    +0.000 OA
ATOM     13  C   UNL     1      45.138   4.887  11.603  0.00  0.00    +0.000 A 
ATOM     14  H   UNL     1      43.971   3.199  14.165  0.00  0.00    +0.000 HD
ENDBRANCH   2   4
BRANCH   1  15
ATOM     15  C   UNL     1      47.710   8.609  13.008  0.00  0.00    +0.000 C 
BRANCH  15  19
ATOM     16  C   UNL     1      49.315   7.987  16.911  0.00  0.00    +0.000 A 
ATOM     17  C   UNL     1      49.654   7.091  15.901  0.00  0.00    +0.000 A 
ATOM     18  C   UNL     1      49.027   7.193  14.653  0.00  0.00    +0.000 A 
ATOM     19  C   UNL     1      48.082   8.197  14.419  0.00  0.00    +0.000 A 
ATOM     20  C   UNL     1      47.717   8.964  15.524  0.00  0.00    +0.000 A 
ATOM     21  N   UNL     1      48.307   8.884  16.751  0.00  0.00    +0.000 NA
BRANCH  16  22
ATOM     22  C   UNL     1      50.124   8.028  18.210  0.00  0.00    +0.000 C 
BRANCH  22  24
ATOM     23  C   UNL     1      51.261   6.845  20.000  0.00  0.00    +0.000 C 
ATOM     24  N   UNL     1      50.369   6.694  18.840  0.00  0.00    +0.000 NA
BRANCH  24  25
ATOM     25  C   UNL     1      49.081   6.090  19.254  0.00  0.00    +0.000 C 
BRANCH  25  26
ATOM     26  C   UNL     1      48.647   4.898  18.428  0.00  0.00    +0.000 A 
ATOM     27  C   UNL     1      49.553   3.903  18.037  0.00  0.00    +0.000 A 
ATOM     28  C   UNL     1      49.114   2.817  17.278  0.00  0.00    +0.000 A 
ATOM     29  C   UNL     1      47.772   2.755  16.938  0.00  0.00    +0.000 A 
ATOM     30  N   UNL     1      46.865   3.686  17.302  0.00  0.00    +0.000 NA
ATOM     31  C   UNL     1      47.323   4.732  18.033  0.00  0.00    +0.000 A 
ENDBRANCH  25  26
ENDBRANCH  24  25
ENDBRANCH  22  24
ENDBRANCH  16  22
ENDBRANCH  15  19
ENDBRANCH   1  15
BRANCH   1  32
ATOM     32  C   UNL     1      45.239   8.280  12.424  0.00  0.00    +0.000 C 
BRANCH  32  33
ATOM     33  C   UNL     1      44.679   9.387  11.522  0.00  0.00    +0.000 C 
BRANCH  33  34
ATOM     34  O   UNL     1      43.851  10.273  12.266  0.00  0.00    +0.000 OA
ATOM     35  H   UNL     1      44.087  11.178  12.001  0.00  0.00    +0.000 HD
ENDBRANCH  33  34
ENDBRANCH  32  33
ENDBRANCH   1  32
TORSDOF 10
ENDMDL
MODEL 8
REMARK VINA RESULT:    -6.245      3.586      5.080
REMARK INTER + INTRA:         -10.438
REMARK INTER:                  -9.100
REMARK INTRA:                  -1.339
REMARK UNBOUND:                -0.724
REMARK  Name = 
REMARK  11 active torsions:
REMARK  status: ('A' for Active; 'I' for Inactive)
REMARK    1  A    between atoms: C_1  and  N_2
REMARK    2  A    between atoms: N_2  and  C_3
REMARK    3  A    between atoms: N_2  and  C_10
REMARK    4  A    between atoms: C_3  and  C_4
REMARK    5  A    between atoms: C_10  and  C_11
REMARK    6  A    between atoms: C_14  and  C_15
REMARK    7  A    between atoms: C_15  and  N_16
REMARK    8  A    between atoms: N_16  and  C_17
REMARK    9  A    between atoms: C_17  and  C_18
REMARK   10  A    between atoms: C_18  and  O_19
REMARK   11  A    between atoms: C_20  and  C_22
REMARK                            x       y       z     vdW  Elec       q    Type
REMARK                         _______ _______ _______ _____ _____    ______ ____
ROOT
ATOM      1  N   UNL     1      49.476   7.884  14.385  0.00  0.00    +0.000 N 
ATOM      2  C   UNL     1      50.059   9.083  13.923  0.00  0.00    +0.000 C 
ATOM      3  O   UNL     1      50.295   9.258  12.729  0.00  0.00    +0.000 OA
ENDROOT
BRANCH   2   4
ATOM      4  C   UNL     1      50.405  10.146  14.883  0.00  0.00    +0.000 A 
ATOM      5  C   UNL     1      49.672  11.307  15.071  0.00  0.00    +0.000 A 
ATOM      6  S   UNL     1      50.275  12.302  16.323  0.00  0.00    +0.000 S 
ATOM      7  C   UNL     1      51.461  11.154  16.737  0.00  0.00    +0.000 A 
ATOM      8  N   UNL     1      52.265  11.333  17.819  0.00  0.00    +0.000 NA
ATOM      9  C   UNL     1      53.071  10.351  18.044  0.00  0.00    +0.000 A 
ATOM     10  N   UNL     1      53.181   9.229  17.260  0.00  0.00    +0.000 N 
ATOM     11  C   UNL     1      52.487   9.074  16.080  0.00  0.00    +0.000 A 
ATOM     12  O   UNL     1      52.792   8.197  15.276  0.00  0.00    +0.000 OA
ATOM     13  C   UNL     1      51.465  10.082  15.864  0.00  0.00    +0.000 A 
ATOM     14  H   UNL     1      53.891   8.537  17.446  0.00  0.00    +0.000 HD
ENDBRANCH   2   4
BRANCH   1  15
ATOM     15  C   UNL     1      49.135   6.890  13.359  0.00  0.00    +0.000 C 
BRANCH  15  19
ATOM     16  C   UNL     1      45.312   5.736  11.863  0.00  0.00    +0.000 A 
ATOM     17  C   UNL     1      46.061   6.657  11.136  0.00  0.00    +0.000 A 
ATOM     18  C   UNL     1      47.251   7.156  11.680  0.00  0.00    +0.000 A 
ATOM     19  C   UNL     1      47.691   6.720  12.934  0.00  0.00    +0.000 A 
ATOM     20  C   UNL     1      46.814   5.897  13.638  0.00  0.00    +0.000 A 
ATOM     21  N   UNL     1      45.648   5.398  13.136  0.00  0.00    +0.000 NA
BRANCH  16  22
ATOM     22  C   UNL     1      44.122   5.025  11.213  0.00  0.00    +0.000 C 
BRANCH  22  24
ATOM     23  C   UNL     1      43.510   2.675  11.192  0.00  0.00    +0.000 C 
ATOM     24  N   UNL     1      44.432   3.679  10.639  0.00  0.00    +0.000 NA
BRANCH  24  25
ATOM     25  C   UNL     1      44.321   3.724   9.163  0.00  0.00    +0.000 C 
BRANCH  25  26
ATOM     26  C   UNL     1      45.398   2.957   8.424  0.00  0.00    +0.000 A 
ATOM     27  C   UNL     1      46.243   3.581   7.496  0.00  0.00    +0.000 A 
ATOM     28  C   UNL     1      47.226   2.840   6.838  0.00  0.00    +0.000 A 
ATOM     29  C   UNL     1      47.339   1.492   7.136  0.00  0.00    +0.000 A 
ATOM     30  N   UNL     1      46.554   0.854   8.030  0.00  0.00    +0.000 NA
ATOM     31  C   UNL     1      45.603   1.599   8.647  0.00  0.00    +0.000 A 
ENDBRANCH  25  26
ENDBRANCH  24  25
ENDBRANCH  22  24
ENDBRANCH  16  22
ENDBRANCH  15  19
ENDBRANCH   1  15
BRANCH   1  32
ATOM     32  C   UNL     1      48.988   7.728  15.774  0.00  0.00    +0.000 C 
BRANCH  32  33
ATOM     33  C   UNL     1      49.409   6.503  16.596  0.00  0.00    +0.000 C 
BRANCH  33  34
ATOM     34  O   UNL     1      50.738   6.112  16.273  0.00  0.00    +0.000 OA
ATOM     35  H   UNL     1      51.214   5.988  17.112  0.00  0.00    +0.000 HD
ENDBRANCH  33  34
ENDBRANCH  32  33
ENDBRANCH   1  32
TORSDOF 10
ENDMDL
MODEL 9
REMARK VINA RESULT:    -6.087      4.008      8.497
REMARK INTER + INTRA:         -10.192
REMARK INTER:                  -7.797
REMARK INTRA:                  -2.396
REMARK UNBOUND:                -0.724
REMARK  Name = 
REMARK  11 active torsions:
REMARK  status: ('A' for Active; 'I' for Inactive)
REMARK    1  A    between atoms: C_1  and  N_2
REMARK    2  A    between atoms: N_2  and  C_3
REMARK    3  A    between atoms: N_2  and  C_10
REMARK    4  A    between atoms: C_3  and  C_4
REMARK    5  A    between atoms: C_10  and  C_11
REMARK    6  A    between atoms: C_14  and  C_15
REMARK    7  A    between atoms: C_15  and  N_16
REMARK    8  A    between atoms: N_16  and  C_17
REMARK    9  A    between atoms: C_17  and  C_18
REMARK   10  A    between atoms: C_18  and  O_19
REMARK   11  A    between atoms: C_20  and  C_22
REMARK                            x       y       z     vdW  Elec       q    Type
REMARK                         _______ _______ _______ _____ _____    ______ ____
ROOT
ATOM      1  N   UNL     1      49.498   9.220  14.147  0.00  0.00    +0.000 N 
ATOM      2  C   UNL     1      49.084   8.346  13.120  0.00  0.00    +0.000 C 
ATOM      3  O   UNL     1      49.902   7.758  12.416  0.00  0.00    +0.000 OA
ENDROOT
BRANCH   2   4
ATOM      4  C   UNL     1      47.646   8.138  12.871  0.00  0.00    +0.000 A 
ATOM      5  C   UNL     1      46.830   9.021  12.181  0.00  0.00    +0.000 A 
ATOM      6  S   UNL     1      45.232   8.456  11.973  0.00  0.00    +0.000 S 
ATOM      7  C   UNL     1      45.611   6.959  12.689  0.00  0.00    +0.000 A 
ATOM      8  N   UNL     1      44.700   5.950  12.730  0.00  0.00    +0.000 NA
ATOM      9  C   UNL     1      45.152   4.855  13.245  0.00  0.00    +0.000 A 
ATOM     10  N   UNL     1      46.411   4.693  13.767  0.00  0.00    +0.000 N 
ATOM     11  C   UNL     1      47.313   5.730  13.872  0.00  0.00    +0.000 A 
ATOM     12  O   UNL     1      48.319   5.626  14.568  0.00  0.00    +0.000 OA
ATOM     13  C   UNL     1      46.904   6.935  13.175  0.00  0.00    +0.000 A 
ATOM     14  H   UNL     1      46.672   3.836  14.231  0.00  0.00    +0.000 HD
ENDBRANCH   2   4
BRANCH   1  15
ATOM     15  C   UNL     1      50.947   9.348  14.347  0.00  0.00    +0.000 C 
BRANCH  15  19
ATOM     16  C   UNL     1      52.125   7.164  17.817  0.00  0.00    +0.000 A 
ATOM     17  C   UNL     1      52.399   8.528  17.763  0.00  0.00    +0.000 A 
ATOM     18  C   UNL     1      52.151   9.232  16.578  0.00  0.00    +0.000 A 
ATOM     19  C   UNL     1      51.618   8.576  15.465  0.00  0.00    +0.000 A 
ATOM     20  C   UNL     1      51.496   7.191  15.572  0.00  0.00    +0.000 A 
ATOM     21  N   UNL     1      51.732   6.478  16.711  0.00  0.00    +0.000 NA
BRANCH  16  22
ATOM     22  C   UNL     1      52.193   6.415  19.150  0.00  0.00    +0.000 C 
BRANCH  22  24
ATOM     23  C   UNL     1      52.744   4.185  19.936  0.00  0.00    +0.000 C 
ATOM     24  N   UNL     1      51.842   4.963  19.073  0.00  0.00    +0.000 NA
BRANCH  24  25
ATOM     25  C   UNL     1      50.433   4.765  19.486  0.00  0.00    +0.000 C 
BRANCH  25  26
ATOM     26  C   UNL     1      49.563   4.078  18.454  0.00  0.00    +0.000 A 
ATOM     27  C   UNL     1      48.185   4.321  18.372  0.00  0.00    +0.000 A 
ATOM     28  C   UNL     1      47.417   3.672  17.404  0.00  0.00    +0.000 A 
ATOM     29  C   UNL     1      48.057   2.799  16.539  0.00  0.00    +0.000 A 
ATOM     30  N   UNL     1      49.382   2.544  16.576  0.00  0.00    +0.000 NA
ATOM     31  C   UNL     1      50.100   3.185  17.531  0.00  0.00    +0.000 A 
ENDBRANCH  25  26
ENDBRANCH  24  25
ENDBRANCH  22  24
ENDBRANCH  16  22
ENDBRANCH  15  19
ENDBRANCH   1  15
BRANCH   1  32
ATOM     32  C   UNL     1      48.551   9.774  15.141  0.00  0.00    +0.000 C 
BRANCH  32  33
ATOM     33  C   UNL     1      48.489   9.173  16.551  0.00  0.00    +0.000 C 
BRANCH  33  34
ATOM     34  O   UNL     1      48.170   7.788  16.496  0.00  0.00    +0.000 OA
ATOM     35  H   UNL     1      48.333   7.420  17.381  0.00  0.00    +0.000 HD
ENDBRANCH  33  34
ENDBRANCH  32  33
ENDBRANCH   1  32
TORSDOF 10
ENDMDL
