MODEL 1
REMARK VINA RESULT:    -7.923      0.000      0.000
REMARK INTER + INTRA:         -10.929
REMARK INTER:                  -9.776
REMARK INTRA:                  -1.153
REMARK UNBOUND:                -1.153
REMARK  Name = 
REMARK  4 active torsions:
REMARK  status: ('A' for Active; 'I' for Inactive)
REMARK    1  A    between atoms: C_7  and  N_8
REMARK    2  A    between atoms: N_8  and  C_9
REMARK    3  A    between atoms: C_9  and  C_10
REMARK    4  A    between atoms: C_14  and  C_15
REMARK                            x       y       z     vdW  Elec       q    Type
REMARK                         _______ _______ _______ _____ _____    ______ ____
ROOT
ATOM      1  C   UNL     1      44.071   5.142  11.126  0.00  0.00    +0.000 A 
ATOM      2  C   UNL     1      43.272   4.241  11.841  0.00  0.00    +0.000 A 
ATOM      3  C   UNL     1      43.277   2.888  11.515  0.00  0.00    +0.000 A 
ATOM      4  C   UNL     1      44.076   2.424  10.465  0.00  0.00    +0.000 A 
ATOM      5  C   UNL     1      44.886   3.295   9.717  0.00  0.00    +0.000 A 
ATOM      6  C   UNL     1      44.889   4.653  10.092  0.00  0.00    +0.000 A 
ENDROOT
BRANCH   5   7
ATOM      7  C   UNL     1      45.624   2.836   8.517  0.00  0.00    +0.000 A 
ATOM      8  C   UNL     1      45.920   3.726   7.467  0.00  0.00    +0.000 A 
ATOM      9  C   UNL     1      46.699   3.338   6.372  0.00  0.00    +0.000 A 
ATOM     10  C   UNL     1      47.209   2.047   6.305  0.00  0.00    +0.000 A 
ATOM     11  C   UNL     1      46.918   1.138   7.317  0.00  0.00    +0.000 A 
ATOM     12  C   UNL     1      46.126   1.527   8.405  0.00  0.00    +0.000 A 
ENDBRANCH   5   7
BRANCH   1  13
ATOM     13  C   UNL     1      43.987   6.626  11.398  0.00  0.00    +0.000 C 
BRANCH  13  14
ATOM     14  N   UNL     1      44.687   6.973  12.622  0.00  0.00    +0.000 N 
ATOM     15  H   UNL     1      44.198   6.668  13.457  0.00  0.00    +0.000 HD
BRANCH  14  22
ATOM     16 CL   UNL     1      46.318   4.438  14.013  0.00  0.00    +0.000 Cl
ATOM     17  C   UNL     1      46.894   5.866  13.235  0.00  0.00    +0.000 A 
ATOM     18  N   UNL     1      48.252   5.852  13.210  0.00  0.00    +0.000 NA
ATOM     19  C   UNL     1      48.872   6.900  12.642  0.00  0.00    +0.000 A 
ATOM     20  C   UNL     1      48.197   7.973  12.098  0.00  0.00    +0.000 A 
ATOM     21  C   UNL     1      46.800   7.963  12.146  0.00  0.00    +0.000 A 
ATOM     22  C   UNL     1      46.081   6.907  12.740  0.00  0.00    +0.000 A 
ENDBRANCH  14  22
ENDBRANCH  13  14
ENDBRANCH   1  13
TORSDOF 4
ENDMDL
MODEL 2
REMARK VINA RESULT:    -7.116      3.058      6.362
REMARK INTER + INTRA:          -9.933
REMARK INTER:                  -9.186
REMARK INTRA:                  -0.747
REMARK UNBOUND:                -1.153
REMARK  Name = 
REMARK  4 active torsions:
REMARK  status: ('A' for Active; 'I' for Inactive)
REMARK    1  A    between atoms: C_7  and  N_8
REMARK    2  A    between atoms: N_8  and  C_9
REMARK    3  A    between atoms: C_9  and  C_10
REMARK    4  A    between atoms: C_14  and  C_15
REMARK                            x       y       z     vdW  Elec       q    Type
REMARK                         _______ _______ _______ _____ _____    ______ ____
ROOT
ATOM      1  C   UNL     1      44.244   3.600  10.442  0.00  0.00    +0.000 A 
ATOM      2  C   UNL     1      43.566   3.067  11.544  0.00  0.00    +0.000 A 
ATOM      3  C   UNL     1      43.584   3.732  12.768  0.00  0.00    +0.000 A 
ATOM      4  C   UNL     1      44.287   4.934  12.901  0.00  0.00    +0.000 A 
ATOM      5  C   UNL     1      44.988   5.498  11.821  0.00  0.00    +0.000 A 
ATOM      6  C   UNL     1      44.923   4.823  10.586  0.00  0.00    +0.000 A 
ENDROOT
BRANCH   5   7
ATOM      7  C   UNL     1      45.850   6.692  11.990  0.00  0.00    +0.000 A 
ATOM      8  C   UNL     1      45.348   7.867  12.582  0.00  0.00    +0.000 A 
ATOM      9  C   UNL     1      46.170   8.969  12.839  0.00  0.00    +0.000 A 
ATOM     10  C   UNL     1      47.521   8.919  12.516  0.00  0.00    +0.000 A 
ATOM     11  C   UNL     1      48.043   7.780  11.912  0.00  0.00    +0.000 A 
ATOM     12  C   UNL     1      47.213   6.683  11.643  0.00  0.00    +0.000 A 
ENDBRANCH   5   7
BRANCH   1  13
ATOM     13  C   UNL     1      44.324   2.829   9.144  0.00  0.00    +0.000 C 
BRANCH  13  14
ATOM     14  N   UNL     1      45.569   2.088   9.054  0.00  0.00    +0.000 N 
ATOM     15  H   UNL     1      45.533   1.196   9.535  0.00  0.00    +0.000 HD
BRANCH  14  22
ATOM     16 CL   UNL     1      46.880  -0.673   7.758  0.00  0.00    +0.000 Cl
ATOM     17  C   UNL     1      46.898   0.960   7.202  0.00  0.00    +0.000 A 
ATOM     18  N   UNL     1      47.557   1.027   6.016  0.00  0.00    +0.000 NA
ATOM     19  C   UNL     1      47.672   2.234   5.438  0.00  0.00    +0.000 A 
ATOM     20  C   UNL     1      47.163   3.389   5.994  0.00  0.00    +0.000 A 
ATOM     21  C   UNL     1      46.496   3.290   7.219  0.00  0.00    +0.000 A 
ATOM     22  C   UNL     1      46.351   2.061   7.892  0.00  0.00    +0.000 A 
ENDBRANCH  14  22
ENDBRANCH  13  14
ENDBRANCH   1  13
TORSDOF 4
ENDMDL
MODEL 3
REMARK VINA RESULT:    -6.946      2.521      6.173
REMARK INTER + INTRA:          -9.724
REMARK INTER:                  -8.921
REMARK INTRA:                  -0.802
REMARK UNBOUND:                -1.153
REMARK  Name = 
REMARK  4 active torsions:
REMARK  status: ('A' for Active; 'I' for Inactive)
REMARK    1  A    between atoms: C_7  and  N_8
REMARK    2  A    between atoms: N_8  and  C_9
REMARK    3  A    between atoms: C_9  and  C_10
REMARK    4  A    between atoms: C_14  and  C_15
REMARK                            x       y       z     vdW  Elec       q    Type
REMARK                         _______ _______ _______ _____ _____    ______ ____
ROOT
ATOM      1  C   UNL     1      44.935   4.945  11.169  0.00  0.00    +0.000 A 
ATOM      2  C   UNL     1      45.150   3.990  12.169  0.00  0.00    +0.000 A 
ATOM      3  C   UNL     1      46.095   4.217  13.166  0.00  0.00    +0.000 A 
ATOM      4  C   UNL     1      46.839   5.401  13.167  0.00  0.00    +0.000 A 
ATOM      5  C   UNL     1      46.661   6.382  12.177  0.00  0.00    +0.000 A 
ATOM      6  C   UNL     1      45.673   6.142  11.202  0.00  0.00    +0.000 A 
ENDROOT
BRANCH   5   7
ATOM      7  C   UNL     1      47.542   7.571  12.090  0.00  0.00    +0.000 A 
ATOM      8  C   UNL     1      48.922   7.431  11.847  0.00  0.00    +0.000 A 
ATOM      9  C   UNL     1      49.752   8.542  11.664  0.00  0.00    +0.000 A 
ATOM     10  C   UNL     1      49.218   9.824  11.713  0.00  0.00    +0.000 A 
ATOM     11  C   UNL     1      47.862   9.996  11.970  0.00  0.00    +0.000 A 
ATOM     12  C   UNL     1      47.036   8.882  12.167  0.00  0.00    +0.000 A 
ENDBRANCH   5   7
BRANCH   1  13
ATOM     13  C   UNL     1      43.995   4.658  10.021  0.00  0.00    +0.000 C 
BRANCH  13  14
ATOM     14  N   UNL     1      44.709   4.624   8.757  0.00  0.00    +0.000 N 
ATOM     15  H   UNL     1      45.075   5.531   8.486  0.00  0.00    +0.000 HD
BRANCH  14  22
ATOM     16 CL   UNL     1      44.224   1.477   9.695  0.00  0.00    +0.000 Cl
ATOM     17  C   UNL     1      45.401   2.179   8.648  0.00  0.00    +0.000 A 
ATOM     18  N   UNL     1      46.204   1.202   8.150  0.00  0.00    +0.000 NA
ATOM     19  C   UNL     1      47.188   1.576   7.316  0.00  0.00    +0.000 A 
ATOM     20  C   UNL     1      47.417   2.888   6.956  0.00  0.00    +0.000 A 
ATOM     21  C   UNL     1      46.580   3.871   7.490  0.00  0.00    +0.000 A 
ATOM     22  C   UNL     1      45.537   3.558   8.385  0.00  0.00    +0.000 A 
ENDBRANCH  14  22
ENDBRANCH  13  14
ENDBRANCH   1  13
TORSDOF 4
ENDMDL
MODEL 4
REMARK VINA RESULT:    -6.742      2.878      6.744
REMARK INTER + INTRA:          -9.471
REMARK INTER:                  -8.591
REMARK INTRA:                  -0.881
REMARK UNBOUND:                -1.153
REMARK  Name = 
REMARK  4 active torsions:
REMARK  status: ('A' for Active; 'I' for Inactive)
REMARK    1  A    between atoms: C_7  and  N_8
REMARK    2  A    between atoms: N_8  and  C_9
REMARK    3  A    between atoms: C_9  and  C_10
REMARK    4  A    between atoms: C_14  and  C_15
REMARK                            x       y       z     vdW  Elec       q    Type
REMARK                         _______ _______ _______ _____ _____    ______ ____
ROOT
ATOM      1  C   UNL     1      45.622   5.995  12.352  0.00  0.00    +0.000 A 
ATOM      2  C   UNL     1      46.520   6.832  11.679  0.00  0.00    +0.000 A 
ATOM      3  C   UNL     1      47.810   7.016  12.170  0.00  0.00    +0.000 A 
ATOM      4  C   UNL     1      48.212   6.370  13.344  0.00  0.00    +0.000 A 
ATOM      5  C   UNL     1      47.338   5.528  14.054  0.00  0.00    +0.000 A 
ATOM      6  C   UNL     1      46.052   5.332  13.515  0.00  0.00    +0.000 A 
ENDROOT
BRANCH   5   7
ATOM      7  C   UNL     1      47.708   4.954  15.370  0.00  0.00    +0.000 A 
ATOM      8  C   UNL     1      47.331   3.643  15.716  0.00  0.00    +0.000 A 
ATOM      9  C   UNL     1      47.753   3.048  16.910  0.00  0.00    +0.000 A 
ATOM     10  C   UNL     1      48.570   3.753  17.786  0.00  0.00    +0.000 A 
ATOM     11  C   UNL     1      48.943   5.058  17.481  0.00  0.00    +0.000 A 
ATOM     12  C   UNL     1      48.507   5.654  16.291  0.00  0.00    +0.000 A 
ENDBRANCH   5   7
BRANCH   1  13
ATOM     13  C   UNL     1      44.188   5.879  11.890  0.00  0.00    +0.000 C 
BRANCH  13  14
ATOM     14  N   UNL     1      44.119   5.611  10.465  0.00  0.00    +0.000 N 
ATOM     15  H   UNL     1      44.323   6.428   9.899  0.00  0.00    +0.000 HD
BRANCH  14  22
ATOM     16 CL   UNL     1      43.256   2.593  11.547  0.00  0.00    +0.000 Cl
ATOM     17  C   UNL     1      44.230   3.083  10.210  0.00  0.00    +0.000 A 
ATOM     18  N   UNL     1      44.647   1.984   9.527  0.00  0.00    +0.000 NA
ATOM     19  C   UNL     1      45.427   2.183   8.451  0.00  0.00    +0.000 A 
ATOM     20  C   UNL     1      45.819   3.434   8.023  0.00  0.00    +0.000 A 
ATOM     21  C   UNL     1      45.381   4.545   8.750  0.00  0.00    +0.000 A 
ATOM     22  C   UNL     1      44.575   4.415   9.898  0.00  0.00    +0.000 A 
ENDBRANCH  14  22
ENDBRANCH  13  14
ENDBRANCH   1  13
TORSDOF 4
ENDMDL
MODEL 5
REMARK VINA RESULT:    -6.514      3.188      3.975
REMARK INTER + INTRA:          -9.190
REMARK INTER:                  -8.584
REMARK INTRA:                  -0.606
REMARK UNBOUND:                -1.153
REMARK  Name = 
REMARK  4 active torsions:
REMARK  status: ('A' for Active; 'I' for Inactive)
REMARK    1  A    between atoms: C_7  and  N_8
REMARK    2  A    between atoms: N_8  and  C_9
REMARK    3  A    between atoms: C_9  and  C_10
REMARK    4  A    between atoms: C_14  and  C_15
REMARK                            x       y       z     vdW  Elec       q    Type
REMARK                         _______ _______ _______ _____ _____    ______ ____
ROOT
ATOM      1  C   UNL     1      44.307   6.183  11.538  0.00  0.00    +0.000 A 
ATOM      2  C   UNL     1      43.289   5.553  12.263  0.00  0.00    +0.000 A 
ATOM      3  C   UNL     1      42.966   4.223  12.009  0.00  0.00    +0.000 A 
ATOM      4  C   UNL     1      43.654   3.512  11.020  0.00  0.00    +0.000 A 
ATOM      5  C   UNL     1      44.677   4.109  10.263  0.00  0.00    +0.000 A 
ATOM      6  C   UNL     1      45.008   5.444  10.567  0.00  0.00    +0.000 A 
ENDROOT
BRANCH   5   7
ATOM      7  C   UNL     1      45.312   3.409   9.122  0.00  0.00    +0.000 A 
ATOM      8  C   UNL     1      45.855   4.132   8.043  0.00  0.00    +0.000 A 
ATOM      9  C   UNL     1      46.545   3.496   7.005  0.00  0.00    +0.000 A 
ATOM     10  C   UNL     1      46.714   2.117   7.026  0.00  0.00    +0.000 A 
ATOM     11  C   UNL     1      46.172   1.373   8.068  0.00  0.00    +0.000 A 
ATOM     12  C   UNL     1      45.470   2.011   9.098  0.00  0.00    +0.000 A 
ENDBRANCH   5   7
BRANCH   1  13
ATOM     13  C   UNL     1      44.588   7.655  11.728  0.00  0.00    +0.000 C 
BRANCH  13  14
ATOM     14  N   UNL     1      43.665   8.466  10.953  0.00  0.00    +0.000 N 
ATOM     15  H   UNL     1      42.734   8.066  10.903  0.00  0.00    +0.000 HD
BRANCH  14  22
ATOM     16 CL   UNL     1      40.941  10.339  10.645  0.00  0.00    +0.000 Cl
ATOM     17  C   UNL     1      42.582  10.768  10.958  0.00  0.00    +0.000 A 
ATOM     18  N   UNL     1      42.676  12.114  11.117  0.00  0.00    +0.000 NA
ATOM     19  C   UNL     1      43.894  12.625  11.363  0.00  0.00    +0.000 A 
ATOM     20  C   UNL     1      45.034  11.853  11.452  0.00  0.00    +0.000 A 
ATOM     21  C   UNL     1      44.908  10.471  11.276  0.00  0.00    +0.000 A 
ATOM     22  C   UNL     1      43.666   9.866  10.999  0.00  0.00    +0.000 A 
ENDBRANCH  14  22
ENDBRANCH  13  14
ENDBRANCH   1  13
TORSDOF 4
ENDMDL
MODEL 6
REMARK VINA RESULT:    -6.320      2.920      3.935
REMARK INTER + INTRA:          -8.952
REMARK INTER:                  -8.095
REMARK INTRA:                  -0.857
REMARK UNBOUND:                -1.153
REMARK  Name = 
REMARK  4 active torsions:
REMARK  status: ('A' for Active; 'I' for Inactive)
REMARK    1  A    between atoms: C_7  and  N_8
REMARK    2  A    between atoms: N_8  and  C_9
REMARK    3  A    between atoms: C_9  and  C_10
REMARK    4  A    between atoms: C_14  and  C_15
REMARK                            x       y       z     vdW  Elec       q    Type
REMARK                         _______ _______ _______ _____ _____    ______ ____
ROOT
ATOM      1  C   UNL     1      44.863   6.541  11.706  0.00  0.00    +0.000 A 
ATOM      2  C   UNL     1      43.520   6.303  12.024  0.00  0.00    +0.000 A 
ATOM      3  C   UNL     1      42.845   5.227  11.455  0.00  0.00    +0.000 A 
ATOM      4  C   UNL     1      43.504   4.383  10.556  0.00  0.00    +0.000 A 
ATOM      5  C   UNL     1      44.849   4.592  10.203  0.00  0.00    +0.000 A 
ATOM      6  C   UNL     1      45.518   5.666  10.822  0.00  0.00    +0.000 A 
ENDROOT
BRANCH   5   7
ATOM      7  C   UNL     1      45.512   3.790   9.148  0.00  0.00    +0.000 A 
ATOM      8  C   UNL     1      45.516   2.383   9.205  0.00  0.00    +0.000 A 
ATOM      9  C   UNL     1      46.049   1.607   8.171  0.00  0.00    +0.000 A 
ATOM     10  C   UNL     1      46.587   2.222   7.047  0.00  0.00    +0.000 A 
ATOM     11  C   UNL     1      46.615   3.611   6.969  0.00  0.00    +0.000 A 
ATOM     12  C   UNL     1      46.093   4.385   8.013  0.00  0.00    +0.000 A 
ENDBRANCH   5   7
BRANCH   1  13
ATOM     13  C   UNL     1      45.569   7.770  12.230  0.00  0.00    +0.000 C 
BRANCH  13  14
ATOM     14  N   UNL     1      44.640   8.872  12.405  0.00  0.00    +0.000 N 
ATOM     15  H   UNL     1      44.616   9.221  13.357  0.00  0.00    +0.000 HD
BRANCH  14  22
ATOM     16 CL   UNL     1      46.787  11.350  11.884  0.00  0.00    +0.000 Cl
ATOM     17  C   UNL     1      45.326  10.926  11.071  0.00  0.00    +0.000 A 
ATOM     18  N   UNL     1      45.113  11.789  10.044  0.00  0.00    +0.000 NA
ATOM     19  C   UNL     1      44.008  11.608   9.302  0.00  0.00    +0.000 A 
ATOM     20  C   UNL     1      43.094  10.603   9.541  0.00  0.00    +0.000 A 
ATOM     21  C   UNL     1      43.336   9.735  10.609  0.00  0.00    +0.000 A 
ATOM     22  C   UNL     1      44.464   9.872  11.441  0.00  0.00    +0.000 A 
ENDBRANCH  14  22
ENDBRANCH  13  14
ENDBRANCH   1  13
TORSDOF 4
ENDMDL
MODEL 7
REMARK VINA RESULT:    -6.252      3.029      4.759
REMARK INTER + INTRA:          -8.868
REMARK INTER:                  -8.142
REMARK INTRA:                  -0.725
REMARK UNBOUND:                -1.153
REMARK  Name = 
REMARK  4 active torsions:
REMARK  status: ('A' for Active; 'I' for Inactive)
REMARK    1  A    between atoms: C_7  and  N_8
REMARK    2  A    between atoms: N_8  and  C_9
REMARK    3  A    between atoms: C_9  and  C_10
REMARK    4  A    between atoms: C_14  and  C_15
REMARK                            x       y       z     vdW  Elec       q    Type
REMARK                         _______ _______ _______ _____ _____    ______ ____
ROOT
ATOM      1  C   UNL     1      47.212   6.776  13.344  0.00  0.00    +0.000 A 
ATOM      2  C   UNL     1      46.632   8.048  13.282  0.00  0.00    +0.000 A 
ATOM      3  C   UNL     1      45.573   8.296  12.413  0.00  0.00    +0.000 A 
ATOM      4  C   UNL     1      45.089   7.274  11.590  0.00  0.00    +0.000 A 
ATOM      5  C   UNL     1      45.648   5.985  11.615  0.00  0.00    +0.000 A 
ATOM      6  C   UNL     1      46.694   5.753  12.530  0.00  0.00    +0.000 A 
ENDROOT
BRANCH   5   7
ATOM      7  C   UNL     1      45.237   4.938  10.649  0.00  0.00    +0.000 A 
ATOM      8  C   UNL     1      45.511   5.076   9.275  0.00  0.00    +0.000 A 
ATOM      9  C   UNL     1      45.219   4.057   8.362  0.00  0.00    +0.000 A 
ATOM     10  C   UNL     1      44.650   2.869   8.805  0.00  0.00    +0.000 A 
ATOM     11  C   UNL     1      44.349   2.711  10.154  0.00  0.00    +0.000 A 
ATOM     12  C   UNL     1      44.630   3.738  11.063  0.00  0.00    +0.000 A 
ENDBRANCH   5   7
BRANCH   1  13
ATOM     13  C   UNL     1      48.432   6.529  14.200  0.00  0.00    +0.000 C 
BRANCH  13  14
ATOM     14  N   UNL     1      48.080   6.476  15.608  0.00  0.00    +0.000 N 
ATOM     15  H   UNL     1      47.197   6.933  15.811  0.00  0.00    +0.000 HD
BRANCH  14  22
ATOM     16 CL   UNL     1      50.715   6.136  17.598  0.00  0.00    +0.000 Cl
ATOM     17  C   UNL     1      49.348   5.116  17.342  0.00  0.00    +0.000 A 
ATOM     18  N   UNL     1      49.437   4.028  18.152  0.00  0.00    +0.000 NA
ATOM     19  C   UNL     1      48.452   3.118  18.077  0.00  0.00    +0.000 A 
ATOM     20  C   UNL     1      47.376   3.237  17.222  0.00  0.00    +0.000 A 
ATOM     21  C   UNL     1      47.315   4.363  16.395  0.00  0.00    +0.000 A 
ATOM     22  C   UNL     1      48.320   5.351  16.406  0.00  0.00    +0.000 A 
ENDBRANCH  14  22
ENDBRANCH  13  14
ENDBRANCH   1  13
TORSDOF 4
ENDMDL
MODEL 8
REMARK VINA RESULT:    -5.864      1.590      2.348
REMARK INTER + INTRA:          -8.388
REMARK INTER:                  -7.355
REMARK INTRA:                  -1.034
REMARK UNBOUND:                -1.153
REMARK  Name = 
REMARK  4 active torsions:
REMARK  status: ('A' for Active; 'I' for Inactive)
REMARK    1  A    between atoms: C_7  and  N_8
REMARK    2  A    between atoms: N_8  and  C_9
REMARK    3  A    between atoms: C_9  and  C_10
REMARK    4  A    between atoms: C_14  and  C_15
REMARK                            x       y       z     vdW  Elec       q    Type
REMARK                         _______ _______ _______ _____ _____    ______ ____
ROOT
ATOM      1  C   UNL     1      45.158   6.928  12.047  0.00  0.00    +0.000 A 
ATOM      2  C   UNL     1      44.093   6.495  12.844  0.00  0.00    +0.000 A 
ATOM      3  C   UNL     1      43.518   5.244  12.631  0.00  0.00    +0.000 A 
ATOM      4  C   UNL     1      44.001   4.418  11.611  0.00  0.00    +0.000 A 
ATOM      5  C   UNL     1      45.064   4.818  10.782  0.00  0.00    +0.000 A 
ATOM      6  C   UNL     1      45.649   6.072  11.045  0.00  0.00    +0.000 A 
ENDROOT
BRANCH   5   7
ATOM      7  C   UNL     1      45.486   4.011   9.613  0.00  0.00    +0.000 A 
ATOM      8  C   UNL     1      45.303   2.616   9.594  0.00  0.00    +0.000 A 
ATOM      9  C   UNL     1      45.604   1.850   8.463  0.00  0.00    +0.000 A 
ATOM     10  C   UNL     1      46.091   2.466   7.317  0.00  0.00    +0.000 A 
ATOM     11  C   UNL     1      46.302   3.841   7.310  0.00  0.00    +0.000 A 
ATOM     12  C   UNL     1      46.012   4.602   8.449  0.00  0.00    +0.000 A 
ENDBRANCH   5   7
BRANCH   1  13
ATOM     13  C   UNL     1      45.712   8.326  12.197  0.00  0.00    +0.000 C 
BRANCH  13  14
ATOM     14  N   UNL     1      46.236   8.538  13.535  0.00  0.00    +0.000 N 
ATOM     15  H   UNL     1      45.569   8.302  14.262  0.00  0.00    +0.000 HD
BRANCH  14  22
ATOM     16 CL   UNL     1      47.353   5.493  14.245  0.00  0.00    +0.000 Cl
ATOM     17  C   UNL     1      48.176   7.005  14.130  0.00  0.00    +0.000 A 
ATOM     18  N   UNL     1      49.502   6.816  14.357  0.00  0.00    +0.000 NA
ATOM     19  C   UNL     1      50.298   7.898  14.313  0.00  0.00    +0.000 A 
ATOM     20  C   UNL     1      49.830   9.170  14.057  0.00  0.00    +0.000 A 
ATOM     21  C   UNL     1      48.460   9.334  13.835  0.00  0.00    +0.000 A 
ATOM     22  C   UNL     1      47.561   8.250  13.882  0.00  0.00    +0.000 A 
ENDBRANCH  14  22
ENDBRANCH  13  14
ENDBRANCH   1  13
TORSDOF 4
ENDMDL
MODEL 9
REMARK VINA RESULT:    -5.714      3.131      5.803
REMARK INTER + INTRA:          -8.204
REMARK INTER:                  -7.271
REMARK INTRA:                  -0.932
REMARK UNBOUND:                -1.153
REMARK  Name = 
REMARK  4 active torsions:
REMARK  status: ('A' for Active; 'I' for Inactive)
REMARK    1  A    between atoms: C_7  and  N_8
REMARK    2  A    between atoms: N_8  and  C_9
REMARK    3  A    between atoms: C_9  and  C_10
REMARK    4  A    between atoms: C_14  and  C_15
REMARK                            x       y       z     vdW  Elec       q    Type
REMARK                         _______ _______ _______ _____ _____    ______ ____
ROOT
ATOM      1  C   UNL     1      48.581   6.980  13.894  0.00  0.00    +0.000 A 
ATOM      2  C   UNL     1      49.283   7.601  12.855  0.00  0.00    +0.000 A 
ATOM      3  C   UNL     1      48.738   7.658  11.575  0.00  0.00    +0.000 A 
ATOM      4  C   UNL     1      47.487   7.087  11.322  0.00  0.00    +0.000 A 
ATOM      5  C   UNL     1      46.752   6.446  12.335  0.00  0.00    +0.000 A 
ATOM      6  C   UNL     1      47.312   6.435  13.628  0.00  0.00    +0.000 A 
ENDROOT
BRANCH   5   7
ATOM      7  C   UNL     1      45.495   5.717  12.044  0.00  0.00    +0.000 A 
ATOM      8  C   UNL     1      45.110   5.441  10.719  0.00  0.00    +0.000 A 
ATOM      9  C   UNL     1      43.980   4.670  10.427  0.00  0.00    +0.000 A 
ATOM     10  C   UNL     1      43.209   4.149  11.459  0.00  0.00    +0.000 A 
ATOM     11  C   UNL     1      43.552   4.421  12.780  0.00  0.00    +0.000 A 
ATOM     12  C   UNL     1      44.677   5.205  13.068  0.00  0.00    +0.000 A 
ENDBRANCH   5   7
BRANCH   1  13
ATOM     13  C   UNL     1      49.214   6.814  15.256  0.00  0.00    +0.000 C 
BRANCH  13  14
ATOM     14  N   UNL     1      48.210   6.538  16.268  0.00  0.00    +0.000 N 
ATOM     15  H   UNL     1      47.279   6.835  15.992  0.00  0.00    +0.000 HD
BRANCH  14  22
ATOM     16 CL   UNL     1      47.340   3.548  15.116  0.00  0.00    +0.000 Cl
ATOM     17  C   UNL     1      47.943   4.039  16.656  0.00  0.00    +0.000 A 
ATOM     18  N   UNL     1      48.078   2.949  17.457  0.00  0.00    +0.000 NA
ATOM     19  C   UNL     1      48.533   3.151  18.705  0.00  0.00    +0.000 A 
ATOM     20  C   UNL     1      48.858   4.398  19.199  0.00  0.00    +0.000 A 
ATOM     21  C   UNL     1      48.701   5.500  18.354  0.00  0.00    +0.000 A 
ATOM     22  C   UNL     1      48.214   5.369  17.039  0.00  0.00    +0.000 A 
ENDBRANCH  14  22
ENDBRANCH  13  14
ENDBRANCH   1  13
TORSDOF 4
ENDMDL
