MODEL 1
REMARK VINA RESULT:    -7.753      0.000      0.000
REMARK INTER + INTRA:         -11.777
REMARK INTER:                 -10.926
REMARK INTRA:                  -0.851
REMARK UNBOUND:                -0.851
REMARK  Name = 
REMARK  7 active torsions:
REMARK  status: ('A' for Active; 'I' for Inactive)
REMARK    1  A    between atoms: C_2  and  C_4
REMARK    2  A    between atoms: C_7  and  N_8
REMARK    3  A    between atoms: N_8  and  C_9
REMARK    4  A    between atoms: C_9  and  C_10
REMARK    5  A    between atoms: C_10  and  C_11
REMARK    6  A    between atoms: C_15  and  C_16
REMARK    7  A    between atoms: C_16  and  C_17
REMARK                            x       y       z     vdW  Elec       q    Type
REMARK                         _______ _______ _______ _____ _____    ______ ____
ROOT
ATOM      1  C   UNL     1      43.128   4.390  11.216  0.00  0.00    +0.000 C 
ENDROOT
BRANCH   1   2
ATOM      2  N   UNL     1      43.692   4.856   9.952  0.00  0.00    +0.000 N 
ATOM      3  H   UNL     1      43.023   5.269   9.308  0.00  0.00    +0.000 HD
BRANCH   2   7
ATOM      4  C   UNL     1      46.395   2.363   7.874  0.00  0.00    +0.000 A 
ATOM      5  C   UNL     1      46.433   3.743   7.665  0.00  0.00    +0.000 A 
ATOM      6  C   UNL     1      45.559   4.581   8.365  0.00  0.00    +0.000 A 
ATOM      7  C   UNL     1      44.648   4.072   9.299  0.00  0.00    +0.000 A 
ATOM      8  C   UNL     1      44.615   2.687   9.492  0.00  0.00    +0.000 A 
ATOM      9  C   UNL     1      45.474   1.832   8.783  0.00  0.00    +0.000 A 
BRANCH   4  11
ATOM     10  N   UNL     1      48.395   1.964   6.546  0.00  0.00    +0.000 N 
ATOM     11  C   UNL     1      47.270   1.437   7.113  0.00  0.00    +0.000 C 
ATOM     12  O   UNL     1      47.018   0.242   7.020  0.00  0.00    +0.000 OA
ATOM     13  H   UNL     1      49.028   1.305   6.108  0.00  0.00    +0.000 HD
ATOM     14  H   UNL     1      48.763   2.867   6.805  0.00  0.00    +0.000 HD
ENDBRANCH   4  11
ENDBRANCH   2   7
ENDBRANCH   1   2
BRANCH   1  15
ATOM     15  C   UNL     1      43.292   5.435  12.319  0.00  0.00    +0.000 C 
BRANCH  15  16
ATOM     16  C   UNL     1      44.749   5.572  12.690  0.00  0.00    +0.000 A 
ATOM     17  C   UNL     1      45.484   6.684  12.263  0.00  0.00    +0.000 A 
ATOM     18  C   UNL     1      46.812   6.841  12.655  0.00  0.00    +0.000 A 
ATOM     19  C   UNL     1      47.414   5.893  13.480  0.00  0.00    +0.000 A 
ATOM     20  C   UNL     1      46.696   4.776  13.929  0.00  0.00    +0.000 A 
ATOM     21  C   UNL     1      45.360   4.626  13.529  0.00  0.00    +0.000 A 
BRANCH  20  22
ATOM     22  C   UNL     1      47.349   3.760  14.835  0.00  0.00    +0.000 C 
BRANCH  22  23
ATOM     23  C   UNL     1      47.279   4.198  16.293  0.00  0.00    +0.000 C 
ATOM     24  C   UNL     1      48.531   4.835  16.927  0.00  0.00    +0.000 C 
ATOM     25  N   UNL     1      48.491   3.849  18.014  0.00  0.00    +0.000 NA
ATOM     26  C   UNL     1      47.476   3.058  17.311  0.00  0.00    +0.000 C 
ATOM     27  H   UNL     1      48.175   4.230  18.905  0.00  0.00    +0.000 HD
ENDBRANCH  22  23
ENDBRANCH  20  22
ENDBRANCH  15  16
ENDBRANCH   1  15
TORSDOF 7
ENDMDL
MODEL 2
REMARK VINA RESULT:    -7.504      2.345      3.755
REMARK INTER + INTRA:         -11.425
REMARK INTER:                 -10.698
REMARK INTRA:                  -0.727
REMARK UNBOUND:                -0.851
REMARK  Name = 
REMARK  7 active torsions:
REMARK  status: ('A' for Active; 'I' for Inactive)
REMARK    1  A    between atoms: C_2  and  C_4
REMARK    2  A    between atoms: C_7  and  N_8
REMARK    3  A    between atoms: N_8  and  C_9
REMARK    4  A    between atoms: C_9  and  C_10
REMARK    5  A    between atoms: C_10  and  C_11
REMARK    6  A    between atoms: C_15  and  C_16
REMARK    7  A    between atoms: C_16  and  C_17
REMARK                            x       y       z     vdW  Elec       q    Type
REMARK                         _______ _______ _______ _____ _____    ______ ____
ROOT
ATOM      1  C   UNL     1      43.283   3.709  11.400  0.00  0.00    +0.000 C 
ENDROOT
BRANCH   1   2
ATOM      2  N   UNL     1      43.639   4.332  10.128  0.00  0.00    +0.000 N 
ATOM      3  H   UNL     1      42.852   4.645   9.567  0.00  0.00    +0.000 HD
BRANCH   2   7
ATOM      4  C   UNL     1      46.544   2.502   7.668  0.00  0.00    +0.000 A 
ATOM      5  C   UNL     1      46.411   3.892   7.658  0.00  0.00    +0.000 A 
ATOM      6  C   UNL     1      45.469   4.511   8.486  0.00  0.00    +0.000 A 
ATOM      7  C   UNL     1      44.658   3.770   9.353  0.00  0.00    +0.000 A 
ATOM      8  C   UNL     1      44.795   2.377   9.346  0.00  0.00    +0.000 A 
ATOM      9  C   UNL     1      45.724   1.742   8.507  0.00  0.00    +0.000 A 
BRANCH   4  11
ATOM     10  N   UNL     1      48.599   2.502   6.363  0.00  0.00    +0.000 N 
ATOM     11  C   UNL     1      47.495   1.805   6.766  0.00  0.00    +0.000 C 
ATOM     12  O   UNL     1      47.322   0.643   6.420  0.00  0.00    +0.000 OA
ATOM     13  H   UNL     1      49.283   1.985   5.824  0.00  0.00    +0.000 HD
ATOM     14  H   UNL     1      48.902   3.350   6.817  0.00  0.00    +0.000 HD
ENDBRANCH   4  11
ENDBRANCH   2   7
ENDBRANCH   1   2
BRANCH   1  15
ATOM     15  C   UNL     1      43.317   4.721  12.546  0.00  0.00    +0.000 C 
BRANCH  15  16
ATOM     16  C   UNL     1      44.742   5.126  12.835  0.00  0.00    +0.000 A 
ATOM     17  C   UNL     1      45.584   4.275  13.561  0.00  0.00    +0.000 A 
ATOM     18  C   UNL     1      46.917   4.621  13.777  0.00  0.00    +0.000 A 
ATOM     19  C   UNL     1      47.420   5.816  13.265  0.00  0.00    +0.000 A 
ATOM     20  C   UNL     1      46.600   6.680  12.528  0.00  0.00    +0.000 A 
ATOM     21  C   UNL     1      45.260   6.323  12.316  0.00  0.00    +0.000 A 
BRANCH  20  22
ATOM     22  C   UNL     1      47.154   7.967  11.964  0.00  0.00    +0.000 C 
BRANCH  22  23
ATOM     23  C   UNL     1      46.586   9.177  12.695  0.00  0.00    +0.000 C 
ATOM     24  C   UNL     1      45.188   9.686  12.293  0.00  0.00    +0.000 C 
ATOM     25  N   UNL     1      45.732  11.031  12.071  0.00  0.00    +0.000 NA
ATOM     26  C   UNL     1      47.108  10.534  12.184  0.00  0.00    +0.000 C 
ATOM     27  H   UNL     1      45.475  11.704  12.792  0.00  0.00    +0.000 HD
ENDBRANCH  22  23
ENDBRANCH  20  22
ENDBRANCH  15  16
ENDBRANCH   1  15
TORSDOF 7
ENDMDL
MODEL 3
REMARK VINA RESULT:    -7.441      2.095      3.171
REMARK INTER + INTRA:         -11.337
REMARK INTER:                 -10.374
REMARK INTRA:                  -0.964
REMARK UNBOUND:                -0.851
REMARK  Name = 
REMARK  7 active torsions:
REMARK  status: ('A' for Active; 'I' for Inactive)
REMARK    1  A    between atoms: C_2  and  C_4
REMARK    2  A    between atoms: C_7  and  N_8
REMARK    3  A    between atoms: N_8  and  C_9
REMARK    4  A    between atoms: C_9  and  C_10
REMARK    5  A    between atoms: C_10  and  C_11
REMARK    6  A    between atoms: C_15  and  C_16
REMARK    7  A    between atoms: C_16  and  C_17
REMARK                            x       y       z     vdW  Elec       q    Type
REMARK                         _______ _______ _______ _____ _____    ______ ____
ROOT
ATOM      1  C   UNL     1      43.294   4.344  11.230  0.00  0.00    +0.000 C 
ENDROOT
BRANCH   1   2
ATOM      2  N   UNL     1      43.601   4.681   9.843  0.00  0.00    +0.000 N 
ATOM      3  H   UNL     1      42.792   4.823   9.245  0.00  0.00    +0.000 HD
BRANCH   2   7
ATOM      4  C   UNL     1      46.560   2.526   7.736  0.00  0.00    +0.000 A 
ATOM      5  C   UNL     1      46.550   3.921   7.673  0.00  0.00    +0.000 A 
ATOM      6  C   UNL     1      45.590   4.646   8.386  0.00  0.00    +0.000 A 
ATOM      7  C   UNL     1      44.637   4.007   9.189  0.00  0.00    +0.000 A 
ATOM      8  C   UNL     1      44.653   2.609   9.235  0.00  0.00    +0.000 A 
ATOM      9  C   UNL     1      45.600   1.868   8.510  0.00  0.00    +0.000 A 
BRANCH   4  11
ATOM     10  N   UNL     1      48.534   2.393   6.317  0.00  0.00    +0.000 N 
ATOM     11  C   UNL     1      47.530   1.719   6.953  0.00  0.00    +0.000 C 
ATOM     12  O   UNL     1      47.458   0.498   6.901  0.00  0.00    +0.000 OA
ATOM     13  H   UNL     1      49.239   1.823   5.864  0.00  0.00    +0.000 HD
ATOM     14  H   UNL     1      48.771   3.348   6.536  0.00  0.00    +0.000 HD
ENDBRANCH   4  11
ENDBRANCH   2   7
ENDBRANCH   1   2
BRANCH   1  15
ATOM     15  C   UNL     1      43.459   5.555  12.149  0.00  0.00    +0.000 C 
BRANCH  15  16
ATOM     16  C   UNL     1      44.874   5.617  12.671  0.00  0.00    +0.000 A 
ATOM     17  C   UNL     1      45.324   4.677  13.605  0.00  0.00    +0.000 A 
ATOM     18  C   UNL     1      46.647   4.697  14.043  0.00  0.00    +0.000 A 
ATOM     19  C   UNL     1      47.532   5.654  13.547  0.00  0.00    +0.000 A 
ATOM     20  C   UNL     1      47.108   6.600  12.605  0.00  0.00    +0.000 A 
ATOM     21  C   UNL     1      45.775   6.571  12.170  0.00  0.00    +0.000 A 
BRANCH  20  22
ATOM     22  C   UNL     1      48.075   7.624  12.061  0.00  0.00    +0.000 C 
BRANCH  22  23
ATOM     23  C   UNL     1      49.519   7.207  12.315  0.00  0.00    +0.000 C 
ATOM     24  C   UNL     1      50.339   8.002  13.349  0.00  0.00    +0.000 C 
ATOM     25  N   UNL     1      51.386   8.241  12.348  0.00  0.00    +0.000 NA
ATOM     26  C   UNL     1      50.527   7.730  11.274  0.00  0.00    +0.000 C 
ATOM     27  H   UNL     1      52.232   7.692  12.497  0.00  0.00    +0.000 HD
ENDBRANCH  22  23
ENDBRANCH  20  22
ENDBRANCH  15  16
ENDBRANCH   1  15
TORSDOF 7
ENDMDL
MODEL 4
REMARK VINA RESULT:    -7.193      3.390      7.384
REMARK INTER + INTRA:         -10.987
REMARK INTER:                 -10.098
REMARK INTRA:                  -0.889
REMARK UNBOUND:                -0.851
REMARK  Name = 
REMARK  7 active torsions:
REMARK  status: ('A' for Active; 'I' for Inactive)
REMARK    1  A    between atoms: C_2  and  C_4
REMARK    2  A    between atoms: C_7  and  N_8
REMARK    3  A    between atoms: N_8  and  C_9
REMARK    4  A    between atoms: C_9  and  C_10
REMARK    5  A    between atoms: C_10  and  C_11
REMARK    6  A    between atoms: C_15  and  C_16
REMARK    7  A    between atoms: C_16  and  C_17
REMARK                            x       y       z     vdW  Elec       q    Type
REMARK                         _______ _______ _______ _____ _____    ______ ____
ROOT
ATOM      1  C   UNL     1      44.038   5.560  12.565  0.00  0.00    +0.000 C 
ENDROOT
BRANCH   1   2
ATOM      2  N   UNL     1      44.724   6.708  13.149  0.00  0.00    +0.000 N 
ATOM      3  H   UNL     1      44.181   7.567  13.176  0.00  0.00    +0.000 HD
BRANCH   2   7
ATOM      4  C   UNL     1      48.770   7.602  12.331  0.00  0.00    +0.000 A 
ATOM      5  C   UNL     1      48.447   6.403  12.969  0.00  0.00    +0.000 A 
ATOM      6  C   UNL     1      47.109   6.085  13.224  0.00  0.00    +0.000 A 
ATOM      7  C   UNL     1      46.068   6.936  12.834  0.00  0.00    +0.000 A 
ATOM      8  C   UNL     1      46.407   8.138  12.204  0.00  0.00    +0.000 A 
ATOM      9  C   UNL     1      47.747   8.478  11.958  0.00  0.00    +0.000 A 
BRANCH   4  11
ATOM     10  N   UNL     1      50.863   7.322  11.119  0.00  0.00    +0.000 N 
ATOM     11  C   UNL     1      50.181   7.999  12.090  0.00  0.00    +0.000 C 
ATOM     12  O   UNL     1      50.707   8.915  12.710  0.00  0.00    +0.000 OA
ATOM     13  H   UNL     1      51.792   7.664  10.904  0.00  0.00    +0.000 HD
ATOM     14  H   UNL     1      50.402   6.749  10.430  0.00  0.00    +0.000 HD
ENDBRANCH   4  11
ENDBRANCH   2   7
ENDBRANCH   1   2
BRANCH   1  15
ATOM     15  C   UNL     1      43.793   5.758  11.069  0.00  0.00    +0.000 C 
BRANCH  15  16
ATOM     16  C   UNL     1      44.299   4.563  10.299  0.00  0.00    +0.000 A 
ATOM     17  C   UNL     1      43.930   3.268  10.682  0.00  0.00    +0.000 A 
ATOM     18  C   UNL     1      44.348   2.168   9.936  0.00  0.00    +0.000 A 
ATOM     19  C   UNL     1      45.134   2.352   8.799  0.00  0.00    +0.000 A 
ATOM     20  C   UNL     1      45.509   3.639   8.390  0.00  0.00    +0.000 A 
ATOM     21  C   UNL     1      45.083   4.740   9.147  0.00  0.00    +0.000 A 
BRANCH  20  22
ATOM     22  C   UNL     1      46.347   3.833   7.149  0.00  0.00    +0.000 C 
BRANCH  22  23
ATOM     23  C   UNL     1      46.716   2.495   6.520  0.00  0.00    +0.000 C 
ATOM     24  C   UNL     1      48.123   1.925   6.783  0.00  0.00    +0.000 C 
ATOM     25  N   UNL     1      48.353   1.804   5.338  0.00  0.00    +0.000 NA
ATOM     26  C   UNL     1      47.146   2.582   5.042  0.00  0.00    +0.000 C 
ATOM     27  H   UNL     1      48.322   0.844   4.994  0.00  0.00    +0.000 HD
ENDBRANCH  22  23
ENDBRANCH  20  22
ENDBRANCH  15  16
ENDBRANCH   1  15
TORSDOF 7
ENDMDL
MODEL 5
REMARK VINA RESULT:    -7.103      3.130      5.177
REMARK INTER + INTRA:         -10.860
REMARK INTER:                 -10.216
REMARK INTRA:                  -0.644
REMARK UNBOUND:                -0.851
REMARK  Name = 
REMARK  7 active torsions:
REMARK  status: ('A' for Active; 'I' for Inactive)
REMARK    1  A    between atoms: C_2  and  C_4
REMARK    2  A    between atoms: C_7  and  N_8
REMARK    3  A    between atoms: N_8  and  C_9
REMARK    4  A    between atoms: C_9  and  C_10
REMARK    5  A    between atoms: C_10  and  C_11
REMARK    6  A    between atoms: C_15  and  C_16
REMARK    7  A    between atoms: C_16  and  C_17
REMARK                            x       y       z     vdW  Elec       q    Type
REMARK                         _______ _______ _______ _____ _____    ______ ____
ROOT
ATOM      1  C   UNL     1      43.950   5.211  11.281  0.00  0.00    +0.000 C 
ENDROOT
BRANCH   1   2
ATOM      2  N   UNL     1      43.633   4.578  10.005  0.00  0.00    +0.000 N 
ATOM      3  H   UNL     1      42.758   4.062   9.985  0.00  0.00    +0.000 HD
BRANCH   2   7
ATOM      4  C   UNL     1      46.523   2.504   7.728  0.00  0.00    +0.000 A 
ATOM      5  C   UNL     1      46.445   3.895   7.635  0.00  0.00    +0.000 A 
ATOM      6  C   UNL     1      45.507   4.595   8.402  0.00  0.00    +0.000 A 
ATOM      7  C   UNL     1      44.648   3.935   9.288  0.00  0.00    +0.000 A 
ATOM      8  C   UNL     1      44.732   2.540   9.364  0.00  0.00    +0.000 A 
ATOM      9  C   UNL     1      45.656   1.824   8.587  0.00  0.00    +0.000 A 
BRANCH   4  11
ATOM     10  N   UNL     1      48.531   2.392   6.356  0.00  0.00    +0.000 N 
ATOM     11  C   UNL     1      47.469   1.722   6.892  0.00  0.00    +0.000 C 
ATOM     12  O   UNL     1      47.327   0.519   6.713  0.00  0.00    +0.000 OA
ATOM     13  H   UNL     1      49.216   1.828   5.866  0.00  0.00    +0.000 HD
ATOM     14  H   UNL     1      48.818   3.303   6.679  0.00  0.00    +0.000 HD
ENDBRANCH   4  11
ENDBRANCH   2   7
ENDBRANCH   1   2
BRANCH   1  15
ATOM     15  C   UNL     1      45.458   5.246  11.528  0.00  0.00    +0.000 C 
BRANCH  15  16
ATOM     16  C   UNL     1      45.910   6.665  11.775  0.00  0.00    +0.000 A 
ATOM     17  C   UNL     1      47.259   6.944  12.019  0.00  0.00    +0.000 A 
ATOM     18  C   UNL     1      47.686   8.260  12.188  0.00  0.00    +0.000 A 
ATOM     19  C   UNL     1      46.770   9.307  12.108  0.00  0.00    +0.000 A 
ATOM     20  C   UNL     1      45.415   9.054  11.855  0.00  0.00    +0.000 A 
ATOM     21  C   UNL     1      44.995   7.727  11.687  0.00  0.00    +0.000 A 
BRANCH  20  22
ATOM     22  C   UNL     1      44.429  10.194  11.756  0.00  0.00    +0.000 C 
BRANCH  22  23
ATOM     23  C   UNL     1      43.331   9.884  10.746  0.00  0.00    +0.000 C 
ATOM     24  C   UNL     1      43.368  10.598   9.381  0.00  0.00    +0.000 C 
ATOM     25  N   UNL     1      41.995  11.075   9.583  0.00  0.00    +0.000 NA
ATOM     26  C   UNL     1      42.011  10.644  10.985  0.00  0.00    +0.000 C 
ATOM     27  H   UNL     1      41.302  10.593   9.011  0.00  0.00    +0.000 HD
ENDBRANCH  22  23
ENDBRANCH  20  22
ENDBRANCH  15  16
ENDBRANCH   1  15
TORSDOF 7
ENDMDL
MODEL 6
REMARK VINA RESULT:    -6.969      2.605      3.365
REMARK INTER + INTRA:         -10.672
REMARK INTER:                  -9.927
REMARK INTRA:                  -0.745
REMARK UNBOUND:                -0.851
REMARK  Name = 
REMARK  7 active torsions:
REMARK  status: ('A' for Active; 'I' for Inactive)
REMARK    1  A    between atoms: C_2  and  C_4
REMARK    2  A    between atoms: C_7  and  N_8
REMARK    3  A    between atoms: N_8  and  C_9
REMARK    4  A    between atoms: C_9  and  C_10
REMARK    5  A    between atoms: C_10  and  C_11
REMARK    6  A    between atoms: C_15  and  C_16
REMARK    7  A    between atoms: C_16  and  C_17
REMARK                            x       y       z     vdW  Elec       q    Type
REMARK                         _______ _______ _______ _____ _____    ______ ____
ROOT
ATOM      1  C   UNL     1      43.929   5.056  11.181  0.00  0.00    +0.000 C 
ENDROOT
BRANCH   1   2
ATOM      2  N   UNL     1      43.642   3.816  10.465  0.00  0.00    +0.000 N 
ATOM      3  H   UNL     1      43.305   3.052  11.044  0.00  0.00    +0.000 HD
BRANCH   2   7
ATOM      4  C   UNL     1      46.468   2.661   7.546  0.00  0.00    +0.000 A 
ATOM      5  C   UNL     1      45.942   1.700   8.413  0.00  0.00    +0.000 A 
ATOM      6  C   UNL     1      44.989   2.067   9.368  0.00  0.00    +0.000 A 
ATOM      7  C   UNL     1      44.522   3.382   9.468  0.00  0.00    +0.000 A 
ATOM      8  C   UNL     1      45.063   4.336   8.599  0.00  0.00    +0.000 A 
ATOM      9  C   UNL     1      46.034   3.986   7.648  0.00  0.00    +0.000 A 
BRANCH   4  11
ATOM     10  N   UNL     1      47.507   3.005   5.371  0.00  0.00    +0.000 N 
ATOM     11  C   UNL     1      47.519   2.322   6.554  0.00  0.00    +0.000 C 
ATOM     12  O   UNL     1      48.385   1.489   6.793  0.00  0.00    +0.000 OA
ATOM     13  H   UNL     1      48.282   2.828   4.744  0.00  0.00    +0.000 HD
ATOM     14  H   UNL     1      46.980   3.855   5.240  0.00  0.00    +0.000 HD
ENDBRANCH   4  11
ENDBRANCH   2   7
ENDBRANCH   1   2
BRANCH   1  15
ATOM     15  C   UNL     1      45.293   5.000  11.869  0.00  0.00    +0.000 C 
BRANCH  15  16
ATOM     16  C   UNL     1      45.867   6.391  11.992  0.00  0.00    +0.000 A 
ATOM     17  C   UNL     1      45.049   7.461  12.371  0.00  0.00    +0.000 A 
ATOM     18  C   UNL     1      45.591   8.734  12.544  0.00  0.00    +0.000 A 
ATOM     19  C   UNL     1      46.954   8.945  12.345  0.00  0.00    +0.000 A 
ATOM     20  C   UNL     1      47.795   7.888  11.975  0.00  0.00    +0.000 A 
ATOM     21  C   UNL     1      47.241   6.611  11.803  0.00  0.00    +0.000 A 
BRANCH  20  22
ATOM     22  C   UNL     1      49.274   8.121  11.774  0.00  0.00    +0.000 C 
BRANCH  22  23
ATOM     23  C   UNL     1      49.936   8.589  13.064  0.00  0.00    +0.000 C 
ATOM     24  C   UNL     1      51.474   8.541  13.157  0.00  0.00    +0.000 C 
ATOM     25  N   UNL     1      51.382   7.747  14.389  0.00  0.00    +0.000 NA
ATOM     26  C   UNL     1      49.943   7.542  14.195  0.00  0.00    +0.000 C 
ATOM     27  H   UNL     1      51.616   8.269  15.234  0.00  0.00    +0.000 HD
ENDBRANCH  22  23
ENDBRANCH  20  22
ENDBRANCH  15  16
ENDBRANCH   1  15
TORSDOF 7
ENDMDL
MODEL 7
REMARK VINA RESULT:    -6.482      3.745      7.998
REMARK INTER + INTRA:          -9.985
REMARK INTER:                  -9.600
REMARK INTRA:                  -0.385
REMARK UNBOUND:                -0.851
REMARK  Name = 
REMARK  7 active torsions:
REMARK  status: ('A' for Active; 'I' for Inactive)
REMARK    1  A    between atoms: C_2  and  C_4
REMARK    2  A    between atoms: C_7  and  N_8
REMARK    3  A    between atoms: N_8  and  C_9
REMARK    4  A    between atoms: C_9  and  C_10
REMARK    5  A    between atoms: C_10  and  C_11
REMARK    6  A    between atoms: C_15  and  C_16
REMARK    7  A    between atoms: C_16  and  C_17
REMARK                            x       y       z     vdW  Elec       q    Type
REMARK                         _______ _______ _______ _____ _____    ______ ____
ROOT
ATOM      1  C   UNL     1      45.398   5.597  12.824  0.00  0.00    +0.000 C 
ENDROOT
BRANCH   1   2
ATOM      2  N   UNL     1      46.397   6.460  13.448  0.00  0.00    +0.000 N 
ATOM      3  H   UNL     1      46.279   6.604  14.447  0.00  0.00    +0.000 HD
BRANCH   2   7
ATOM      4  C   UNL     1      47.590  10.095  11.659  0.00  0.00    +0.000 A 
ATOM      5  C   UNL     1      48.491   9.030  11.718  0.00  0.00    +0.000 A 
ATOM      6  C   UNL     1      48.100   7.814  12.287  0.00  0.00    +0.000 A 
ATOM      7  C   UNL     1      46.806   7.623  12.786  0.00  0.00    +0.000 A 
ATOM      8  C   UNL     1      45.917   8.701  12.729  0.00  0.00    +0.000 A 
ATOM      9  C   UNL     1      46.302   9.933  12.177  0.00  0.00    +0.000 A 
BRANCH   4  11
ATOM     10  N   UNL     1      47.940  12.486  11.960  0.00  0.00    +0.000 N 
ATOM     11  C   UNL     1      47.985  11.417  11.110  0.00  0.00    +0.000 C 
ATOM     12  O   UNL     1      48.367  11.547   9.954  0.00  0.00    +0.000 OA
ATOM     13  H   UNL     1      48.298  13.362  11.598  0.00  0.00    +0.000 HD
ATOM     14  H   UNL     1      47.877  12.382  12.961  0.00  0.00    +0.000 HD
ENDBRANCH   4  11
ENDBRANCH   2   7
ENDBRANCH   1   2
BRANCH   1  15
ATOM     15  C   UNL     1      45.091   6.042  11.394  0.00  0.00    +0.000 C 
BRANCH  15  16
ATOM     16  C   UNL     1      45.080   4.847  10.472  0.00  0.00    +0.000 A 
ATOM     17  C   UNL     1      44.372   3.691  10.823  0.00  0.00    +0.000 A 
ATOM     18  C   UNL     1      44.312   2.610   9.946  0.00  0.00    +0.000 A 
ATOM     19  C   UNL     1      44.952   2.677   8.709  0.00  0.00    +0.000 A 
ATOM     20  C   UNL     1      45.658   3.826   8.331  0.00  0.00    +0.000 A 
ATOM     21  C   UNL     1      45.714   4.909   9.221  0.00  0.00    +0.000 A 
BRANCH  20  22
ATOM     22  C   UNL     1      46.338   3.898   6.984  0.00  0.00    +0.000 C 
BRANCH  22  23
ATOM     23  C   UNL     1      46.692   2.507   6.472  0.00  0.00    +0.000 C 
ATOM     24  C   UNL     1      48.074   1.925   6.829  0.00  0.00    +0.000 C 
ATOM     25  N   UNL     1      48.349   1.688   5.406  0.00  0.00    +0.000 NA
ATOM     26  C   UNL     1      47.174   2.470   5.008  0.00  0.00    +0.000 C 
ATOM     27  H   UNL     1      48.304   0.706   5.136  0.00  0.00    +0.000 HD
ENDBRANCH  22  23
ENDBRANCH  20  22
ENDBRANCH  15  16
ENDBRANCH   1  15
TORSDOF 7
ENDMDL
MODEL 8
REMARK VINA RESULT:    -6.298      3.432      7.443
REMARK INTER + INTRA:          -9.726
REMARK INTER:                  -8.425
REMARK INTRA:                  -1.301
REMARK UNBOUND:                -0.851
REMARK  Name = 
REMARK  7 active torsions:
REMARK  status: ('A' for Active; 'I' for Inactive)
REMARK    1  A    between atoms: C_2  and  C_4
REMARK    2  A    between atoms: C_7  and  N_8
REMARK    3  A    between atoms: N_8  and  C_9
REMARK    4  A    between atoms: C_9  and  C_10
REMARK    5  A    between atoms: C_10  and  C_11
REMARK    6  A    between atoms: C_15  and  C_16
REMARK    7  A    between atoms: C_16  and  C_17
REMARK                            x       y       z     vdW  Elec       q    Type
REMARK                         _______ _______ _______ _____ _____    ______ ____
ROOT
ATOM      1  C   UNL     1      49.938   7.585  13.334  0.00  0.00    +0.000 C 
ENDROOT
BRANCH   1   2
ATOM      2  N   UNL     1      49.703   7.864  14.748  0.00  0.00    +0.000 N 
ATOM      3  H   UNL     1      50.437   8.393  15.210  0.00  0.00    +0.000 HD
BRANCH   2   7
ATOM      4  C   UNL     1      48.163   4.666  17.039  0.00  0.00    +0.000 A 
ATOM      5  C   UNL     1      49.202   5.445  17.556  0.00  0.00    +0.000 A 
ATOM      6  C   UNL     1      49.704   6.521  16.816  0.00  0.00    +0.000 A 
ATOM      7  C   UNL     1      49.174   6.859  15.565  0.00  0.00    +0.000 A 
ATOM      8  C   UNL     1      48.141   6.065  15.056  0.00  0.00    +0.000 A 
ATOM      9  C   UNL     1      47.639   4.971  15.779  0.00  0.00    +0.000 A 
BRANCH   4  11
ATOM     10  N   UNL     1      48.313   3.095  18.892  0.00  0.00    +0.000 N 
ATOM     11  C   UNL     1      47.639   3.485  17.770  0.00  0.00    +0.000 C 
ATOM     12  O   UNL     1      46.627   2.900  17.406  0.00  0.00    +0.000 OA
ATOM     13  H   UNL     1      47.892   2.346  19.430  0.00  0.00    +0.000 HD
ATOM     14  H   UNL     1      48.984   3.687  19.357  0.00  0.00    +0.000 HD
ENDBRANCH   4  11
ENDBRANCH   2   7
ENDBRANCH   1   2
BRANCH   1  15
ATOM     15  C   UNL     1      49.241   8.611  12.440  0.00  0.00    +0.000 C 
BRANCH  15  16
ATOM     16  C   UNL     1      47.776   8.273  12.309  0.00  0.00    +0.000 A 
ATOM     17  C   UNL     1      46.802   9.149  12.803  0.00  0.00    +0.000 A 
ATOM     18  C   UNL     1      45.449   8.866  12.628  0.00  0.00    +0.000 A 
ATOM     19  C   UNL     1      45.058   7.710  11.954  0.00  0.00    +0.000 A 
ATOM     20  C   UNL     1      46.013   6.822  11.442  0.00  0.00    +0.000 A 
ATOM     21  C   UNL     1      47.373   7.115  11.623  0.00  0.00    +0.000 A 
BRANCH  20  22
ATOM     22  C   UNL     1      45.584   5.579  10.701  0.00  0.00    +0.000 C 
BRANCH  22  23
ATOM     23  C   UNL     1      44.803   4.638  11.611  0.00  0.00    +0.000 C 
ATOM     24  C   UNL     1      45.509   4.074  12.860  0.00  0.00    +0.000 C 
ATOM     25  N   UNL     1      45.182   2.707  12.436  0.00  0.00    +0.000 NA
ATOM     26  C   UNL     1      44.742   3.179  11.119  0.00  0.00    +0.000 C 
ATOM     27  H   UNL     1      44.443   2.270  12.987  0.00  0.00    +0.000 HD
ENDBRANCH  22  23
ENDBRANCH  20  22
ENDBRANCH  15  16
ENDBRANCH   1  15
TORSDOF 7
ENDMDL
MODEL 9
REMARK VINA RESULT:    -6.246      3.875      7.559
REMARK INTER + INTRA:          -9.653
REMARK INTER:                  -8.753
REMARK INTRA:                  -0.900
REMARK UNBOUND:                -0.851
REMARK  Name = 
REMARK  7 active torsions:
REMARK  status: ('A' for Active; 'I' for Inactive)
REMARK    1  A    between atoms: C_2  and  C_4
REMARK    2  A    between atoms: C_7  and  N_8
REMARK    3  A    between atoms: N_8  and  C_9
REMARK    4  A    between atoms: C_9  and  C_10
REMARK    5  A    between atoms: C_10  and  C_11
REMARK    6  A    between atoms: C_15  and  C_16
REMARK    7  A    between atoms: C_16  and  C_17
REMARK                            x       y       z     vdW  Elec       q    Type
REMARK                         _______ _______ _______ _____ _____    ______ ____
ROOT
ATOM      1  C   UNL     1      47.292   5.812  13.306  0.00  0.00    +0.000 C 
ENDROOT
BRANCH   1   2
ATOM      2  N   UNL     1      47.304   7.103  13.988  0.00  0.00    +0.000 N 
ATOM      3  H   UNL     1      47.010   7.079  14.961  0.00  0.00    +0.000 HD
BRANCH   2   7
ATOM      4  C   UNL     1      46.038  10.468  11.772  0.00  0.00    +0.000 A 
ATOM      5  C   UNL     1      45.099   9.515  12.170  0.00  0.00    +0.000 A 
ATOM      6  C   UNL     1      45.502   8.408  12.925  0.00  0.00    +0.000 A 
ATOM      7  C   UNL     1      46.835   8.237  13.316  0.00  0.00    +0.000 A 
ATOM      8  C   UNL     1      47.767   9.195  12.903  0.00  0.00    +0.000 A 
ATOM      9  C   UNL     1      47.379  10.301  12.130  0.00  0.00    +0.000 A 
BRANCH   4  11
ATOM     10  N   UNL     1      46.635  12.185  10.152  0.00  0.00    +0.000 N 
ATOM     11  C   UNL     1      45.658  11.628  10.927  0.00  0.00    +0.000 C 
ATOM     12  O   UNL     1      44.510  12.054  10.897  0.00  0.00    +0.000 OA
ATOM     13  H   UNL     1      46.340  12.915   9.514  0.00  0.00    +0.000 HD
ATOM     14  H   UNL     1      47.508  11.718   9.960  0.00  0.00    +0.000 HD
ENDBRANCH   4  11
ENDBRANCH   2   7
ENDBRANCH   1   2
BRANCH   1  15
ATOM     15  C   UNL     1      46.221   4.886  13.882  0.00  0.00    +0.000 C 
BRANCH  15  16
ATOM     16  C   UNL     1      45.159   4.614  12.845  0.00  0.00    +0.000 A 
ATOM     17  C   UNL     1      43.908   5.236  12.935  0.00  0.00    +0.000 A 
ATOM     18  C   UNL     1      42.948   5.033  11.946  0.00  0.00    +0.000 A 
ATOM     19  C   UNL     1      43.232   4.211  10.856  0.00  0.00    +0.000 A 
ATOM     20  C   UNL     1      44.480   3.585  10.738  0.00  0.00    +0.000 A 
ATOM     21  C   UNL     1      45.439   3.796  11.739  0.00  0.00    +0.000 A 
BRANCH  20  22
ATOM     22  C   UNL     1      44.786   2.707   9.548  0.00  0.00    +0.000 C 
BRANCH  22  23
ATOM     23  C   UNL     1      45.000   3.541   8.290  0.00  0.00    +0.000 C 
ATOM     24  C   UNL     1      46.041   3.060   7.261  0.00  0.00    +0.000 C 
ATOM     25  N   UNL     1      46.714   4.364   7.320  0.00  0.00    +0.000 NA
ATOM     26  C   UNL     1      45.917   4.765   8.484  0.00  0.00    +0.000 C 
ATOM     27  H   UNL     1      46.562   4.944   6.495  0.00  0.00    +0.000 HD
ENDBRANCH  22  23
ENDBRANCH  20  22
ENDBRANCH  15  16
ENDBRANCH   1  15
TORSDOF 7
ENDMDL
