MODEL 1
REMARK VINA RESULT:    -8.347      0.000      0.000
REMARK INTER + INTRA:         -12.905
REMARK INTER:                 -11.763
REMARK INTRA:                  -1.142
REMARK UNBOUND:                -1.142
REMARK  Name = 
REMARK  12 active torsions:
REMARK  status: ('A' for Active; 'I' for Inactive)
REMARK    1  A    between atoms: C_1  and  C_2
REMARK    2  A    between atoms: C_4  and  C_5
REMARK    3  A    between atoms: C_5  and  C_6
REMARK    4  A    between atoms: C_5  and  C_7
REMARK    5  A    between atoms: C_5  and  C_8
REMARK    6  A    between atoms: C_8  and  O_9
REMARK    7  A    between atoms: O_9  and  C_10
REMARK    8  A    between atoms: C_13  and  C_14
REMARK    9  A    between atoms: C_20  and  C_21
REMARK   10  A    between atoms: C_22  and  O_23
REMARK   11  A    between atoms: O_23  and  C_24
REMARK   12  A    between atoms: N_26  and  C_27
REMARK                            x       y       z     vdW  Elec       q    Type
REMARK                         _______ _______ _______ _____ _____    ______ ____
ROOT
ATOM      1  C   UNL     1      43.788   5.123  12.016  0.00  0.00    +0.000 C 
ATOM      2  C   UNL     1      42.878   4.750  13.201  0.00  0.00    +0.000 C 
ATOM      3  C   UNL     1      43.247   6.376  11.300  0.00  0.00    +0.000 C 
ENDROOT
BRANCH   1   7
ATOM      4  C   UNL     1      47.339   4.167  15.395  0.00  0.00    +0.000 C 
ATOM      5  C   UNL     1      47.031   4.983  14.171  0.00  0.00    +0.000 A 
ATOM      6  C   UNL     1      45.730   4.781  13.663  0.00  0.00    +0.000 A 
ATOM      7  C   UNL     1      45.218   5.413  12.521  0.00  0.00    +0.000 A 
ATOM      8  C   UNL     1      46.075   6.298  11.863  0.00  0.00    +0.000 A 
ATOM      9  C   UNL     1      47.375   6.551  12.347  0.00  0.00    +0.000 A 
ATOM     10  C   UNL     1      48.243   7.526  11.591  0.00  0.00    +0.000 C 
ATOM     11  C   UNL     1      47.858   5.900  13.512  0.00  0.00    +0.000 A 
BRANCH  11  12
ATOM     12  O   UNL     1      49.086   6.373  13.914  0.00  0.00    +0.000 OA
BRANCH  12  13
ATOM     13  C   UNL     1      49.280   7.228  15.058  0.00  0.00    +0.000 C 
ATOM     14  C   UNL     1      50.555   8.108  14.971  0.00  0.00    +0.000 C 
ATOM     15  N   UNL     1      51.064   7.541  16.227  0.00  0.00    +0.000 NA
ATOM     16  C   UNL     1      51.049   8.549  17.286  0.00  0.00    +0.000 C 
ATOM     17  C   UNL     1      49.907   6.637  16.335  0.00  0.00    +0.000 C 
ENDBRANCH  12  13
ENDBRANCH  11  12
ENDBRANCH   1   7
BRANCH   1  18
ATOM     18  C   UNL     1      43.774   3.939  11.008  0.00  0.00    +0.000 C 
BRANCH  18  19
ATOM     19  O   UNL     1      43.696   4.325   9.631  0.00  0.00    +0.000 OA
BRANCH  19  20
ATOM     20  C   UNL     1      44.701   3.698   8.907  0.00  0.00    +0.000 A 
ATOM     21  C   UNL     1      44.910   2.350   9.145  0.00  0.00    +0.000 A 
ATOM     22  C   UNL     1      45.893   1.692   8.403  0.00  0.00    +0.000 A 
ATOM     23  C   UNL     1      46.623   2.403   7.452  0.00  0.00    +0.000 A 
ATOM     24  C   UNL     1      46.345   3.747   7.282  0.00  0.00    +0.000 A 
ATOM     25  N   UNL     1      45.407   4.410   7.999  0.00  0.00    +0.000 NA
BRANCH  23  26
ATOM     26  C   UNL     1      47.657   1.785   6.585  0.00  0.00    +0.000 C 
ATOM     27  N   UNL     1      48.810   2.491   6.389  0.00  0.00    +0.000 N 
ATOM     28  O   UNL     1      47.474   0.702   6.060  0.00  0.00    +0.000 OA
ATOM     29  H   UNL     1      48.921   3.460   6.638  0.00  0.00    +0.000 HD
ATOM     30  H   UNL     1      49.478   2.090   5.741  0.00  0.00    +0.000 HD
ENDBRANCH  23  26
ENDBRANCH  19  20
ENDBRANCH  18  19
ENDBRANCH   1  18
TORSDOF 7
ENDMDL
MODEL 2
REMARK VINA RESULT:    -8.073      0.589      1.814
REMARK INTER + INTRA:         -12.518
REMARK INTER:                 -11.299
REMARK INTRA:                  -1.220
REMARK UNBOUND:                -1.142
REMARK  Name = 
REMARK  12 active torsions:
REMARK  status: ('A' for Active; 'I' for Inactive)
REMARK    1  A    between atoms: C_1  and  C_2
REMARK    2  A    between atoms: C_4  and  C_5
REMARK    3  A    between atoms: C_5  and  C_6
REMARK    4  A    between atoms: C_5  and  C_7
REMARK    5  A    between atoms: C_5  and  C_8
REMARK    6  A    between atoms: C_8  and  O_9
REMARK    7  A    between atoms: O_9  and  C_10
REMARK    8  A    between atoms: C_13  and  C_14
REMARK    9  A    between atoms: C_20  and  C_21
REMARK   10  A    between atoms: C_22  and  O_23
REMARK   11  A    between atoms: O_23  and  C_24
REMARK   12  A    between atoms: N_26  and  C_27
REMARK                            x       y       z     vdW  Elec       q    Type
REMARK                         _______ _______ _______ _____ _____    ______ ____
ROOT
ATOM      1  C   UNL     1      43.756   5.061  11.968  0.00  0.00    +0.000 C 
ATOM      2  C   UNL     1      42.831   4.632  13.123  0.00  0.00    +0.000 C 
ATOM      3  C   UNL     1      43.177   6.295  11.249  0.00  0.00    +0.000 C 
ENDROOT
BRANCH   1   7
ATOM      4  C   UNL     1      47.926   7.762  11.460  0.00  0.00    +0.000 C 
ATOM      5  C   UNL     1      47.258   6.729  12.325  0.00  0.00    +0.000 A 
ATOM      6  C   UNL     1      45.980   6.345  11.871  0.00  0.00    +0.000 A 
ATOM      7  C   UNL     1      45.156   5.413  12.518  0.00  0.00    +0.000 A 
ATOM      8  C   UNL     1      45.661   4.843  13.688  0.00  0.00    +0.000 A 
ATOM      9  C   UNL     1      46.944   5.177  14.167  0.00  0.00    +0.000 A 
ATOM     10  C   UNL     1      47.431   4.514  15.433  0.00  0.00    +0.000 C 
ATOM     11  C   UNL     1      47.756   6.117  13.482  0.00  0.00    +0.000 A 
BRANCH  11  12
ATOM     12  O   UNL     1      49.022   6.212  14.011  0.00  0.00    +0.000 OA
BRANCH  12  13
ATOM     13  C   UNL     1      49.510   7.367  14.722  0.00  0.00    +0.000 C 
ATOM     14  C   UNL     1      50.020   7.051  16.153  0.00  0.00    +0.000 C 
ATOM     15  N   UNL     1      49.066   8.006  16.733  0.00  0.00    +0.000 NA
ATOM     16  C   UNL     1      49.772   9.164  17.279  0.00  0.00    +0.000 C 
ATOM     17  C   UNL     1      48.498   8.305  15.407  0.00  0.00    +0.000 C 
ENDBRANCH  12  13
ENDBRANCH  11  12
ENDBRANCH   1   7
BRANCH   1  18
ATOM     18  C   UNL     1      43.828   3.889  10.949  0.00  0.00    +0.000 C 
BRANCH  18  19
ATOM     19  O   UNL     1      43.738   4.283   9.575  0.00  0.00    +0.000 OA
BRANCH  19  20
ATOM     20  C   UNL     1      44.710   3.629   8.832  0.00  0.00    +0.000 A 
ATOM     21  C   UNL     1      44.968   2.305   9.145  0.00  0.00    +0.000 A 
ATOM     22  C   UNL     1      45.919   1.619   8.387  0.00  0.00    +0.000 A 
ATOM     23  C   UNL     1      46.569   2.278   7.345  0.00  0.00    +0.000 A 
ATOM     24  C   UNL     1      46.247   3.601   7.104  0.00  0.00    +0.000 A 
ATOM     25  N   UNL     1      45.340   4.291   7.833  0.00  0.00    +0.000 NA
BRANCH  23  26
ATOM     26  C   UNL     1      47.561   1.623   6.457  0.00  0.00    +0.000 C 
ATOM     27  N   UNL     1      48.664   2.352   6.109  0.00  0.00    +0.000 N 
ATOM     28  O   UNL     1      47.388   0.491   6.045  0.00  0.00    +0.000 OA
ATOM     29  H   UNL     1      48.750   3.342   6.263  0.00  0.00    +0.000 HD
ATOM     30  H   UNL     1      49.299   1.919   5.448  0.00  0.00    +0.000 HD
ENDBRANCH  23  26
ENDBRANCH  19  20
ENDBRANCH  18  19
ENDBRANCH   1  18
TORSDOF 7
ENDMDL
MODEL 3
REMARK VINA RESULT:    -7.291      2.270      3.335
REMARK INTER + INTRA:         -11.417
REMARK INTER:                 -10.351
REMARK INTRA:                  -1.066
REMARK UNBOUND:                -1.142
REMARK  Name = 
REMARK  12 active torsions:
REMARK  status: ('A' for Active; 'I' for Inactive)
REMARK    1  A    between atoms: C_1  and  C_2
REMARK    2  A    between atoms: C_4  and  C_5
REMARK    3  A    between atoms: C_5  and  C_6
REMARK    4  A    between atoms: C_5  and  C_7
REMARK    5  A    between atoms: C_5  and  C_8
REMARK    6  A    between atoms: C_8  and  O_9
REMARK    7  A    between atoms: O_9  and  C_10
REMARK    8  A    between atoms: C_13  and  C_14
REMARK    9  A    between atoms: C_20  and  C_21
REMARK   10  A    between atoms: C_22  and  O_23
REMARK   11  A    between atoms: O_23  and  C_24
REMARK   12  A    between atoms: N_26  and  C_27
REMARK                            x       y       z     vdW  Elec       q    Type
REMARK                         _______ _______ _______ _____ _____    ______ ____
ROOT
ATOM      1  C   UNL     1      44.153   4.761  12.098  0.00  0.00    +0.000 C 
ATOM      2  C   UNL     1      44.806   3.467  12.618  0.00  0.00    +0.000 C 
ATOM      3  C   UNL     1      42.874   5.074  12.900  0.00  0.00    +0.000 C 
ENDROOT
BRANCH   1   7
ATOM      4  C   UNL     1      44.819   9.711  12.122  0.00  0.00    +0.000 C 
ATOM      5  C   UNL     1      45.538   8.399  12.269  0.00  0.00    +0.000 A 
ATOM      6  C   UNL     1      44.701   7.272  12.130  0.00  0.00    +0.000 A 
ATOM      7  C   UNL     1      45.136   5.943  12.244  0.00  0.00    +0.000 A 
ATOM      8  C   UNL     1      46.493   5.754  12.514  0.00  0.00    +0.000 A 
ATOM      9  C   UNL     1      47.372   6.849  12.638  0.00  0.00    +0.000 A 
ATOM     10  C   UNL     1      48.828   6.571  12.921  0.00  0.00    +0.000 C 
ATOM     11  C   UNL     1      46.900   8.181  12.506  0.00  0.00    +0.000 A 
BRANCH  11  12
ATOM     12  O   UNL     1      47.916   9.108  12.515  0.00  0.00    +0.000 OA
BRANCH  12  13
ATOM     13  C   UNL     1      48.440   9.734  11.327  0.00  0.00    +0.000 C 
ATOM     14  C   UNL     1      49.966  10.012  11.388  0.00  0.00    +0.000 C 
ATOM     15  N   UNL     1      49.740  11.446  11.159  0.00  0.00    +0.000 NA
ATOM     16  C   UNL     1      50.230  11.836   9.839  0.00  0.00    +0.000 C 
ATOM     17  C   UNL     1      48.280  11.257  11.152  0.00  0.00    +0.000 C 
ENDBRANCH  12  13
ENDBRANCH  11  12
ENDBRANCH   1   7
BRANCH   1  18
ATOM     18  C   UNL     1      43.756   4.536  10.612  0.00  0.00    +0.000 C 
BRANCH  18  19
ATOM     19  O   UNL     1      44.597   5.198   9.660  0.00  0.00    +0.000 OA
BRANCH  19  20
ATOM     20  C   UNL     1      45.315   4.261   8.933  0.00  0.00    +0.000 A 
ATOM     21  C   UNL     1      45.055   2.923   9.185  0.00  0.00    +0.000 A 
ATOM     22  C   UNL     1      45.743   1.964   8.440  0.00  0.00    +0.000 A 
ATOM     23  C   UNL     1      46.657   2.375   7.471  0.00  0.00    +0.000 A 
ATOM     24  C   UNL     1      46.852   3.731   7.287  0.00  0.00    +0.000 A 
ATOM     25  N   UNL     1      46.208   4.680   8.006  0.00  0.00    +0.000 NA
BRANCH  23  26
ATOM     26  C   UNL     1      47.403   1.434   6.601  0.00  0.00    +0.000 C 
ATOM     27  N   UNL     1      48.458   1.940   5.894  0.00  0.00    +0.000 N 
ATOM     28  O   UNL     1      47.076   0.265   6.509  0.00  0.00    +0.000 OA
ATOM     29  H   UNL     1      48.639   2.924   5.789  0.00  0.00    +0.000 HD
ATOM     30  H   UNL     1      48.916   1.303   5.252  0.00  0.00    +0.000 HD
ENDBRANCH  23  26
ENDBRANCH  19  20
ENDBRANCH  18  19
ENDBRANCH   1  18
TORSDOF 7
ENDMDL
MODEL 4
REMARK VINA RESULT:    -7.091      1.972      2.413
REMARK INTER + INTRA:         -11.135
REMARK INTER:                 -10.116
REMARK INTRA:                  -1.020
REMARK UNBOUND:                -1.142
REMARK  Name = 
REMARK  12 active torsions:
REMARK  status: ('A' for Active; 'I' for Inactive)
REMARK    1  A    between atoms: C_1  and  C_2
REMARK    2  A    between atoms: C_4  and  C_5
REMARK    3  A    between atoms: C_5  and  C_6
REMARK    4  A    between atoms: C_5  and  C_7
REMARK    5  A    between atoms: C_5  and  C_8
REMARK    6  A    between atoms: C_8  and  O_9
REMARK    7  A    between atoms: O_9  and  C_10
REMARK    8  A    between atoms: C_13  and  C_14
REMARK    9  A    between atoms: C_20  and  C_21
REMARK   10  A    between atoms: C_22  and  O_23
REMARK   11  A    between atoms: O_23  and  C_24
REMARK   12  A    between atoms: N_26  and  C_27
REMARK                            x       y       z     vdW  Elec       q    Type
REMARK                         _______ _______ _______ _____ _____    ______ ____
ROOT
ATOM      1  C   UNL     1      44.178   4.844  12.115  0.00  0.00    +0.000 C 
ATOM      2  C   UNL     1      44.862   3.619  12.750  0.00  0.00    +0.000 C 
ATOM      3  C   UNL     1      42.905   5.214  12.902  0.00  0.00    +0.000 C 
ENDROOT
BRANCH   1   7
ATOM      4  C   UNL     1      48.890   6.471  12.426  0.00  0.00    +0.000 C 
ATOM      5  C   UNL     1      47.466   6.929  12.275  0.00  0.00    +0.000 A 
ATOM      6  C   UNL     1      46.526   5.877  12.273  0.00  0.00    +0.000 A 
ATOM      7  C   UNL     1      45.142   6.051  12.128  0.00  0.00    +0.000 A 
ATOM      8  C   UNL     1      44.692   7.365  11.978  0.00  0.00    +0.000 A 
ATOM      9  C   UNL     1      45.592   8.450  11.999  0.00  0.00    +0.000 A 
ATOM     10  C   UNL     1      45.036   9.844  11.840  0.00  0.00    +0.000 C 
ATOM     11  C   UNL     1      46.986   8.239  12.157  0.00  0.00    +0.000 A 
BRANCH  11  12
ATOM     12  O   UNL     1      47.689   9.413  12.296  0.00  0.00    +0.000 OA
BRANCH  12  13
ATOM     13  C   UNL     1      48.224   9.884  13.548  0.00  0.00    +0.000 C 
ATOM     14  C   UNL     1      48.687  11.365  13.514  0.00  0.00    +0.000 C 
ATOM     15  N   UNL     1      50.045  10.977  13.918  0.00  0.00    +0.000 NA
ATOM     16  C   UNL     1      50.327  11.445  15.274  0.00  0.00    +0.000 C 
ATOM     17  C   UNL     1      49.684   9.550  13.911  0.00  0.00    +0.000 C 
ENDBRANCH  12  13
ENDBRANCH  11  12
ENDBRANCH   1   7
BRANCH   1  18
ATOM     18  C   UNL     1      43.765   4.467  10.664  0.00  0.00    +0.000 C 
BRANCH  18  19
ATOM     19  O   UNL     1      44.526   5.112   9.637  0.00  0.00    +0.000 OA
BRANCH  19  20
ATOM     20  C   UNL     1      45.264   4.171   8.934  0.00  0.00    +0.000 A 
ATOM     21  C   UNL     1      45.042   2.836   9.234  0.00  0.00    +0.000 A 
ATOM     22  C   UNL     1      45.750   1.871   8.514  0.00  0.00    +0.000 A 
ATOM     23  C   UNL     1      46.643   2.274   7.523  0.00  0.00    +0.000 A 
ATOM     24  C   UNL     1      46.800   3.629   7.293  0.00  0.00    +0.000 A 
ATOM     25  N   UNL     1      46.136   4.583   7.986  0.00  0.00    +0.000 NA
BRANCH  23  26
ATOM     26  C   UNL     1      47.408   1.325   6.677  0.00  0.00    +0.000 C 
ATOM     27  N   UNL     1      48.492   1.820   6.007  0.00  0.00    +0.000 N 
ATOM     28  O   UNL     1      47.071   0.160   6.574  0.00  0.00    +0.000 OA
ATOM     29  H   UNL     1      48.687   2.802   5.908  0.00  0.00    +0.000 HD
ATOM     30  H   UNL     1      48.963   1.179   5.379  0.00  0.00    +0.000 HD
ENDBRANCH  23  26
ENDBRANCH  19  20
ENDBRANCH  18  19
ENDBRANCH   1  18
TORSDOF 7
ENDMDL
MODEL 5
REMARK VINA RESULT:    -6.652      4.070      6.594
REMARK INTER + INTRA:         -10.516
REMARK INTER:                  -9.528
REMARK INTRA:                  -0.988
REMARK UNBOUND:                -1.142
REMARK  Name = 
REMARK  12 active torsions:
REMARK  status: ('A' for Active; 'I' for Inactive)
REMARK    1  A    between atoms: C_1  and  C_2
REMARK    2  A    between atoms: C_4  and  C_5
REMARK    3  A    between atoms: C_5  and  C_6
REMARK    4  A    between atoms: C_5  and  C_7
REMARK    5  A    between atoms: C_5  and  C_8
REMARK    6  A    between atoms: C_8  and  O_9
REMARK    7  A    between atoms: O_9  and  C_10
REMARK    8  A    between atoms: C_13  and  C_14
REMARK    9  A    between atoms: C_20  and  C_21
REMARK   10  A    between atoms: C_22  and  O_23
REMARK   11  A    between atoms: O_23  and  C_24
REMARK   12  A    between atoms: N_26  and  C_27
REMARK                            x       y       z     vdW  Elec       q    Type
REMARK                         _______ _______ _______ _____ _____    ______ ____
ROOT
ATOM      1  C   UNL     1      47.929   4.170  17.190  0.00  0.00    +0.000 C 
ATOM      2  C   UNL     1      47.322   2.777  17.437  0.00  0.00    +0.000 C 
ATOM      3  C   UNL     1      47.396   5.178  18.226  0.00  0.00    +0.000 C 
ENDROOT
BRANCH   1   7
ATOM      4  C   UNL     1      51.998   1.309  17.638  0.00  0.00    +0.000 C 
ATOM      5  C   UNL     1      51.536   2.735  17.527  0.00  0.00    +0.000 A 
ATOM      6  C   UNL     1      50.135   2.875  17.436  0.00  0.00    +0.000 A 
ATOM      7  C   UNL     1      49.468   4.102  17.306  0.00  0.00    +0.000 A 
ATOM      8  C   UNL     1      50.269   5.245  17.268  0.00  0.00    +0.000 A 
ATOM      9  C   UNL     1      51.672   5.156  17.382  0.00  0.00    +0.000 A 
ATOM     10  C   UNL     1      52.475   6.433  17.343  0.00  0.00    +0.000 C 
ATOM     11  C   UNL     1      52.314   3.898  17.522  0.00  0.00    +0.000 A 
BRANCH  11  12
ATOM     12  O   UNL     1      53.664   4.015  17.760  0.00  0.00    +0.000 OA
BRANCH  12  13
ATOM     13  C   UNL     1      54.247   4.024  19.078  0.00  0.00    +0.000 C 
ATOM     14  C   UNL     1      54.962   2.698  19.454  0.00  0.00    +0.000 C 
ATOM     15  N   UNL     1      54.100   2.538  20.634  0.00  0.00    +0.000 NA
ATOM     16  C   UNL     1      54.875   2.719  21.860  0.00  0.00    +0.000 C 
ATOM     17  C   UNL     1      53.344   3.756  20.297  0.00  0.00    +0.000 C 
ENDBRANCH  12  13
ENDBRANCH  11  12
ENDBRANCH   1   7
BRANCH   1  18
ATOM     18  C   UNL     1      47.490   4.643  15.775  0.00  0.00    +0.000 C 
BRANCH  18  19
ATOM     19  O   UNL     1      47.351   3.595  14.809  0.00  0.00    +0.000 OA
BRANCH  19  20
ATOM     20  C   UNL     1      46.427   3.965  13.842  0.00  0.00    +0.000 A 
ATOM     21  C   UNL     1      46.061   5.300  13.789  0.00  0.00    +0.000 A 
ATOM     22  C   UNL     1      45.158   5.698  12.801  0.00  0.00    +0.000 A 
ATOM     23  C   UNL     1      44.663   4.754  11.904  0.00  0.00    +0.000 A 
ATOM     24  C   UNL     1      45.085   3.443  12.032  0.00  0.00    +0.000 A 
ATOM     25  N   UNL     1      45.948   3.030  12.990  0.00  0.00    +0.000 NA
BRANCH  23  26
ATOM     26  C   UNL     1      43.735   5.087  10.796  0.00  0.00    +0.000 C 
ATOM     27  N   UNL     1      44.045   4.605   9.555  0.00  0.00    +0.000 N 
ATOM     28  O   UNL     1      42.749   5.776  10.984  0.00  0.00    +0.000 OA
ATOM     29  H   UNL     1      44.938   4.205   9.318  0.00  0.00    +0.000 HD
ATOM     30  H   UNL     1      43.442   4.897   8.795  0.00  0.00    +0.000 HD
ENDBRANCH  23  26
ENDBRANCH  19  20
ENDBRANCH  18  19
ENDBRANCH   1  18
TORSDOF 7
ENDMDL
MODEL 6
REMARK VINA RESULT:    -6.309      2.713      8.506
REMARK INTER + INTRA:         -10.033
REMARK INTER:                  -8.700
REMARK INTRA:                  -1.333
REMARK UNBOUND:                -1.142
REMARK  Name = 
REMARK  12 active torsions:
REMARK  status: ('A' for Active; 'I' for Inactive)
REMARK    1  A    between atoms: C_1  and  C_2
REMARK    2  A    between atoms: C_4  and  C_5
REMARK    3  A    between atoms: C_5  and  C_6
REMARK    4  A    between atoms: C_5  and  C_7
REMARK    5  A    between atoms: C_5  and  C_8
REMARK    6  A    between atoms: C_8  and  O_9
REMARK    7  A    between atoms: O_9  and  C_10
REMARK    8  A    between atoms: C_13  and  C_14
REMARK    9  A    between atoms: C_20  and  C_21
REMARK   10  A    between atoms: C_22  and  O_23
REMARK   11  A    between atoms: O_23  and  C_24
REMARK   12  A    between atoms: N_26  and  C_27
REMARK                            x       y       z     vdW  Elec       q    Type
REMARK                         _______ _______ _______ _____ _____    ______ ____
ROOT
ATOM      1  C   UNL     1      49.271   8.539  12.338  0.00  0.00    +0.000 C 
ATOM      2  C   UNL     1      50.345   7.648  11.686  0.00  0.00    +0.000 C 
ATOM      3  C   UNL     1      49.088   9.837  11.526  0.00  0.00    +0.000 C 
ENDROOT
BRANCH   1   7
ATOM      4  C   UNL     1      46.790   4.424  13.700  0.00  0.00    +0.000 C 
ATOM      5  C   UNL     1      46.626   5.766  13.042  0.00  0.00    +0.000 A 
ATOM      6  C   UNL     1      47.825   6.503  12.945  0.00  0.00    +0.000 A 
ATOM      7  C   UNL     1      47.923   7.787  12.389  0.00  0.00    +0.000 A 
ATOM      8  C   UNL     1      46.738   8.348  11.907  0.00  0.00    +0.000 A 
ATOM      9  C   UNL     1      45.521   7.639  11.960  0.00  0.00    +0.000 A 
ATOM     10  C   UNL     1      44.281   8.303  11.412  0.00  0.00    +0.000 C 
ATOM     11  C   UNL     1      45.459   6.337  12.521  0.00  0.00    +0.000 A 
BRANCH  11  12
ATOM     12  O   UNL     1      44.227   5.747  12.360  0.00  0.00    +0.000 OA
BRANCH  12  13
ATOM     13  C   UNL     1      43.900   4.859  11.273  0.00  0.00    +0.000 C 
ATOM     14  C   UNL     1      43.998   3.355  11.643  0.00  0.00    +0.000 C 
ATOM     15  N   UNL     1      44.974   3.127  10.569  0.00  0.00    +0.000 NA
ATOM     16  C   UNL     1      44.385   2.312   9.508  0.00  0.00    +0.000 C 
ATOM     17  C   UNL     1      44.972   4.555  10.208  0.00  0.00    +0.000 C 
ENDBRANCH  12  13
ENDBRANCH  11  12
ENDBRANCH   1   7
BRANCH   1  18
ATOM     18  C   UNL     1      49.761   8.919  13.764  0.00  0.00    +0.000 C 
BRANCH  18  19
ATOM     19  O   UNL     1      50.534   7.908  14.421  0.00  0.00    +0.000 OA
BRANCH  19  20
ATOM     20  C   UNL     1      49.880   7.486  15.570  0.00  0.00    +0.000 A 
ATOM     21  C   UNL     1      49.192   8.443  16.298  0.00  0.00    +0.000 A 
ATOM     22  C   UNL     1      48.499   8.034  17.439  0.00  0.00    +0.000 A 
ATOM     23  C   UNL     1      48.516   6.689  17.805  0.00  0.00    +0.000 A 
ATOM     24  C   UNL     1      49.230   5.804  17.018  0.00  0.00    +0.000 A 
ATOM     25  N   UNL     1      49.920   6.179  15.915  0.00  0.00    +0.000 NA
BRANCH  23  26
ATOM     26  C   UNL     1      47.778   6.151  18.974  0.00  0.00    +0.000 C 
ATOM     27  N   UNL     1      46.586   5.529  18.728  0.00  0.00    +0.000 N 
ATOM     28  O   UNL     1      48.211   6.276  20.105  0.00  0.00    +0.000 OA
ATOM     29  H   UNL     1      46.104   5.576  17.846  0.00  0.00    +0.000 HD
ATOM     30  H   UNL     1      46.060   5.228  19.539  0.00  0.00    +0.000 HD
ENDBRANCH  23  26
ENDBRANCH  19  20
ENDBRANCH  18  19
ENDBRANCH   1  18
TORSDOF 7
ENDMDL
MODEL 7
REMARK VINA RESULT:    -5.974      3.043      5.238
REMARK INTER + INTRA:          -9.560
REMARK INTER:                  -8.432
REMARK INTRA:                  -1.129
REMARK UNBOUND:                -1.142
REMARK  Name = 
REMARK  12 active torsions:
REMARK  status: ('A' for Active; 'I' for Inactive)
REMARK    1  A    between atoms: C_1  and  C_2
REMARK    2  A    between atoms: C_4  and  C_5
REMARK    3  A    between atoms: C_5  and  C_6
REMARK    4  A    between atoms: C_5  and  C_7
REMARK    5  A    between atoms: C_5  and  C_8
REMARK    6  A    between atoms: C_8  and  O_9
REMARK    7  A    between atoms: O_9  and  C_10
REMARK    8  A    between atoms: C_13  and  C_14
REMARK    9  A    between atoms: C_20  and  C_21
REMARK   10  A    between atoms: C_22  and  O_23
REMARK   11  A    between atoms: O_23  and  C_24
REMARK   12  A    between atoms: N_26  and  C_27
REMARK                            x       y       z     vdW  Elec       q    Type
REMARK                         _______ _______ _______ _____ _____    ______ ____
ROOT
ATOM      1  C   UNL     1      48.502   7.750  13.785  0.00  0.00    +0.000 C 
ATOM      2  C   UNL     1      48.930   9.201  14.076  0.00  0.00    +0.000 C 
ATOM      3  C   UNL     1      49.260   7.204  12.559  0.00  0.00    +0.000 C 
ENDROOT
BRANCH   1   7
ATOM      4  C   UNL     1      47.209   3.799  16.553  0.00  0.00    +0.000 C 
ATOM      5  C   UNL     1      48.227   4.898  16.425  0.00  0.00    +0.000 A 
ATOM      6  C   UNL     1      47.994   5.767  15.340  0.00  0.00    +0.000 A 
ATOM      7  C   UNL     1      48.814   6.855  15.005  0.00  0.00    +0.000 A 
ATOM      8  C   UNL     1      49.929   7.067  15.818  0.00  0.00    +0.000 A 
ATOM      9  C   UNL     1      50.190   6.239  16.929  0.00  0.00    +0.000 A 
ATOM     10  C   UNL     1      51.407   6.531  17.770  0.00  0.00    +0.000 C 
ATOM     11  C   UNL     1      49.333   5.152  17.246  0.00  0.00    +0.000 A 
BRANCH  11  12
ATOM     12  O   UNL     1      49.660   4.546  18.436  0.00  0.00    +0.000 OA
BRANCH  12  13
ATOM     13  C   UNL     1      48.819   4.571  19.606  0.00  0.00    +0.000 C 
ATOM     14  C   UNL     1      47.982   5.870  19.748  0.00  0.00    +0.000 C 
ATOM     15  N   UNL     1      48.574   6.138  21.066  0.00  0.00    +0.000 NA
ATOM     16  C   UNL     1      47.571   5.976  22.117  0.00  0.00    +0.000 C 
ATOM     17  C   UNL     1      49.438   4.951  20.964  0.00  0.00    +0.000 C 
ENDBRANCH  12  13
ENDBRANCH  11  12
ENDBRANCH   1   7
BRANCH   1  18
ATOM     18  C   UNL     1      46.982   7.752  13.461  0.00  0.00    +0.000 C 
BRANCH  18  19
ATOM     19  O   UNL     1      46.666   7.662  12.067  0.00  0.00    +0.000 OA
BRANCH  19  20
ATOM     20  C   UNL     1      46.021   6.461  11.806  0.00  0.00    +0.000 A 
ATOM     21  C   UNL     1      45.532   5.753  12.891  0.00  0.00    +0.000 A 
ATOM     22  C   UNL     1      44.850   4.559  12.648  0.00  0.00    +0.000 A 
ATOM     23  C   UNL     1      44.678   4.123  11.335  0.00  0.00    +0.000 A 
ATOM     24  C   UNL     1      45.200   4.896  10.314  0.00  0.00    +0.000 A 
ATOM     25  N   UNL     1      45.877   6.049  10.525  0.00  0.00    +0.000 NA
BRANCH  23  26
ATOM     26  C   UNL     1      43.932   2.893  10.974  0.00  0.00    +0.000 C 
ATOM     27  N   UNL     1      44.414   2.155   9.930  0.00  0.00    +0.000 N 
ATOM     28  O   UNL     1      42.924   2.568  11.573  0.00  0.00    +0.000 OA
ATOM     29  H   UNL     1      45.118   2.484   9.290  0.00  0.00    +0.000 HD
ATOM     30  H   UNL     1      43.858   1.355   9.648  0.00  0.00    +0.000 HD
ENDBRANCH  23  26
ENDBRANCH  19  20
ENDBRANCH  18  19
ENDBRANCH   1  18
TORSDOF 7
ENDMDL
MODEL 8
REMARK VINA RESULT:    -5.912      3.712      6.464
REMARK INTER + INTRA:          -9.473
REMARK INTER:                  -8.518
REMARK INTRA:                  -0.956
REMARK UNBOUND:                -1.142
REMARK  Name = 
REMARK  12 active torsions:
REMARK  status: ('A' for Active; 'I' for Inactive)
REMARK    1  A    between atoms: C_1  and  C_2
REMARK    2  A    between atoms: C_4  and  C_5
REMARK    3  A    between atoms: C_5  and  C_6
REMARK    4  A    between atoms: C_5  and  C_7
REMARK    5  A    between atoms: C_5  and  C_8
REMARK    6  A    between atoms: C_8  and  O_9
REMARK    7  A    between atoms: O_9  and  C_10
REMARK    8  A    between atoms: C_13  and  C_14
REMARK    9  A    between atoms: C_20  and  C_21
REMARK   10  A    between atoms: C_22  and  O_23
REMARK   11  A    between atoms: O_23  and  C_24
REMARK   12  A    between atoms: N_26  and  C_27
REMARK                            x       y       z     vdW  Elec       q    Type
REMARK                         _______ _______ _______ _____ _____    ______ ____
ROOT
ATOM      1  C   UNL     1      48.182   3.530  16.966  0.00  0.00    +0.000 C 
ATOM      2  C   UNL     1      49.334   2.538  16.722  0.00  0.00    +0.000 C 
ATOM      3  C   UNL     1      46.975   2.804  17.594  0.00  0.00    +0.000 C 
ENDROOT
BRANCH   1   7
ATOM      4  C   UNL     1      48.406   5.240  21.653  0.00  0.00    +0.000 C 
ATOM      5  C   UNL     1      48.793   5.559  20.236  0.00  0.00    +0.000 A 
ATOM      6  C   UNL     1      48.385   4.585  19.301  0.00  0.00    +0.000 A 
ATOM      7  C   UNL     1      48.645   4.650  17.924  0.00  0.00    +0.000 A 
ATOM      8  C   UNL     1      49.357   5.764  17.477  0.00  0.00    +0.000 A 
ATOM      9  C   UNL     1      49.764   6.776  18.371  0.00  0.00    +0.000 A 
ATOM     10  C   UNL     1      50.522   7.958  17.818  0.00  0.00    +0.000 C 
ATOM     11  C   UNL     1      49.476   6.684  19.758  0.00  0.00    +0.000 A 
BRANCH  11  12
ATOM     12  O   UNL     1      49.822   7.821  20.449  0.00  0.00    +0.000 OA
BRANCH  12  13
ATOM     13  C   UNL     1      48.888   8.860  20.802  0.00  0.00    +0.000 C 
ATOM     14  C   UNL     1      48.413   8.799  22.279  0.00  0.00    +0.000 C 
ATOM     15  N   UNL     1      47.011   8.694  21.852  0.00  0.00    +0.000 NA
ATOM     16  C   UNL     1      46.281   9.914  22.193  0.00  0.00    +0.000 C 
ATOM     17  C   UNL     1      47.402   8.687  20.432  0.00  0.00    +0.000 C 
ENDBRANCH  12  13
ENDBRANCH  11  12
ENDBRANCH   1   7
BRANCH   1  18
ATOM     18  C   UNL     1      47.744   4.108  15.591  0.00  0.00    +0.000 C 
BRANCH  18  19
ATOM     19  O   UNL     1      47.449   3.124  14.593  0.00  0.00    +0.000 OA
BRANCH  19  20
ATOM     20  C   UNL     1      46.526   3.630  13.689  0.00  0.00    +0.000 A 
ATOM     21  C   UNL     1      46.393   5.008  13.619  0.00  0.00    +0.000 A 
ATOM     22  C   UNL     1      45.494   5.539  12.692  0.00  0.00    +0.000 A 
ATOM     23  C   UNL     1      44.771   4.677  11.870  0.00  0.00    +0.000 A 
ATOM     24  C   UNL     1      44.969   3.316  12.009  0.00  0.00    +0.000 A 
ATOM     25  N   UNL     1      45.824   2.777  12.909  0.00  0.00    +0.000 NA
BRANCH  23  26
ATOM     26  C   UNL     1      43.825   5.146  10.826  0.00  0.00    +0.000 C 
ATOM     27  N   UNL     1      44.049   4.724   9.546  0.00  0.00    +0.000 N 
ATOM     28  O   UNL     1      42.901   5.890  11.101  0.00  0.00    +0.000 OA
ATOM     29  H   UNL     1      44.899   4.277   9.245  0.00  0.00    +0.000 HD
ATOM     30  H   UNL     1      43.438   5.106   8.833  0.00  0.00    +0.000 HD
ENDBRANCH  23  26
ENDBRANCH  19  20
ENDBRANCH  18  19
ENDBRANCH   1  18
TORSDOF 7
ENDMDL
