MODEL 1
REMARK VINA RESULT:    -7.802      0.000      0.000
REMARK INTER + INTRA:          -9.677
REMARK INTER:                  -9.627
REMARK INTRA:                  -0.051
REMARK UNBOUND:                -0.051
REMARK  Name = 
REMARK  4 active torsions:
REMARK  status: ('A' for Active; 'I' for Inactive)
REMARK    1  A    between atoms: C_5  and  N_6
REMARK    2  A    between atoms: N_6  and  C_7
REMARK    3  A    between atoms: C_7  and  C_8
REMARK    4  A    between atoms: C_12  and  N_13
REMARK                            x       y       z     vdW  Elec       q    Type
REMARK                         _______ _______ _______ _____ _____    ______ ____
ROOT
ATOM      1  C   UNL     1      44.795   6.180  11.510  0.00  0.00    +0.000 A 
ATOM      2  C   UNL     1      44.737   7.579  11.431  0.00  0.00    +0.000 A 
ATOM      3  C   UNL     1      45.668   8.375  12.093  0.00  0.00    +0.000 A 
ATOM      4  C   UNL     1      46.656   7.780  12.878  0.00  0.00    +0.000 A 
ATOM      5  C   UNL     1      46.782   6.391  12.949  0.00  0.00    +0.000 A 
ATOM      6  C   UNL     1      45.895   5.620  12.190  0.00  0.00    +0.000 A 
ENDROOT
BRANCH   5   7
ATOM      7  N   UNL     1      47.674   5.777  13.799  0.00  0.00    +0.000 N 
ATOM      8  C   UNL     1      47.417   4.442  14.342  0.00  0.00    +0.000 C 
ATOM      9  C   UNL     1      47.391   4.487  15.882  0.00  0.00    +0.000 C 
ATOM     10  N   UNL     1      48.600   5.109  16.468  0.00  0.00    +0.000 NA
ATOM     11  C   UNL     1      48.760   6.467  15.898  0.00  0.00    +0.000 C 
ATOM     12  C   UNL     1      48.825   6.493  14.351  0.00  0.00    +0.000 C 
ATOM     13  H   UNL     1      49.405   4.554  16.175  0.00  0.00    +0.000 HD
ENDBRANCH   5   7
BRANCH   1  14
ATOM     14  C   UNL     1      43.647   5.291  11.027  0.00  0.00    +0.000 C 
ATOM     15  C   UNL     1      43.177   4.204  11.993  0.00  0.00    +0.000 C 
ATOM     16  C   UNL     1      42.326   5.405  11.774  0.00  0.00    +0.000 C 
BRANCH  14  17
ATOM     17  N   UNL     1      43.661   4.959   9.595  0.00  0.00    +0.000 N 
ATOM     18  H   UNL     1      42.764   4.807   9.142  0.00  0.00    +0.000 HD
BRANCH  17  23
ATOM     19 CL   UNL     1      47.402   1.163   7.273  0.00  0.00    +0.000 Cl
ATOM     20  C   UNL     1      46.320   2.290   7.969  0.00  0.00    +0.000 A 
ATOM     21  C   UNL     1      46.356   3.635   7.663  0.00  0.00    +0.000 A 
ATOM     22  N   UNL     1      45.487   4.534   8.196  0.00  0.00    +0.000 NA
ATOM     23  C   UNL     1      44.562   4.037   9.047  0.00  0.00    +0.000 A 
ATOM     24  C   UNL     1      44.564   2.672   9.360  0.00  0.00    +0.000 A 
ATOM     25  N   UNL     1      45.424   1.767   8.827  0.00  0.00    +0.000 NA
ENDBRANCH  17  23
ENDBRANCH  14  17
ENDBRANCH   1  14
TORSDOF 4
ENDMDL
MODEL 2
REMARK VINA RESULT:    -7.617      1.386      2.294
REMARK INTER + INTRA:          -9.449
REMARK INTER:                  -9.149
REMARK INTRA:                  -0.301
REMARK UNBOUND:                -0.051
REMARK  Name = 
REMARK  4 active torsions:
REMARK  status: ('A' for Active; 'I' for Inactive)
REMARK    1  A    between atoms: C_5  and  N_6
REMARK    2  A    between atoms: N_6  and  C_7
REMARK    3  A    between atoms: C_7  and  C_8
REMARK    4  A    between atoms: C_12  and  N_13
REMARK                            x       y       z     vdW  Elec       q    Type
REMARK                         _______ _______ _______ _____ _____    ______ ____
ROOT
ATOM      1  C   UNL     1      45.782   5.155  12.512  0.00  0.00    +0.000 A 
ATOM      2  C   UNL     1      46.523   6.187  11.917  0.00  0.00    +0.000 A 
ATOM      3  C   UNL     1      47.630   6.738  12.558  0.00  0.00    +0.000 A 
ATOM      4  C   UNL     1      47.992   6.286  13.827  0.00  0.00    +0.000 A 
ATOM      5  C   UNL     1      47.313   5.230  14.439  0.00  0.00    +0.000 A 
ATOM      6  C   UNL     1      46.271   4.630  13.724  0.00  0.00    +0.000 A 
ENDROOT
BRANCH   5   7
ATOM      7  N   UNL     1      47.577   4.837  15.731  0.00  0.00    +0.000 N 
ATOM      8  C   UNL     1      48.420   5.641  16.617  0.00  0.00    +0.000 C 
ATOM      9  C   UNL     1      49.633   4.819  17.092  0.00  0.00    +0.000 C 
ATOM     10  N   UNL     1      49.258   3.522  17.699  0.00  0.00    +0.000 NA
ATOM     11  C   UNL     1      48.446   2.758  16.723  0.00  0.00    +0.000 C 
ATOM     12  C   UNL     1      47.190   3.514  16.225  0.00  0.00    +0.000 C 
ATOM     13  H   UNL     1      48.665   3.719  18.506  0.00  0.00    +0.000 HD
ENDBRANCH   5   7
BRANCH   1  14
ATOM     14  C   UNL     1      44.420   4.717  11.969  0.00  0.00    +0.000 C 
ATOM     15  C   UNL     1      43.215   4.970  12.875  0.00  0.00    +0.000 C 
ATOM     16  C   UNL     1      43.412   5.817  11.667  0.00  0.00    +0.000 C 
BRANCH  14  17
ATOM     17  N   UNL     1      44.420   3.476  11.179  0.00  0.00    +0.000 N 
ATOM     18  H   UNL     1      44.654   2.614  11.665  0.00  0.00    +0.000 HD
BRANCH  17  23
ATOM     19 CL   UNL     1      46.818   3.109   5.897  0.00  0.00    +0.000 Cl
ATOM     20  C   UNL     1      46.092   3.206   7.442  0.00  0.00    +0.000 A 
ATOM     21  C   UNL     1      45.867   2.091   8.224  0.00  0.00    +0.000 A 
ATOM     22  N   UNL     1      45.309   2.162   9.462  0.00  0.00    +0.000 NA
ATOM     23  C   UNL     1      44.991   3.399   9.903  0.00  0.00    +0.000 A 
ATOM     24  C   UNL     1      45.206   4.511   9.078  0.00  0.00    +0.000 A 
ATOM     25  N   UNL     1      45.769   4.449   7.844  0.00  0.00    +0.000 NA
ENDBRANCH  17  23
ENDBRANCH  14  17
ENDBRANCH   1  14
TORSDOF 4
ENDMDL
MODEL 3
REMARK VINA RESULT:    -7.559      1.612      3.085
REMARK INTER + INTRA:          -9.378
REMARK INTER:                  -8.807
REMARK INTRA:                  -0.571
REMARK UNBOUND:                -0.051
REMARK  Name = 
REMARK  4 active torsions:
REMARK  status: ('A' for Active; 'I' for Inactive)
REMARK    1  A    between atoms: C_5  and  N_6
REMARK    2  A    between atoms: N_6  and  C_7
REMARK    3  A    between atoms: C_7  and  C_8
REMARK    4  A    between atoms: C_12  and  N_13
REMARK                            x       y       z     vdW  Elec       q    Type
REMARK                         _______ _______ _______ _____ _____    ______ ____
ROOT
ATOM      1  C   UNL     1      44.961   4.864  12.432  0.00  0.00    +0.000 A 
ATOM      2  C   UNL     1      45.558   3.710  12.962  0.00  0.00    +0.000 A 
ATOM      3  C   UNL     1      46.793   3.771  13.603  0.00  0.00    +0.000 A 
ATOM      4  C   UNL     1      47.469   4.987  13.693  0.00  0.00    +0.000 A 
ATOM      5  C   UNL     1      46.893   6.170  13.221  0.00  0.00    +0.000 A 
ATOM      6  C   UNL     1      45.608   6.091  12.675  0.00  0.00    +0.000 A 
ENDROOT
BRANCH   5   7
ATOM      7  N   UNL     1      47.580   7.362  13.197  0.00  0.00    +0.000 N 
ATOM      8  C   UNL     1      46.898   8.642  13.396  0.00  0.00    +0.000 C 
ATOM      9  C   UNL     1      47.102   9.553  12.170  0.00  0.00    +0.000 C 
ATOM     10  N   UNL     1      48.526   9.727  11.802  0.00  0.00    +0.000 NA
ATOM     11  C   UNL     1      49.125   8.390  11.579  0.00  0.00    +0.000 C 
ATOM     12  C   UNL     1      48.984   7.430  12.785  0.00  0.00    +0.000 C 
ATOM     13  H   UNL     1      49.001  10.148  12.601  0.00  0.00    +0.000 HD
ENDBRANCH   5   7
BRANCH   1  14
ATOM     14  C   UNL     1      43.752   4.795  11.496  0.00  0.00    +0.000 C 
ATOM     15  C   UNL     1      42.432   5.330  12.052  0.00  0.00    +0.000 C 
ATOM     16  C   UNL     1      43.166   6.119  11.027  0.00  0.00    +0.000 C 
BRANCH  14  17
ATOM     17  N   UNL     1      43.687   3.609  10.631  0.00  0.00    +0.000 N 
ATOM     18  H   UNL     1      43.513   2.713  11.079  0.00  0.00    +0.000 HD
BRANCH  17  23
ATOM     19 CL   UNL     1      47.517   2.625   6.370  0.00  0.00    +0.000 Cl
ATOM     20  C   UNL     1      46.373   2.903   7.610  0.00  0.00    +0.000 A 
ATOM     21  C   UNL     1      45.877   1.885   8.399  0.00  0.00    +0.000 A 
ATOM     22  N   UNL     1      44.982   2.099   9.400  0.00  0.00    +0.000 NA
ATOM     23  C   UNL     1      44.604   3.382   9.597  0.00  0.00    +0.000 A 
ATOM     24  C   UNL     1      45.104   4.393   8.765  0.00  0.00    +0.000 A 
ATOM     25  N   UNL     1      46.002   4.187   7.768  0.00  0.00    +0.000 NA
ENDBRANCH  17  23
ENDBRANCH  14  17
ENDBRANCH   1  14
TORSDOF 4
ENDMDL
MODEL 4
REMARK VINA RESULT:    -7.336      2.381      4.012
REMARK INTER + INTRA:          -9.102
REMARK INTER:                  -8.991
REMARK INTRA:                  -0.111
REMARK UNBOUND:                -0.051
REMARK  Name = 
REMARK  4 active torsions:
REMARK  status: ('A' for Active; 'I' for Inactive)
REMARK    1  A    between atoms: C_5  and  N_6
REMARK    2  A    between atoms: N_6  and  C_7
REMARK    3  A    between atoms: C_7  and  C_8
REMARK    4  A    between atoms: C_12  and  N_13
REMARK                            x       y       z     vdW  Elec       q    Type
REMARK                         _______ _______ _______ _____ _____    ______ ____
ROOT
ATOM      1  C   UNL     1      44.933   6.135  11.774  0.00  0.00    +0.000 A 
ATOM      2  C   UNL     1      46.242   5.643  11.888  0.00  0.00    +0.000 A 
ATOM      3  C   UNL     1      47.321   6.507  12.056  0.00  0.00    +0.000 A 
ATOM      4  C   UNL     1      47.110   7.886  12.075  0.00  0.00    +0.000 A 
ATOM      5  C   UNL     1      45.821   8.420  12.011  0.00  0.00    +0.000 A 
ATOM      6  C   UNL     1      44.750   7.521  11.947  0.00  0.00    +0.000 A 
ENDROOT
BRANCH   5   7
ATOM      7  N   UNL     1      45.590   9.773  11.918  0.00  0.00    +0.000 N 
ATOM      8  C   UNL     1      44.266  10.302  11.585  0.00  0.00    +0.000 C 
ATOM      9  C   UNL     1      44.336  11.153  10.303  0.00  0.00    +0.000 C 
ATOM     10  N   UNL     1      45.366  12.216  10.364  0.00  0.00    +0.000 NA
ATOM     11  C   UNL     1      46.676  11.591  10.662  0.00  0.00    +0.000 C 
ATOM     12  C   UNL     1      46.686  10.743  11.957  0.00  0.00    +0.000 C 
ATOM     13  H   UNL     1      45.131  12.828  11.147  0.00  0.00    +0.000 HD
ENDBRANCH   5   7
BRANCH   1  14
ATOM     14  C   UNL     1      43.770   5.249  11.323  0.00  0.00    +0.000 C 
ATOM     15  C   UNL     1      43.374   4.116  12.271  0.00  0.00    +0.000 C 
ATOM     16  C   UNL     1      42.494   5.310  12.152  0.00  0.00    +0.000 C 
BRANCH  14  17
ATOM     17  N   UNL     1      43.703   4.975   9.880  0.00  0.00    +0.000 N 
ATOM     18  H   UNL     1      42.780   4.849   9.472  0.00  0.00    +0.000 HD
BRANCH  17  23
ATOM     19 CL   UNL     1      47.271   1.245   7.208  0.00  0.00    +0.000 Cl
ATOM     20  C   UNL     1      46.241   2.351   8.006  0.00  0.00    +0.000 A 
ATOM     21  C   UNL     1      46.267   3.706   7.745  0.00  0.00    +0.000 A 
ATOM     22  N   UNL     1      45.438   4.590   8.360  0.00  0.00    +0.000 NA
ATOM     23  C   UNL     1      44.562   4.068   9.248  0.00  0.00    +0.000 A 
ATOM     24  C   UNL     1      44.575   2.693   9.513  0.00  0.00    +0.000 A 
ATOM     25  N   UNL     1      45.395   1.803   8.898  0.00  0.00    +0.000 NA
ENDBRANCH  17  23
ENDBRANCH  14  17
ENDBRANCH   1  14
TORSDOF 4
ENDMDL
MODEL 5
REMARK VINA RESULT:    -7.334      2.621      6.684
REMARK INTER + INTRA:          -9.100
REMARK INTER:                  -8.597
REMARK INTRA:                  -0.502
REMARK UNBOUND:                -0.051
REMARK  Name = 
REMARK  4 active torsions:
REMARK  status: ('A' for Active; 'I' for Inactive)
REMARK    1  A    between atoms: C_5  and  N_6
REMARK    2  A    between atoms: N_6  and  C_7
REMARK    3  A    between atoms: C_7  and  C_8
REMARK    4  A    between atoms: C_12  and  N_13
REMARK                            x       y       z     vdW  Elec       q    Type
REMARK                         _______ _______ _______ _____ _____    ______ ____
ROOT
ATOM      1  C   UNL     1      45.271   5.745  12.217  0.00  0.00    +0.000 A 
ATOM      2  C   UNL     1      44.007   5.730  12.824  0.00  0.00    +0.000 A 
ATOM      3  C   UNL     1      42.964   4.975  12.294  0.00  0.00    +0.000 A 
ATOM      4  C   UNL     1      43.161   4.248  11.120  0.00  0.00    +0.000 A 
ATOM      5  C   UNL     1      44.414   4.195  10.505  0.00  0.00    +0.000 A 
ATOM      6  C   UNL     1      45.467   4.882  11.121  0.00  0.00    +0.000 A 
ENDROOT
BRANCH   5   7
ATOM      7  N   UNL     1      44.612   3.578   9.291  0.00  0.00    +0.000 N 
ATOM      8  C   UNL     1      44.520   2.125   9.148  0.00  0.00    +0.000 C 
ATOM      9  C   UNL     1      45.850   1.554   8.620  0.00  0.00    +0.000 C 
ATOM     10  N   UNL     1      46.314   2.211   7.377  0.00  0.00    +0.000 NA
ATOM     11  C   UNL     1      46.419   3.669   7.622  0.00  0.00    +0.000 C 
ATOM     12  C   UNL     1      45.107   4.316   8.127  0.00  0.00    +0.000 C 
ATOM     13  H   UNL     1      45.596   2.069   6.666  0.00  0.00    +0.000 HD
ENDBRANCH   5   7
BRANCH   1  14
ATOM     14  C   UNL     1      46.348   6.759  12.609  0.00  0.00    +0.000 C 
ATOM     15  C   UNL     1      46.444   8.015  11.742  0.00  0.00    +0.000 C 
ATOM     16  C   UNL     1      45.869   8.114  13.111  0.00  0.00    +0.000 C 
BRANCH  14  17
ATOM     17  N   UNL     1      47.607   6.187  13.108  0.00  0.00    +0.000 N 
ATOM     18  H   UNL     1      48.167   5.649  12.452  0.00  0.00    +0.000 HD
BRANCH  17  23
ATOM     19 CL   UNL     1      48.049   3.561  18.275  0.00  0.00    +0.000 Cl
ATOM     20  C   UNL     1      47.906   4.352  16.766  0.00  0.00    +0.000 A 
ATOM     21  C   UNL     1      48.583   5.519  16.477  0.00  0.00    +0.000 A 
ATOM     22  N   UNL     1      48.492   6.144  15.273  0.00  0.00    +0.000 NA
ATOM     23  C   UNL     1      47.700   5.550  14.351  0.00  0.00    +0.000 A 
ATOM     24  C   UNL     1      47.004   4.379  14.680  0.00  0.00    +0.000 A 
ATOM     25  N   UNL     1      47.096   3.746  15.878  0.00  0.00    +0.000 NA
ENDBRANCH  17  23
ENDBRANCH  14  17
ENDBRANCH   1  14
TORSDOF 4
ENDMDL
MODEL 6
REMARK VINA RESULT:    -7.116      3.284      6.724
REMARK INTER + INTRA:          -8.831
REMARK INTER:                  -8.125
REMARK INTRA:                  -0.706
REMARK UNBOUND:                -0.051
REMARK  Name = 
REMARK  4 active torsions:
REMARK  status: ('A' for Active; 'I' for Inactive)
REMARK    1  A    between atoms: C_5  and  N_6
REMARK    2  A    between atoms: N_6  and  C_7
REMARK    3  A    between atoms: C_7  and  C_8
REMARK    4  A    between atoms: C_12  and  N_13
REMARK                            x       y       z     vdW  Elec       q    Type
REMARK                         _______ _______ _______ _____ _____    ______ ____
ROOT
ATOM      1  C   UNL     1      45.209   5.608  12.309  0.00  0.00    +0.000 A 
ATOM      2  C   UNL     1      44.103   5.262  13.099  0.00  0.00    +0.000 A 
ATOM      3  C   UNL     1      43.206   4.280  12.688  0.00  0.00    +0.000 A 
ATOM      4  C   UNL     1      43.383   3.651  11.456  0.00  0.00    +0.000 A 
ATOM      5  C   UNL     1      44.494   3.929  10.656  0.00  0.00    +0.000 A 
ATOM      6  C   UNL     1      45.431   4.846  11.145  0.00  0.00    +0.000 A 
ENDROOT
BRANCH   5   7
ATOM      7  N   UNL     1      44.637   3.408   9.390  0.00  0.00    +0.000 N 
ATOM      8  C   UNL     1      44.665   1.963   9.157  0.00  0.00    +0.000 C 
ATOM      9  C   UNL     1      45.989   1.556   8.482  0.00  0.00    +0.000 C 
ATOM     10  N   UNL     1      46.279   2.329   7.252  0.00  0.00    +0.000 NA
ATOM     11  C   UNL     1      46.273   3.772   7.586  0.00  0.00    +0.000 C 
ATOM     12  C   UNL     1      44.957   4.259   8.242  0.00  0.00    +0.000 C 
ATOM     13  H   UNL     1      45.516   2.161   6.596  0.00  0.00    +0.000 HD
ENDBRANCH   5   7
BRANCH   1  14
ATOM     14  C   UNL     1      46.052   6.853  12.594  0.00  0.00    +0.000 C 
ATOM     15  C   UNL     1      47.394   6.619  13.289  0.00  0.00    +0.000 C 
ATOM     16  C   UNL     1      47.372   6.979  11.846  0.00  0.00    +0.000 C 
BRANCH  14  17
ATOM     17  N   UNL     1      45.298   8.057  12.974  0.00  0.00    +0.000 N 
ATOM     18  H   UNL     1      44.476   7.928  13.558  0.00  0.00    +0.000 HD
BRANCH  17  23
ATOM     19 CL   UNL     1      44.075  12.322   9.219  0.00  0.00    +0.000 Cl
ATOM     20  C   UNL     1      44.457  11.064  10.311  0.00  0.00    +0.000 A 
ATOM     21  C   UNL     1      45.451  11.186  11.261  0.00  0.00    +0.000 A 
ATOM     22  N   UNL     1      45.747  10.198  12.147  0.00  0.00    +0.000 NA
ATOM     23  C   UNL     1      45.000   9.075  12.060  0.00  0.00    +0.000 A 
ATOM     24  C   UNL     1      44.015   8.967  11.070  0.00  0.00    +0.000 A 
ATOM     25  N   UNL     1      43.709   9.952  10.186  0.00  0.00    +0.000 NA
ENDBRANCH  17  23
ENDBRANCH  14  17
ENDBRANCH   1  14
TORSDOF 4
ENDMDL
MODEL 7
REMARK VINA RESULT:    -6.717      3.427      7.351
REMARK INTER + INTRA:          -8.338
REMARK INTER:                  -7.721
REMARK INTRA:                  -0.617
REMARK UNBOUND:                -0.051
REMARK  Name = 
REMARK  4 active torsions:
REMARK  status: ('A' for Active; 'I' for Inactive)
REMARK    1  A    between atoms: C_5  and  N_6
REMARK    2  A    between atoms: N_6  and  C_7
REMARK    3  A    between atoms: C_7  and  C_8
REMARK    4  A    between atoms: C_12  and  N_13
REMARK                            x       y       z     vdW  Elec       q    Type
REMARK                         _______ _______ _______ _____ _____    ______ ____
ROOT
ATOM      1  C   UNL     1      47.855   7.586  12.898  0.00  0.00    +0.000 A 
ATOM      2  C   UNL     1      46.944   8.633  13.106  0.00  0.00    +0.000 A 
ATOM      3  C   UNL     1      45.580   8.451  12.895  0.00  0.00    +0.000 A 
ATOM      4  C   UNL     1      45.107   7.221  12.436  0.00  0.00    +0.000 A 
ATOM      5  C   UNL     1      45.970   6.137  12.259  0.00  0.00    +0.000 A 
ATOM      6  C   UNL     1      47.319   6.324  12.578  0.00  0.00    +0.000 A 
ENDROOT
BRANCH   5   7
ATOM      7  N   UNL     1      45.552   4.949  11.704  0.00  0.00    +0.000 N 
ATOM      8  C   UNL     1      45.147   4.861  10.300  0.00  0.00    +0.000 C 
ATOM      9  C   UNL     1      43.692   4.366  10.193  0.00  0.00    +0.000 C 
ATOM     10  N   UNL     1      43.450   3.102  10.927  0.00  0.00    +0.000 NA
ATOM     11  C   UNL     1      43.846   3.292  12.342  0.00  0.00    +0.000 C 
ATOM     12  C   UNL     1      45.310   3.761  12.526  0.00  0.00    +0.000 C 
ATOM     13  H   UNL     1      44.064   2.391  10.527  0.00  0.00    +0.000 HD
ENDBRANCH   5   7
BRANCH   1  14
ATOM     14  C   UNL     1      49.366   7.822  12.858  0.00  0.00    +0.000 C 
ATOM     15  C   UNL     1      50.028   7.745  11.482  0.00  0.00    +0.000 C 
ATOM     16  C   UNL     1      49.850   9.071  12.134  0.00  0.00    +0.000 C 
BRANCH  14  17
ATOM     17  N   UNL     1      50.122   7.288  14.000  0.00  0.00    +0.000 N 
ATOM     18  H   UNL     1      50.682   6.454  13.840  0.00  0.00    +0.000 HD
BRANCH  17  23
ATOM     19 CL   UNL     1      47.788   6.768  19.298  0.00  0.00    +0.000 Cl
ATOM     20  C   UNL     1      48.496   6.910  17.748  0.00  0.00    +0.000 A 
ATOM     21  C   UNL     1      48.718   5.817  16.934  0.00  0.00    +0.000 A 
ATOM     22  N   UNL     1      49.261   5.923  15.692  0.00  0.00    +0.000 NA
ATOM     23  C   UNL     1      49.567   7.173  15.280  0.00  0.00    +0.000 A 
ATOM     24  C   UNL     1      49.355   8.262  16.136  0.00  0.00    +0.000 A 
ATOM     25  N   UNL     1      48.808   8.165  17.375  0.00  0.00    +0.000 NA
ENDBRANCH  17  23
ENDBRANCH  14  17
ENDBRANCH   1  14
TORSDOF 4
ENDMDL
MODEL 8
REMARK VINA RESULT:    -6.635      2.587      6.401
REMARK INTER + INTRA:          -8.238
REMARK INTER:                  -7.579
REMARK INTRA:                  -0.659
REMARK UNBOUND:                -0.051
REMARK  Name = 
REMARK  4 active torsions:
REMARK  status: ('A' for Active; 'I' for Inactive)
REMARK    1  A    between atoms: C_5  and  N_6
REMARK    2  A    between atoms: N_6  and  C_7
REMARK    3  A    between atoms: C_7  and  C_8
REMARK    4  A    between atoms: C_12  and  N_13
REMARK                            x       y       z     vdW  Elec       q    Type
REMARK                         _______ _______ _______ _____ _____    ______ ____
ROOT
ATOM      1  C   UNL     1      45.034   4.674  12.834  0.00  0.00    +0.000 A 
ATOM      2  C   UNL     1      43.761   5.180  13.141  0.00  0.00    +0.000 A 
ATOM      3  C   UNL     1      42.707   5.067  12.238  0.00  0.00    +0.000 A 
ATOM      4  C   UNL     1      42.920   4.474  10.993  0.00  0.00    +0.000 A 
ATOM      5  C   UNL     1      44.157   3.915  10.662  0.00  0.00    +0.000 A 
ATOM      6  C   UNL     1      45.166   3.954  11.631  0.00  0.00    +0.000 A 
ENDROOT
BRANCH   5   7
ATOM      7  N   UNL     1      44.428   3.424   9.406  0.00  0.00    +0.000 N 
ATOM      8  C   UNL     1      44.502   1.985   9.146  0.00  0.00    +0.000 C 
ATOM      9  C   UNL     1      45.890   1.611   8.593  0.00  0.00    +0.000 C 
ATOM     10  N   UNL     1      46.283   2.414   7.412  0.00  0.00    +0.000 NA
ATOM     11  C   UNL     1      46.222   3.850   7.774  0.00  0.00    +0.000 C 
ATOM     12  C   UNL     1      44.843   4.304   8.311  0.00  0.00    +0.000 C 
ATOM     13  H   UNL     1      45.588   2.250   6.683  0.00  0.00    +0.000 HD
ENDBRANCH   5   7
BRANCH   1  14
ATOM     14  C   UNL     1      46.266   5.016  13.675  0.00  0.00    +0.000 C 
ATOM     15  C   UNL     1      46.489   4.169  14.928  0.00  0.00    +0.000 C 
ATOM     16  C   UNL     1      47.367   3.967  13.743  0.00  0.00    +0.000 C 
BRANCH  14  17
ATOM     17  N   UNL     1      46.599   6.445  13.760  0.00  0.00    +0.000 N 
ATOM     18  H   UNL     1      45.855   7.111  13.566  0.00  0.00    +0.000 HD
BRANCH  17  23
ATOM     19 CL   UNL     1      51.481   8.617  11.470  0.00  0.00    +0.000 Cl
ATOM     20  C   UNL     1      50.034   8.000  12.140  0.00  0.00    +0.000 A 
ATOM     21  C   UNL     1      48.914   7.747  11.373  0.00  0.00    +0.000 A 
ATOM     22  N   UNL     1      47.766   7.237  11.894  0.00  0.00    +0.000 NA
ATOM     23  C   UNL     1      47.778   6.975  13.220  0.00  0.00    +0.000 A 
ATOM     24  C   UNL     1      48.919   7.265  13.979  0.00  0.00    +0.000 A 
ATOM     25  N   UNL     1      50.071   7.768  13.465  0.00  0.00    +0.000 NA
ENDBRANCH  17  23
ENDBRANCH  14  17
ENDBRANCH   1  14
TORSDOF 4
ENDMDL
MODEL 9
REMARK VINA RESULT:    -6.496      2.901      4.964
REMARK INTER + INTRA:          -8.066
REMARK INTER:                  -7.435
REMARK INTRA:                  -0.630
REMARK UNBOUND:                -0.051
REMARK  Name = 
REMARK  4 active torsions:
REMARK  status: ('A' for Active; 'I' for Inactive)
REMARK    1  A    between atoms: C_5  and  N_6
REMARK    2  A    between atoms: N_6  and  C_7
REMARK    3  A    between atoms: C_7  and  C_8
REMARK    4  A    between atoms: C_12  and  N_13
REMARK                            x       y       z     vdW  Elec       q    Type
REMARK                         _______ _______ _______ _____ _____    ______ ____
ROOT
ATOM      1  C   UNL     1      48.327   7.680  14.861  0.00  0.00    +0.000 A 
ATOM      2  C   UNL     1      48.214   8.877  15.585  0.00  0.00    +0.000 A 
ATOM      3  C   UNL     1      48.479   8.917  16.952  0.00  0.00    +0.000 A 
ATOM      4  C   UNL     1      48.828   7.747  17.625  0.00  0.00    +0.000 A 
ATOM      5  C   UNL     1      48.997   6.542  16.939  0.00  0.00    +0.000 A 
ATOM      6  C   UNL     1      48.824   6.557  15.551  0.00  0.00    +0.000 A 
ENDROOT
BRANCH   5   7
ATOM      7  N   UNL     1      49.232   5.352  17.590  0.00  0.00    +0.000 N 
ATOM      8  C   UNL     1      48.788   4.074  17.032  0.00  0.00    +0.000 C 
ATOM      9  C   UNL     1      47.833   3.366  18.011  0.00  0.00    +0.000 C 
ATOM     10  N   UNL     1      48.398   3.217  19.373  0.00  0.00    +0.000 NA
ATOM     11  C   UNL     1      48.780   4.558  19.876  0.00  0.00    +0.000 C 
ATOM     12  C   UNL     1      49.765   5.316  18.953  0.00  0.00    +0.000 C 
ATOM     13  H   UNL     1      49.250   2.662  19.293  0.00  0.00    +0.000 HD
ENDBRANCH   5   7
BRANCH   1  14
ATOM     14  C   UNL     1      47.789   7.541  13.435  0.00  0.00    +0.000 C 
ATOM     15  C   UNL     1      48.572   8.268  12.341  0.00  0.00    +0.000 C 
ATOM     16  C   UNL     1      48.659   6.786  12.441  0.00  0.00    +0.000 C 
BRANCH  14  17
ATOM     17  N   UNL     1      46.325   7.512  13.310  0.00  0.00    +0.000 N 
ATOM     18  H   UNL     1      45.785   7.980  14.033  0.00  0.00    +0.000 HD
BRANCH  17  23
ATOM     19 CL   UNL     1      43.376   2.728  11.824  0.00  0.00    +0.000 Cl
ATOM     20  C   UNL     1      44.257   4.133  12.241  0.00  0.00    +0.000 A 
ATOM     21  C   UNL     1      44.141   5.314  11.536  0.00  0.00    +0.000 A 
ATOM     22  N   UNL     1      44.822   6.441  11.872  0.00  0.00    +0.000 NA
ATOM     23  C   UNL     1      45.624   6.352  12.957  0.00  0.00    +0.000 A 
ATOM     24  C   UNL     1      45.743   5.134  13.638  0.00  0.00    +0.000 A 
ATOM     25  N   UNL     1      45.061   4.006  13.312  0.00  0.00    +0.000 NA
ENDBRANCH  17  23
ENDBRANCH  14  17
ENDBRANCH   1  14
TORSDOF 4
ENDMDL
