MODEL 1
REMARK VINA RESULT:    -6.283      0.000      0.000
REMARK INTER + INTRA:          -8.192
REMARK INTER:                  -7.752
REMARK INTRA:                  -0.440
REMARK UNBOUND:                -0.440
REMARK  Name = 
REMARK  4 active torsions:
REMARK  status: ('A' for Active; 'I' for Inactive)
REMARK    1  A    between atoms: C_2  and  C_4
REMARK    2  A    between atoms: C_7  and  C_8
REMARK    3  A    between atoms: C_9  and  C_10
REMARK    4  A    between atoms: C_14  and  C_15
REMARK                            x       y       z     vdW  Elec       q    Type
REMARK                         _______ _______ _______ _____ _____    ______ ____
ROOT
ATOM      1  C   UNL     1      46.603   4.647  14.744  0.00  0.00    +0.000 C 
ATOM      2  C   UNL     1      45.920   4.583  13.759  0.00  0.00    +0.000 C 
ENDROOT
BRANCH   1   6
ATOM      3  C   UNL     1      49.144   4.735  18.132  0.00  0.00    +0.000 A 
ATOM      4  C   UNL     1      49.263   5.724  17.148  0.00  0.00    +0.000 A 
ATOM      5  C   UNL     1      48.433   5.690  16.020  0.00  0.00    +0.000 A 
ATOM      6  C   UNL     1      47.479   4.677  15.878  0.00  0.00    +0.000 A 
ATOM      7  C   UNL     1      47.367   3.687  16.858  0.00  0.00    +0.000 A 
ATOM      8  C   UNL     1      48.200   3.712  17.979  0.00  0.00    +0.000 A 
BRANCH   3  10
ATOM      9  N   UNL     1      51.146   3.934  19.267  0.00  0.00    +0.000 N 
ATOM     10  C   UNL     1      50.019   4.703  19.332  0.00  0.00    +0.000 C 
ATOM     11  O   UNL     1      49.764   5.369  20.326  0.00  0.00    +0.000 OA
ATOM     12  H   UNL     1      51.786   4.017  20.048  0.00  0.00    +0.000 HD
ATOM     13  H   UNL     1      51.506   3.561  18.401  0.00  0.00    +0.000 HD
ENDBRANCH   3  10
ENDBRANCH   1   6
BRANCH   2  14
ATOM     14  C   UNL     1      45.166   4.457  12.551  0.00  0.00    +0.000 A 
ATOM     15  C   UNL     1      43.836   4.845  12.504  0.00  0.00    +0.000 A 
ATOM     16  N   UNL     1      43.055   4.748  11.408  0.00  0.00    +0.000 NA
ATOM     17  C   UNL     1      43.638   4.228  10.304  0.00  0.00    +0.000 A 
ATOM     18  C   UNL     1      44.968   3.806  10.221  0.00  0.00    +0.000 A 
ATOM     19  C   UNL     1      45.733   3.936  11.390  0.00  0.00    +0.000 A 
BRANCH  18  20
ATOM     20  C   UNL     1      45.530   3.258   8.976  0.00  0.00    +0.000 A 
ATOM     21  C   UNL     1      45.902   4.093   7.915  0.00  0.00    +0.000 A 
ATOM     22  C   UNL     1      46.429   3.534   6.764  0.00  0.00    +0.000 A 
ATOM     23  N   UNL     1      46.612   2.211   6.592  0.00  0.00    +0.000 NA
ATOM     24  C   UNL     1      46.251   1.413   7.616  0.00  0.00    +0.000 A 
ATOM     25  C   UNL     1      45.717   1.881   8.805  0.00  0.00    +0.000 A 
ENDBRANCH  18  20
ENDBRANCH   2  14
TORSDOF 4
ENDMDL
MODEL 2
REMARK VINA RESULT:    -6.180      5.198      9.766
REMARK INTER + INTRA:          -8.065
REMARK INTER:                  -7.629
REMARK INTRA:                  -0.437
REMARK UNBOUND:                -0.440
REMARK  Name = 
REMARK  4 active torsions:
REMARK  status: ('A' for Active; 'I' for Inactive)
REMARK    1  A    between atoms: C_2  and  C_4
REMARK    2  A    between atoms: C_7  and  C_8
REMARK    3  A    between atoms: C_9  and  C_10
REMARK    4  A    between atoms: C_14  and  C_15
REMARK                            x       y       z     vdW  Elec       q    Type
REMARK                         _______ _______ _______ _____ _____    ______ ____
ROOT
ATOM      1  C   UNL     1      46.041   3.859   8.327  0.00  0.00    +0.000 C 
ATOM      2  C   UNL     1      45.772   4.596   9.235  0.00  0.00    +0.000 C 
ENDROOT
BRANCH   1   6
ATOM      3  C   UNL     1      46.919   1.072   5.260  0.00  0.00    +0.000 A 
ATOM      4  C   UNL     1      46.938   0.662   6.598  0.00  0.00    +0.000 A 
ATOM      5  C   UNL     1      46.660   1.584   7.615  0.00  0.00    +0.000 A 
ATOM      6  C   UNL     1      46.356   2.912   7.298  0.00  0.00    +0.000 A 
ATOM      7  C   UNL     1      46.345   3.321   5.962  0.00  0.00    +0.000 A 
ATOM      8  C   UNL     1      46.631   2.406   4.945  0.00  0.00    +0.000 A 
BRANCH   3  10
ATOM      9  N   UNL     1      46.971  -1.181   4.332  0.00  0.00    +0.000 N 
ATOM     10  C   UNL     1      47.236   0.146   4.143  0.00  0.00    +0.000 C 
ATOM     11  O   UNL     1      47.682   0.555   3.080  0.00  0.00    +0.000 OA
ATOM     12  H   UNL     1      47.084  -1.776   3.521  0.00  0.00    +0.000 HD
ATOM     13  H   UNL     1      46.399  -1.522   5.091  0.00  0.00    +0.000 HD
ENDBRANCH   3  10
ENDBRANCH   1   6
BRANCH   2  14
ATOM     14  C   UNL     1      45.449   5.406  10.368  0.00  0.00    +0.000 A 
ATOM     15  C   UNL     1      44.184   5.355  10.935  0.00  0.00    +0.000 A 
ATOM     16  N   UNL     1      43.798   6.093  11.996  0.00  0.00    +0.000 NA
ATOM     17  C   UNL     1      44.727   6.932  12.510  0.00  0.00    +0.000 A 
ATOM     18  C   UNL     1      46.034   7.071  12.035  0.00  0.00    +0.000 A 
ATOM     19  C   UNL     1      46.380   6.274  10.932  0.00  0.00    +0.000 A 
BRANCH  18  20
ATOM     20  C   UNL     1      46.990   8.003  12.656  0.00  0.00    +0.000 A 
ATOM     21  C   UNL     1      47.131   9.317  12.194  0.00  0.00    +0.000 A 
ATOM     22  C   UNL     1      48.040  10.159  12.810  0.00  0.00    +0.000 A 
ATOM     23  N   UNL     1      48.816   9.790  13.846  0.00  0.00    +0.000 NA
ATOM     24  C   UNL     1      48.676   8.524  14.286  0.00  0.00    +0.000 A 
ATOM     25  C   UNL     1      47.793   7.611  13.733  0.00  0.00    +0.000 A 
ENDBRANCH  18  20
ENDBRANCH   2  14
TORSDOF 4
ENDMDL
MODEL 3
REMARK VINA RESULT:    -6.079      4.215      4.785
REMARK INTER + INTRA:          -7.941
REMARK INTER:                  -7.496
REMARK INTRA:                  -0.444
REMARK UNBOUND:                -0.440
REMARK  Name = 
REMARK  4 active torsions:
REMARK  status: ('A' for Active; 'I' for Inactive)
REMARK    1  A    between atoms: C_2  and  C_4
REMARK    2  A    between atoms: C_7  and  C_8
REMARK    3  A    between atoms: C_9  and  C_10
REMARK    4  A    between atoms: C_14  and  C_15
REMARK                            x       y       z     vdW  Elec       q    Type
REMARK                         _______ _______ _______ _____ _____    ______ ____
ROOT
ATOM      1  C   UNL     1      46.400   7.206  11.772  0.00  0.00    +0.000 C 
ATOM      2  C   UNL     1      45.876   6.279  11.218  0.00  0.00    +0.000 C 
ENDROOT
BRANCH   1   6
ATOM      3  C   UNL     1      48.439  10.373  13.709  0.00  0.00    +0.000 A 
ATOM      4  C   UNL     1      47.964  10.547  12.404  0.00  0.00    +0.000 A 
ATOM      5  C   UNL     1      47.300   9.497  11.756  0.00  0.00    +0.000 A 
ATOM      6  C   UNL     1      47.103   8.278  12.412  0.00  0.00    +0.000 A 
ATOM      7  C   UNL     1      47.585   8.104  13.713  0.00  0.00    +0.000 A 
ATOM      8  C   UNL     1      48.255   9.146  14.358  0.00  0.00    +0.000 A 
BRANCH   3  10
ATOM      9  N   UNL     1      48.455  12.512  14.878  0.00  0.00    +0.000 N 
ATOM     10  C   UNL     1      49.176  11.440  14.432  0.00  0.00    +0.000 C 
ATOM     11  O   UNL     1      50.376  11.349  14.656  0.00  0.00    +0.000 OA
ATOM     12  H   UNL     1      48.953  13.168  15.467  0.00  0.00    +0.000 HD
ATOM     13  H   UNL     1      47.447  12.515  14.916  0.00  0.00    +0.000 HD
ENDBRANCH   3  10
ENDBRANCH   1   6
BRANCH   2  14
ATOM     14  C   UNL     1      45.330   5.143  10.542  0.00  0.00    +0.000 A 
ATOM     15  C   UNL     1      44.113   4.606  10.934  0.00  0.00    +0.000 A 
ATOM     16  N   UNL     1      43.537   3.532  10.356  0.00  0.00    +0.000 NA
ATOM     17  C   UNL     1      44.221   2.963   9.337  0.00  0.00    +0.000 A 
ATOM     18  C   UNL     1      45.449   3.412   8.844  0.00  0.00    +0.000 A 
ATOM     19  C   UNL     1      45.998   4.536   9.481  0.00  0.00    +0.000 A 
BRANCH  18  20
ATOM     20  C   UNL     1      46.127   2.742   7.722  0.00  0.00    +0.000 A 
ATOM     21  C   UNL     1      46.346   3.401   6.507  0.00  0.00    +0.000 A 
ATOM     22  C   UNL     1      46.990   2.733   5.479  0.00  0.00    +0.000 A 
ATOM     23  N   UNL     1      47.427   1.464   5.573  0.00  0.00    +0.000 NA
ATOM     24  C   UNL     1      47.211   0.834   6.745  0.00  0.00    +0.000 A 
ATOM     25  C   UNL     1      46.578   1.421   7.828  0.00  0.00    +0.000 A 
ENDBRANCH  18  20
ENDBRANCH   2  14
TORSDOF 4
ENDMDL
MODEL 4
REMARK VINA RESULT:    -5.935      5.715      9.636
REMARK INTER + INTRA:          -7.762
REMARK INTER:                  -7.313
REMARK INTRA:                  -0.449
REMARK UNBOUND:                -0.440
REMARK  Name = 
REMARK  4 active torsions:
REMARK  status: ('A' for Active; 'I' for Inactive)
REMARK    1  A    between atoms: C_2  and  C_4
REMARK    2  A    between atoms: C_7  and  C_8
REMARK    3  A    between atoms: C_9  and  C_10
REMARK    4  A    between atoms: C_14  and  C_15
REMARK                            x       y       z     vdW  Elec       q    Type
REMARK                         _______ _______ _______ _____ _____    ______ ____
ROOT
ATOM      1  C   UNL     1      45.963   3.241   8.749  0.00  0.00    +0.000 C 
ATOM      2  C   UNL     1      45.672   3.912   9.700  0.00  0.00    +0.000 C 
ENDROOT
BRANCH   1   6
ATOM      3  C   UNL     1      46.926   1.028   5.268  0.00  0.00    +0.000 A 
ATOM      4  C   UNL     1      46.603   2.386   5.162  0.00  0.00    +0.000 A 
ATOM      5  C   UNL     1      46.271   3.117   6.310  0.00  0.00    +0.000 A 
ATOM      6  C   UNL     1      46.271   2.497   7.563  0.00  0.00    +0.000 A 
ATOM      7  C   UNL     1      46.588   1.140   7.666  0.00  0.00    +0.000 A 
ATOM      8  C   UNL     1      46.909   0.405   6.522  0.00  0.00    +0.000 A 
BRANCH   3  10
ATOM      9  N   UNL     1      47.003  -1.144   4.165  0.00  0.00    +0.000 N 
ATOM     10  C   UNL     1      47.254   0.197   4.082  0.00  0.00    +0.000 C 
ATOM     11  O   UNL     1      47.696   0.694   3.055  0.00  0.00    +0.000 OA
ATOM     12  H   UNL     1      47.123  -1.672   3.309  0.00  0.00    +0.000 HD
ATOM     13  H   UNL     1      46.435  -1.550   4.894  0.00  0.00    +0.000 HD
ENDBRANCH   3  10
ENDBRANCH   1   6
BRANCH   2  14
ATOM     14  C   UNL     1      45.286   4.767  10.780  0.00  0.00    +0.000 A 
ATOM     15  C   UNL     1      44.756   4.235  11.946  0.00  0.00    +0.000 A 
ATOM     16  N   UNL     1      44.358   4.973  13.004  0.00  0.00    +0.000 NA
ATOM     17  C   UNL     1      44.492   6.313  12.881  0.00  0.00    +0.000 A 
ATOM     18  C   UNL     1      45.015   6.969  11.763  0.00  0.00    +0.000 A 
ATOM     19  C   UNL     1      45.417   6.150  10.696  0.00  0.00    +0.000 A 
BRANCH  18  20
ATOM     20  C   UNL     1      45.136   8.436  11.711  0.00  0.00    +0.000 A 
ATOM     21  C   UNL     1      44.130   9.229  11.147  0.00  0.00    +0.000 A 
ATOM     22  C   UNL     1      44.284  10.604  11.121  0.00  0.00    +0.000 A 
ATOM     23  N   UNL     1      45.362  11.244  11.612  0.00  0.00    +0.000 NA
ATOM     24  C   UNL     1      46.328  10.475  12.152  0.00  0.00    +0.000 A 
ATOM     25  C   UNL     1      46.261   9.093  12.223  0.00  0.00    +0.000 A 
ENDBRANCH  18  20
ENDBRANCH   2  14
TORSDOF 4
ENDMDL
MODEL 5
REMARK VINA RESULT:    -5.780      6.422      8.353
REMARK INTER + INTRA:          -7.571
REMARK INTER:                  -7.110
REMARK INTRA:                  -0.461
REMARK UNBOUND:                -0.440
REMARK  Name = 
REMARK  4 active torsions:
REMARK  status: ('A' for Active; 'I' for Inactive)
REMARK    1  A    between atoms: C_2  and  C_4
REMARK    2  A    between atoms: C_7  and  C_8
REMARK    3  A    between atoms: C_9  and  C_10
REMARK    4  A    between atoms: C_14  and  C_15
REMARK                            x       y       z     vdW  Elec       q    Type
REMARK                         _______ _______ _______ _____ _____    ______ ____
ROOT
ATOM      1  C   UNL     1      48.366   7.270  11.938  0.00  0.00    +0.000 C 
ATOM      2  C   UNL     1      49.494   7.623  11.732  0.00  0.00    +0.000 C 
ENDROOT
BRANCH   1   6
ATOM      3  C   UNL     1      44.401   5.892  12.505  0.00  0.00    +0.000 A 
ATOM      4  C   UNL     1      45.445   5.331  13.249  0.00  0.00    +0.000 A 
ATOM      5  C   UNL     1      46.759   5.776  13.054  0.00  0.00    +0.000 A 
ATOM      6  C   UNL     1      47.030   6.785  12.126  0.00  0.00    +0.000 A 
ATOM      7  C   UNL     1      45.987   7.339  11.379  0.00  0.00    +0.000 A 
ATOM      8  C   UNL     1      44.677   6.891  11.563  0.00  0.00    +0.000 A 
BRANCH   3  10
ATOM      9  N   UNL     1      42.061   6.018  11.834  0.00  0.00    +0.000 N 
ATOM     10  C   UNL     1      42.994   5.438  12.647  0.00  0.00    +0.000 C 
ATOM     11  O   UNL     1      42.684   4.552  13.433  0.00  0.00    +0.000 OA
ATOM     12  H   UNL     1      41.134   5.613  11.864  0.00  0.00    +0.000 HD
ATOM     13  H   UNL     1      42.307   6.574  11.029  0.00  0.00    +0.000 HD
ENDBRANCH   3  10
ENDBRANCH   1   6
BRANCH   2  14
ATOM     14  C   UNL     1      50.845   7.981  11.428  0.00  0.00    +0.000 A 
ATOM     15  C   UNL     1      51.482   8.993  12.129  0.00  0.00    +0.000 A 
ATOM     16  N   UNL     1      52.748   9.397  11.896  0.00  0.00    +0.000 NA
ATOM     17  C   UNL     1      53.406   8.756  10.904  0.00  0.00    +0.000 A 
ATOM     18  C   UNL     1      52.879   7.718  10.130  0.00  0.00    +0.000 A 
ATOM     19  C   UNL     1      51.560   7.337  10.421  0.00  0.00    +0.000 A 
BRANCH  18  20
ATOM     20  C   UNL     1      53.666   7.064   9.071  0.00  0.00    +0.000 A 
ATOM     21  C   UNL     1      53.782   5.670   9.008  0.00  0.00    +0.000 A 
ATOM     22  C   UNL     1      54.530   5.097   7.993  0.00  0.00    +0.000 A 
ATOM     23  N   UNL     1      55.167   5.807   7.043  0.00  0.00    +0.000 NA
ATOM     24  C   UNL     1      55.052   7.148   7.111  0.00  0.00    +0.000 A 
ATOM     25  C   UNL     1      54.326   7.809   8.088  0.00  0.00    +0.000 A 
ENDBRANCH  18  20
ENDBRANCH   2  14
TORSDOF 4
ENDMDL
MODEL 6
REMARK VINA RESULT:    -5.627      3.410      9.718
REMARK INTER + INTRA:          -7.382
REMARK INTER:                  -6.903
REMARK INTRA:                  -0.479
REMARK UNBOUND:                -0.440
REMARK  Name = 
REMARK  4 active torsions:
REMARK  status: ('A' for Active; 'I' for Inactive)
REMARK    1  A    between atoms: C_2  and  C_4
REMARK    2  A    between atoms: C_7  and  C_8
REMARK    3  A    between atoms: C_9  and  C_10
REMARK    4  A    between atoms: C_14  and  C_15
REMARK                            x       y       z     vdW  Elec       q    Type
REMARK                         _______ _______ _______ _____ _____    ______ ____
ROOT
ATOM      1  C   UNL     1      47.706   5.830  14.270  0.00  0.00    +0.000 C 
ATOM      2  C   UNL     1      48.432   6.172  15.163  0.00  0.00    +0.000 C 
ENDROOT
BRANCH   1   6
ATOM      3  C   UNL     1      45.125   4.370  11.245  0.00  0.00    +0.000 A 
ATOM      4  C   UNL     1      45.657   5.661  11.143  0.00  0.00    +0.000 A 
ATOM      5  C   UNL     1      46.500   6.151  12.148  0.00  0.00    +0.000 A 
ATOM      6  C   UNL     1      46.821   5.352  13.249  0.00  0.00    +0.000 A 
ATOM      7  C   UNL     1      46.284   4.066  13.353  0.00  0.00    +0.000 A 
ATOM      8  C   UNL     1      45.434   3.578  12.357  0.00  0.00    +0.000 A 
BRANCH   3  10
ATOM      9  N   UNL     1      44.043   4.515   9.066  0.00  0.00    +0.000 N 
ATOM     10  C   UNL     1      44.201   3.811  10.226  0.00  0.00    +0.000 C 
ATOM     11  O   UNL     1      43.630   2.742  10.399  0.00  0.00    +0.000 OA
ATOM     12  H   UNL     1      43.503   4.061   8.341  0.00  0.00    +0.000 HD
ATOM     13  H   UNL     1      44.661   5.266   8.794  0.00  0.00    +0.000 HD
ENDBRANCH   3  10
ENDBRANCH   1   6
BRANCH   2  14
ATOM     14  C   UNL     1      49.276   6.505  16.268  0.00  0.00    +0.000 A 
ATOM     15  C   UNL     1      49.319   7.802  16.758  0.00  0.00    +0.000 A 
ATOM     16  N   UNL     1      50.096   8.198  17.788  0.00  0.00    +0.000 NA
ATOM     17  C   UNL     1      50.874   7.245  18.349  0.00  0.00    +0.000 A 
ATOM     18  C   UNL     1      50.917   5.906  17.953  0.00  0.00    +0.000 A 
ATOM     19  C   UNL     1      50.085   5.551  16.880  0.00  0.00    +0.000 A 
BRANCH  18  20
ATOM     20  C   UNL     1      51.788   4.926  18.624  0.00  0.00    +0.000 A 
ATOM     21  C   UNL     1      52.161   5.082  19.964  0.00  0.00    +0.000 A 
ATOM     22  C   UNL     1      52.979   4.136  20.555  0.00  0.00    +0.000 A 
ATOM     23  N   UNL     1      53.452   3.051  19.912  0.00  0.00    +0.000 NA
ATOM     24  C   UNL     1      53.091   2.907  18.622  0.00  0.00    +0.000 A 
ATOM     25  C   UNL     1      52.276   3.802  17.948  0.00  0.00    +0.000 A 
ENDBRANCH  18  20
ENDBRANCH   2  14
TORSDOF 4
ENDMDL
MODEL 7
REMARK VINA RESULT:    -5.534      2.190      2.856
REMARK INTER + INTRA:          -7.268
REMARK INTER:                  -6.819
REMARK INTRA:                  -0.449
REMARK UNBOUND:                -0.440
REMARK  Name = 
REMARK  4 active torsions:
REMARK  status: ('A' for Active; 'I' for Inactive)
REMARK    1  A    between atoms: C_2  and  C_4
REMARK    2  A    between atoms: C_7  and  C_8
REMARK    3  A    between atoms: C_9  and  C_10
REMARK    4  A    between atoms: C_14  and  C_15
REMARK                            x       y       z     vdW  Elec       q    Type
REMARK                         _______ _______ _______ _____ _____    ______ ____
ROOT
ATOM      1  C   UNL     1      48.745   6.498  15.216  0.00  0.00    +0.000 C 
ATOM      2  C   UNL     1      47.973   6.663  14.312  0.00  0.00    +0.000 C 
ENDROOT
BRANCH   1   6
ATOM      3  C   UNL     1      51.242   5.840  18.573  0.00  0.00    +0.000 A 
ATOM      4  C   UNL     1      51.775   6.410  17.411  0.00  0.00    +0.000 A 
ATOM      5  C   UNL     1      50.954   6.617  16.295  0.00  0.00    +0.000 A 
ATOM      6  C   UNL     1      49.602   6.264  16.340  0.00  0.00    +0.000 A 
ATOM      7  C   UNL     1      49.074   5.688  17.499  0.00  0.00    +0.000 A 
ATOM      8  C   UNL     1      49.892   5.471  18.611  0.00  0.00    +0.000 A 
BRANCH   3  10
ATOM      9  N   UNL     1      51.895   4.367  20.402  0.00  0.00    +0.000 N 
ATOM     10  C   UNL     1      52.072   5.568  19.775  0.00  0.00    +0.000 C 
ATOM     11  O   UNL     1      52.909   6.369  20.168  0.00  0.00    +0.000 OA
ATOM     12  H   UNL     1      52.549   4.154  21.145  0.00  0.00    +0.000 HD
ATOM     13  H   UNL     1      51.392   3.599  19.983  0.00  0.00    +0.000 HD
ENDBRANCH   3  10
ENDBRANCH   1   6
BRANCH   2  14
ATOM     14  C   UNL     1      46.992   6.825  13.284  0.00  0.00    +0.000 A 
ATOM     15  C   UNL     1      46.346   8.040  13.109  0.00  0.00    +0.000 A 
ATOM     16  N   UNL     1      45.403   8.269  12.172  0.00  0.00    +0.000 NA
ATOM     17  C   UNL     1      45.086   7.224  11.375  0.00  0.00    +0.000 A 
ATOM     18  C   UNL     1      45.667   5.955  11.445  0.00  0.00    +0.000 A 
ATOM     19  C   UNL     1      46.645   5.776  12.436  0.00  0.00    +0.000 A 
BRANCH  18  20
ATOM     20  C   UNL     1      45.273   4.870  10.532  0.00  0.00    +0.000 A 
ATOM     21  C   UNL     1      45.545   4.938   9.160  0.00  0.00    +0.000 A 
ATOM     22  C   UNL     1      45.157   3.894   8.339  0.00  0.00    +0.000 A 
ATOM     23  N   UNL     1      44.522   2.792   8.781  0.00  0.00    +0.000 NA
ATOM     24  C   UNL     1      44.262   2.733  10.102  0.00  0.00    +0.000 A 
ATOM     25  C   UNL     1      44.611   3.728  11.000  0.00  0.00    +0.000 A 
ENDBRANCH  18  20
ENDBRANCH   2  14
TORSDOF 4
ENDMDL
MODEL 8
REMARK VINA RESULT:    -5.484      3.410      9.767
REMARK INTER + INTRA:          -7.206
REMARK INTER:                  -6.731
REMARK INTRA:                  -0.475
REMARK UNBOUND:                -0.440
REMARK  Name = 
REMARK  4 active torsions:
REMARK  status: ('A' for Active; 'I' for Inactive)
REMARK    1  A    between atoms: C_2  and  C_4
REMARK    2  A    between atoms: C_7  and  C_8
REMARK    3  A    between atoms: C_9  and  C_10
REMARK    4  A    between atoms: C_14  and  C_15
REMARK                            x       y       z     vdW  Elec       q    Type
REMARK                         _______ _______ _______ _____ _____    ______ ____
ROOT
ATOM      1  C   UNL     1      47.293   4.674  15.013  0.00  0.00    +0.000 C 
ATOM      2  C   UNL     1      47.951   4.798  16.009  0.00  0.00    +0.000 C 
ENDROOT
BRANCH   1   6
ATOM      3  C   UNL     1      44.764   4.433  11.623  0.00  0.00    +0.000 A 
ATOM      4  C   UNL     1      45.392   3.278  12.107  0.00  0.00    +0.000 A 
ATOM      5  C   UNL     1      46.238   3.358  13.220  0.00  0.00    +0.000 A 
ATOM      6  C   UNL     1      46.452   4.584  13.855  0.00  0.00    +0.000 A 
ATOM      7  C   UNL     1      45.831   5.737  13.367  0.00  0.00    +0.000 A 
ATOM      8  C   UNL     1      44.993   5.663  12.251  0.00  0.00    +0.000 A 
BRANCH   3  10
ATOM      9  N   UNL     1      44.056   3.395   9.535  0.00  0.00    +0.000 N 
ATOM     10  C   UNL     1      43.882   4.413  10.429  0.00  0.00    +0.000 C 
ATOM     11  O   UNL     1      43.007   5.253  10.266  0.00  0.00    +0.000 OA
ATOM     12  H   UNL     1      43.371   3.334   8.792  0.00  0.00    +0.000 HD
ATOM     13  H   UNL     1      44.599   2.570   9.744  0.00  0.00    +0.000 HD
ENDBRANCH   3  10
ENDBRANCH   1   6
BRANCH   2  14
ATOM     14  C   UNL     1      48.675   5.002  17.225  0.00  0.00    +0.000 A 
ATOM     15  C   UNL     1      48.197   5.870  18.195  0.00  0.00    +0.000 A 
ATOM     16  N   UNL     1      48.826   6.124  19.362  0.00  0.00    +0.000 NA
ATOM     17  C   UNL     1      49.998   5.479  19.561  0.00  0.00    +0.000 A 
ATOM     18  C   UNL     1      50.581   4.578  18.667  0.00  0.00    +0.000 A 
ATOM     19  C   UNL     1      49.880   4.349  17.473  0.00  0.00    +0.000 A 
BRANCH  18  20
ATOM     20  C   UNL     1      51.859   3.909  18.963  0.00  0.00    +0.000 A 
ATOM     21  C   UNL     1      52.380   2.926  18.113  0.00  0.00    +0.000 A 
ATOM     22  C   UNL     1      53.585   2.325  18.429  0.00  0.00    +0.000 A 
ATOM     23  N   UNL     1      54.306   2.628  19.525  0.00  0.00    +0.000 NA
ATOM     24  C   UNL     1      53.799   3.574  20.340  0.00  0.00    +0.000 A 
ATOM     25  C   UNL     1      52.602   4.230  20.105  0.00  0.00    +0.000 A 
ENDBRANCH  18  20
ENDBRANCH   2  14
TORSDOF 4
ENDMDL
MODEL 9
REMARK VINA RESULT:    -5.400      2.562      3.987
REMARK INTER + INTRA:          -7.103
REMARK INTER:                  -6.629
REMARK INTRA:                  -0.474
REMARK UNBOUND:                -0.440
REMARK  Name = 
REMARK  4 active torsions:
REMARK  status: ('A' for Active; 'I' for Inactive)
REMARK    1  A    between atoms: C_2  and  C_4
REMARK    2  A    between atoms: C_7  and  C_8
REMARK    3  A    between atoms: C_9  and  C_10
REMARK    4  A    between atoms: C_14  and  C_15
REMARK                            x       y       z     vdW  Elec       q    Type
REMARK                         _______ _______ _______ _____ _____    ______ ____
ROOT
ATOM      1  C   UNL     1      49.303   6.165  16.264  0.00  0.00    +0.000 C 
ATOM      2  C   UNL     1      48.699   6.408  15.255  0.00  0.00    +0.000 C 
ENDROOT
BRANCH   1   6
ATOM      3  C   UNL     1      51.255   5.057  19.856  0.00  0.00    +0.000 A 
ATOM      4  C   UNL     1      50.423   6.182  19.835  0.00  0.00    +0.000 A 
ATOM      5  C   UNL     1      49.786   6.558  18.646  0.00  0.00    +0.000 A 
ATOM      6  C   UNL     1      49.972   5.808  17.480  0.00  0.00    +0.000 A 
ATOM      7  C   UNL     1      50.810   4.689  17.501  0.00  0.00    +0.000 A 
ATOM      8  C   UNL     1      51.454   4.317  18.683  0.00  0.00    +0.000 A 
BRANCH   3  10
ATOM      9  N   UNL     1      51.406   4.923  22.285  0.00  0.00    +0.000 N 
ATOM     10  C   UNL     1      51.981   4.630  21.080  0.00  0.00    +0.000 C 
ATOM     11  O   UNL     1      53.032   4.008  21.016  0.00  0.00    +0.000 OA
ATOM     12  H   UNL     1      51.855   4.523  23.099  0.00  0.00    +0.000 HD
ATOM     13  H   UNL     1      50.447   5.223  22.375  0.00  0.00    +0.000 HD
ENDBRANCH   3  10
ENDBRANCH   1   6
BRANCH   2  14
ATOM     14  C   UNL     1      47.927   6.630  14.073  0.00  0.00    +0.000 A 
ATOM     15  C   UNL     1      48.072   7.802  13.345  0.00  0.00    +0.000 A 
ATOM     16  N   UNL     1      47.375   8.091  12.227  0.00  0.00    +0.000 NA
ATOM     17  C   UNL     1      46.480   7.161  11.823  0.00  0.00    +0.000 A 
ATOM     18  C   UNL     1      46.245   5.942  12.464  0.00  0.00    +0.000 A 
ATOM     19  C   UNL     1      47.003   5.693  13.619  0.00  0.00    +0.000 A 
BRANCH  18  20
ATOM     20  C   UNL     1      45.257   4.976  11.955  0.00  0.00    +0.000 A 
ATOM     21  C   UNL     1      44.539   4.144  12.822  0.00  0.00    +0.000 A 
ATOM     22  C   UNL     1      43.619   3.252  12.300  0.00  0.00    +0.000 A 
ATOM     23  N   UNL     1      43.362   3.128  10.984  0.00  0.00    +0.000 NA
ATOM     24  C   UNL     1      44.057   3.931  10.154  0.00  0.00    +0.000 A 
ATOM     25  C   UNL     1      44.997   4.853  10.585  0.00  0.00    +0.000 A 
ENDBRANCH  18  20
ENDBRANCH   2  14
TORSDOF 4
ENDMDL
