MODEL 1
REMARK VINA RESULT:    -7.976      0.000      0.000
REMARK INTER + INTRA:         -12.817
REMARK INTER:                 -11.706
REMARK INTRA:                  -1.111
REMARK UNBOUND:                -1.111
REMARK  Name = 
REMARK  8 active torsions:
REMARK  status: ('A' for Active; 'I' for Inactive)
REMARK    1  A    between atoms: C_2  and  C_3
REMARK    2  A    between atoms: C_2  and  C_11
REMARK    3  A    between atoms: C_3  and  C_4
REMARK    4  A    between atoms: C_4  and  C_5
REMARK    5  A    between atoms: C_14  and  C_15
REMARK    6  A    between atoms: C_15  and  N_16
REMARK    7  A    between atoms: N_16  and  C_17
REMARK    8  A    between atoms: C_17  and  C_18
REMARK                            x       y       z     vdW  Elec       q    Type
REMARK                         _______ _______ _______ _____ _____    ______ ____
ROOT
ATOM      1  C   UNL     1      45.002   4.486  11.383  0.00  0.00    +0.000 A 
ATOM      2  C   UNL     1      45.431   5.700  10.837  0.00  0.00    +0.000 A 
ATOM      3  C   UNL     1      46.302   6.523  11.558  0.00  0.00    +0.000 A 
ATOM      4  C   UNL     1      46.754   6.146  12.833  0.00  0.00    +0.000 A 
ATOM      5  C   UNL     1      46.337   4.921  13.359  0.00  0.00    +0.000 A 
ATOM      6  C   UNL     1      45.470   4.101  12.646  0.00  0.00    +0.000 A 
ENDROOT
BRANCH   1   8
ATOM      7  O   UNL     1      43.017   3.237  11.163  0.00  0.00    +0.000 OA
ATOM      8  C   UNL     1      44.035   3.647  10.616  0.00  0.00    +0.000 C 
BRANCH   8   9
ATOM      9  C   UNL     1      44.391   3.274   9.190  0.00  0.00    +0.000 C 
BRANCH   9  10
ATOM     10  C   UNL     1      45.418   2.157   9.143  0.00  0.00    +0.000 C 
BRANCH  10  11
ATOM     11  C   UNL     1      46.157   2.168   7.827  0.00  0.00    +0.000 A 
ATOM     12  C   UNL     1      46.907   1.051   7.438  0.00  0.00    +0.000 A 
ATOM     13  C   UNL     1      47.585   1.044   6.218  0.00  0.00    +0.000 A 
ATOM     14  C   UNL     1      47.528   2.158   5.384  0.00  0.00    +0.000 A 
ATOM     15  C   UNL     1      46.805   3.285   5.773  0.00  0.00    +0.000 A 
ATOM     16  C   UNL     1      46.128   3.294   6.994  0.00  0.00    +0.000 A 
ENDBRANCH  10  11
ENDBRANCH   9  10
ENDBRANCH   8   9
ENDBRANCH   1   8
BRANCH   4  17
ATOM     17  C   UNL     1      47.692   7.015  13.632  0.00  0.00    +0.000 C 
BRANCH  17  18
ATOM     18  N   UNL     1      48.701   6.223  14.322  0.00  0.00    +0.000 NA
ATOM     19  H   UNL     1      49.612   6.381  13.893  0.00  0.00    +0.000 HD
BRANCH  18  20
ATOM     20  C   UNL     1      48.774   6.594  15.732  0.00  0.00    +0.000 C 
BRANCH  20  21
ATOM     21  C   UNL     1      48.617   5.380  16.615  0.00  0.00    +0.000 A 
ATOM     22  C   UNL     1      47.494   4.549  16.504  0.00  0.00    +0.000 A 
ATOM     23  C   UNL     1      47.371   3.417  17.310  0.00  0.00    +0.000 A 
ATOM     24  C   UNL     1      48.367   3.104  18.235  0.00  0.00    +0.000 A 
ATOM     25  C   UNL     1      49.483   3.928  18.362  0.00  0.00    +0.000 A 
ATOM     26  C   UNL     1      49.608   5.060  17.556  0.00  0.00    +0.000 A 
ENDBRANCH  20  21
ENDBRANCH  18  20
ENDBRANCH  17  18
ENDBRANCH   4  17
TORSDOF 8
ENDMDL
MODEL 2
REMARK VINA RESULT:    -7.765      3.228      8.227
REMARK INTER + INTRA:         -12.508
REMARK INTER:                 -10.841
REMARK INTRA:                  -1.667
REMARK UNBOUND:                -1.111
REMARK  Name = 
REMARK  8 active torsions:
REMARK  status: ('A' for Active; 'I' for Inactive)
REMARK    1  A    between atoms: C_2  and  C_3
REMARK    2  A    between atoms: C_2  and  C_11
REMARK    3  A    between atoms: C_3  and  C_4
REMARK    4  A    between atoms: C_4  and  C_5
REMARK    5  A    between atoms: C_14  and  C_15
REMARK    6  A    between atoms: C_15  and  N_16
REMARK    7  A    between atoms: N_16  and  C_17
REMARK    8  A    between atoms: C_17  and  C_18
REMARK                            x       y       z     vdW  Elec       q    Type
REMARK                         _______ _______ _______ _____ _____    ______ ____
ROOT
ATOM      1  C   UNL     1      47.028   5.979  12.488  0.00  0.00    +0.000 A 
ATOM      2  C   UNL     1      46.541   4.907  13.242  0.00  0.00    +0.000 A 
ATOM      3  C   UNL     1      45.449   4.165  12.780  0.00  0.00    +0.000 A 
ATOM      4  C   UNL     1      44.829   4.487  11.562  0.00  0.00    +0.000 A 
ATOM      5  C   UNL     1      45.337   5.546  10.807  0.00  0.00    +0.000 A 
ATOM      6  C   UNL     1      46.422   6.286  11.264  0.00  0.00    +0.000 A 
ENDROOT
BRANCH   1   8
ATOM      7  O   UNL     1      48.766   6.402  14.021  0.00  0.00    +0.000 OA
ATOM      8  C   UNL     1      48.165   6.785  13.024  0.00  0.00    +0.000 C 
BRANCH   8   9
ATOM      9  C   UNL     1      48.489   8.100  12.342  0.00  0.00    +0.000 C 
BRANCH   9  10
ATOM     10  C   UNL     1      47.896   9.281  13.090  0.00  0.00    +0.000 C 
BRANCH  10  11
ATOM     11  C   UNL     1      46.801   9.929  12.279  0.00  0.00    +0.000 A 
ATOM     12  C   UNL     1      47.096  11.019  11.452  0.00  0.00    +0.000 A 
ATOM     13  C   UNL     1      46.094  11.620  10.688  0.00  0.00    +0.000 A 
ATOM     14  C   UNL     1      44.788  11.143  10.755  0.00  0.00    +0.000 A 
ATOM     15  C   UNL     1      44.477  10.075  11.595  0.00  0.00    +0.000 A 
ATOM     16  C   UNL     1      45.477   9.474  12.362  0.00  0.00    +0.000 A 
ENDBRANCH  10  11
ENDBRANCH   9  10
ENDBRANCH   8   9
ENDBRANCH   1   8
BRANCH   4  17
ATOM     17  C   UNL     1      43.648   3.705  11.042  0.00  0.00    +0.000 C 
BRANCH  17  18
ATOM     18  N   UNL     1      43.800   3.380   9.630  0.00  0.00    +0.000 NA
ATOM     19  H   UNL     1      44.308   4.128   9.160  0.00  0.00    +0.000 HD
BRANCH  18  20
ATOM     20  C   UNL     1      44.542   2.133   9.465  0.00  0.00    +0.000 C 
BRANCH  20  21
ATOM     21  C   UNL     1      45.593   2.271   8.391  0.00  0.00    +0.000 A 
ATOM     22  C   UNL     1      45.779   3.486   7.718  0.00  0.00    +0.000 A 
ATOM     23  C   UNL     1      46.770   3.608   6.743  0.00  0.00    +0.000 A 
ATOM     24  C   UNL     1      47.583   2.519   6.431  0.00  0.00    +0.000 A 
ATOM     25  C   UNL     1      47.401   1.303   7.087  0.00  0.00    +0.000 A 
ATOM     26  C   UNL     1      46.411   1.180   8.062  0.00  0.00    +0.000 A 
ENDBRANCH  20  21
ENDBRANCH  18  20
ENDBRANCH  17  18
ENDBRANCH   4  17
TORSDOF 8
ENDMDL
MODEL 3
REMARK VINA RESULT:    -7.670      2.467      4.954
REMARK INTER + INTRA:         -12.369
REMARK INTER:                 -11.044
REMARK INTRA:                  -1.325
REMARK UNBOUND:                -1.111
REMARK  Name = 
REMARK  8 active torsions:
REMARK  status: ('A' for Active; 'I' for Inactive)
REMARK    1  A    between atoms: C_2  and  C_3
REMARK    2  A    between atoms: C_2  and  C_11
REMARK    3  A    between atoms: C_3  and  C_4
REMARK    4  A    between atoms: C_4  and  C_5
REMARK    5  A    between atoms: C_14  and  C_15
REMARK    6  A    between atoms: C_15  and  N_16
REMARK    7  A    between atoms: N_16  and  C_17
REMARK    8  A    between atoms: C_17  and  C_18
REMARK                            x       y       z     vdW  Elec       q    Type
REMARK                         _______ _______ _______ _____ _____    ______ ____
ROOT
ATOM      1  C   UNL     1      44.918   4.241  11.363  0.00  0.00    +0.000 A 
ATOM      2  C   UNL     1      45.347   3.931  12.658  0.00  0.00    +0.000 A 
ATOM      3  C   UNL     1      46.215   4.794  13.333  0.00  0.00    +0.000 A 
ATOM      4  C   UNL     1      46.669   5.975  12.724  0.00  0.00    +0.000 A 
ATOM      5  C   UNL     1      46.216   6.286  11.440  0.00  0.00    +0.000 A 
ATOM      6  C   UNL     1      45.354   5.430  10.765  0.00  0.00    +0.000 A 
ENDROOT
BRANCH   1   8
ATOM      7  O   UNL     1      43.089   2.762  11.237  0.00  0.00    +0.000 OA
ATOM      8  C   UNL     1      44.029   3.282  10.645  0.00  0.00    +0.000 C 
BRANCH   8   9
ATOM      9  C   UNL     1      44.370   2.932   9.209  0.00  0.00    +0.000 C 
BRANCH   9  10
ATOM     10  C   UNL     1      45.563   1.995   9.129  0.00  0.00    +0.000 C 
BRANCH  10  11
ATOM     11  C   UNL     1      46.248   2.118   7.790  0.00  0.00    +0.000 A 
ATOM     12  C   UNL     1      46.091   3.284   7.030  0.00  0.00    +0.000 A 
ATOM     13  C   UNL     1      46.729   3.414   5.796  0.00  0.00    +0.000 A 
ATOM     14  C   UNL     1      47.519   2.377   5.307  0.00  0.00    +0.000 A 
ATOM     15  C   UNL     1      47.662   1.202   6.044  0.00  0.00    +0.000 A 
ATOM     16  C   UNL     1      47.022   1.068   7.277  0.00  0.00    +0.000 A 
ENDBRANCH  10  11
ENDBRANCH   9  10
ENDBRANCH   8   9
ENDBRANCH   1   8
BRANCH   4  17
ATOM     17  C   UNL     1      47.607   6.923  13.429  0.00  0.00    +0.000 C 
BRANCH  17  18
ATOM     18  N   UNL     1      46.952   8.181  13.757  0.00  0.00    +0.000 NA
ATOM     19  H   UNL     1      46.994   8.336  14.763  0.00  0.00    +0.000 HD
BRANCH  18  20
ATOM     20  C   UNL     1      47.609   9.297  13.082  0.00  0.00    +0.000 C 
BRANCH  20  21
ATOM     21  C   UNL     1      46.638  10.034  12.193  0.00  0.00    +0.000 A 
ATOM     22  C   UNL     1      45.282   9.677  12.155  0.00  0.00    +0.000 A 
ATOM     23  C   UNL     1      44.390  10.382  11.346  0.00  0.00    +0.000 A 
ATOM     24  C   UNL     1      44.841  11.448  10.569  0.00  0.00    +0.000 A 
ATOM     25  C   UNL     1      46.187  11.805  10.591  0.00  0.00    +0.000 A 
ATOM     26  C   UNL     1      47.081  11.103  11.399  0.00  0.00    +0.000 A 
ENDBRANCH  20  21
ENDBRANCH  18  20
ENDBRANCH  17  18
ENDBRANCH   4  17
TORSDOF 8
ENDMDL
MODEL 4
REMARK VINA RESULT:    -7.374      1.574      2.295
REMARK INTER + INTRA:         -11.934
REMARK INTER:                 -10.235
REMARK INTRA:                  -1.699
REMARK UNBOUND:                -1.111
REMARK  Name = 
REMARK  8 active torsions:
REMARK  status: ('A' for Active; 'I' for Inactive)
REMARK    1  A    between atoms: C_2  and  C_3
REMARK    2  A    between atoms: C_2  and  C_11
REMARK    3  A    between atoms: C_3  and  C_4
REMARK    4  A    between atoms: C_4  and  C_5
REMARK    5  A    between atoms: C_14  and  C_15
REMARK    6  A    between atoms: C_15  and  N_16
REMARK    7  A    between atoms: N_16  and  C_17
REMARK    8  A    between atoms: C_17  and  C_18
REMARK                            x       y       z     vdW  Elec       q    Type
REMARK                         _______ _______ _______ _____ _____    ______ ____
ROOT
ATOM      1  C   UNL     1      44.922   5.534  12.834  0.00  0.00    +0.000 A 
ATOM      2  C   UNL     1      45.181   6.874  12.528  0.00  0.00    +0.000 A 
ATOM      3  C   UNL     1      46.456   7.407  12.741  0.00  0.00    +0.000 A 
ATOM      4  C   UNL     1      47.488   6.611  13.266  0.00  0.00    +0.000 A 
ATOM      5  C   UNL     1      47.224   5.268  13.547  0.00  0.00    +0.000 A 
ATOM      6  C   UNL     1      45.957   4.735  13.337  0.00  0.00    +0.000 A 
ENDROOT
BRANCH   1   8
ATOM      7  O   UNL     1      42.797   4.877  13.608  0.00  0.00    +0.000 OA
ATOM      8  C   UNL     1      43.543   5.000  12.642  0.00  0.00    +0.000 C 
BRANCH   8   9
ATOM      9  C   UNL     1      43.136   4.560  11.249  0.00  0.00    +0.000 C 
BRANCH   9  10
ATOM     10  C   UNL     1      43.665   3.175  10.922  0.00  0.00    +0.000 C 
BRANCH  10  11
ATOM     11  C   UNL     1      44.618   3.229   9.754  0.00  0.00    +0.000 A 
ATOM     12  C   UNL     1      45.098   2.042   9.188  0.00  0.00    +0.000 A 
ATOM     13  C   UNL     1      45.971   2.080   8.099  0.00  0.00    +0.000 A 
ATOM     14  C   UNL     1      46.379   3.304   7.577  0.00  0.00    +0.000 A 
ATOM     15  C   UNL     1      45.928   4.493   8.148  0.00  0.00    +0.000 A 
ATOM     16  C   UNL     1      45.057   4.457   9.239  0.00  0.00    +0.000 A 
ENDBRANCH  10  11
ENDBRANCH   9  10
ENDBRANCH   8   9
ENDBRANCH   1   8
BRANCH   4  17
ATOM     17  C   UNL     1      48.871   7.161  13.508  0.00  0.00    +0.000 C 
BRANCH  17  18
ATOM     18  N   UNL     1      49.515   6.512  14.642  0.00  0.00    +0.000 NA
ATOM     19  H   UNL     1      50.465   6.244  14.388  0.00  0.00    +0.000 HD
BRANCH  18  20
ATOM     20  C   UNL     1      49.572   7.415  15.789  0.00  0.00    +0.000 C 
BRANCH  20  21
ATOM     21  C   UNL     1      48.746   6.881  16.933  0.00  0.00    +0.000 A 
ATOM     22  C   UNL     1      48.355   5.536  16.973  0.00  0.00    +0.000 A 
ATOM     23  C   UNL     1      47.611   5.049  18.049  0.00  0.00    +0.000 A 
ATOM     24  C   UNL     1      47.250   5.901  19.093  0.00  0.00    +0.000 A 
ATOM     25  C   UNL     1      47.624   7.242  19.059  0.00  0.00    +0.000 A 
ATOM     26  C   UNL     1      48.369   7.730  17.985  0.00  0.00    +0.000 A 
ENDBRANCH  20  21
ENDBRANCH  18  20
ENDBRANCH  17  18
ENDBRANCH   4  17
TORSDOF 8
ENDMDL
MODEL 5
REMARK VINA RESULT:    -7.324      2.150      8.675
REMARK INTER + INTRA:         -11.860
REMARK INTER:                 -10.616
REMARK INTRA:                  -1.243
REMARK UNBOUND:                -1.111
REMARK  Name = 
REMARK  8 active torsions:
REMARK  status: ('A' for Active; 'I' for Inactive)
REMARK    1  A    between atoms: C_2  and  C_3
REMARK    2  A    between atoms: C_2  and  C_11
REMARK    3  A    between atoms: C_3  and  C_4
REMARK    4  A    between atoms: C_4  and  C_5
REMARK    5  A    between atoms: C_14  and  C_15
REMARK    6  A    between atoms: C_15  and  N_16
REMARK    7  A    between atoms: N_16  and  C_17
REMARK    8  A    between atoms: C_17  and  C_18
REMARK                            x       y       z     vdW  Elec       q    Type
REMARK                         _______ _______ _______ _____ _____    ______ ____
ROOT
ATOM      1  C   UNL     1      46.637   6.354  12.811  0.00  0.00    +0.000 A 
ATOM      2  C   UNL     1      45.832   5.465  13.530  0.00  0.00    +0.000 A 
ATOM      3  C   UNL     1      44.841   4.730  12.872  0.00  0.00    +0.000 A 
ATOM      4  C   UNL     1      44.639   4.875  11.489  0.00  0.00    +0.000 A 
ATOM      5  C   UNL     1      45.465   5.750  10.778  0.00  0.00    +0.000 A 
ATOM      6  C   UNL     1      46.450   6.483  11.429  0.00  0.00    +0.000 A 
ENDROOT
BRANCH   1   8
ATOM      7  O   UNL     1      47.647   8.384  13.448  0.00  0.00    +0.000 OA
ATOM      8  C   UNL     1      47.657   7.162  13.543  0.00  0.00    +0.000 C 
BRANCH   8   9
ATOM      9  C   UNL     1      48.721   6.422  14.330  0.00  0.00    +0.000 C 
BRANCH   9  10
ATOM     10  C   UNL     1      48.663   6.764  15.808  0.00  0.00    +0.000 C 
BRANCH  10  11
ATOM     11  C   UNL     1      48.517   5.513  16.639  0.00  0.00    +0.000 A 
ATOM     12  C   UNL     1      47.732   4.452  16.172  0.00  0.00    +0.000 A 
ATOM     13  C   UNL     1      47.599   3.285  16.926  0.00  0.00    +0.000 A 
ATOM     14  C   UNL     1      48.240   3.175  18.157  0.00  0.00    +0.000 A 
ATOM     15  C   UNL     1      49.004   4.234  18.644  0.00  0.00    +0.000 A 
ATOM     16  C   UNL     1      49.136   5.404  17.892  0.00  0.00    +0.000 A 
ENDBRANCH  10  11
ENDBRANCH   9  10
ENDBRANCH   8   9
ENDBRANCH   1   8
BRANCH   4  17
ATOM     17  C   UNL     1      43.576   4.097  10.756  0.00  0.00    +0.000 C 
BRANCH  17  18
ATOM     18  N   UNL     1      43.980   3.794   9.389  0.00  0.00    +0.000 NA
ATOM     19  H   UNL     1      44.680   4.469   9.083  0.00  0.00    +0.000 HD
BRANCH  18  20
ATOM     20  C   UNL     1      44.552   2.453   9.304  0.00  0.00    +0.000 C 
BRANCH  20  21
ATOM     21  C   UNL     1      45.666   2.407   8.287  0.00  0.00    +0.000 A 
ATOM     22  C   UNL     1      46.401   1.232   8.076  0.00  0.00    +0.000 A 
ATOM     23  C   UNL     1      47.413   1.197   7.116  0.00  0.00    +0.000 A 
ATOM     24  C   UNL     1      47.701   2.332   6.359  0.00  0.00    +0.000 A 
ATOM     25  C   UNL     1      46.984   3.508   6.567  0.00  0.00    +0.000 A 
ATOM     26  C   UNL     1      45.970   3.546   7.526  0.00  0.00    +0.000 A 
ENDBRANCH  20  21
ENDBRANCH  18  20
ENDBRANCH  17  18
ENDBRANCH   4  17
TORSDOF 8
ENDMDL
MODEL 6
REMARK VINA RESULT:    -7.163      1.428      2.120
REMARK INTER + INTRA:         -11.624
REMARK INTER:                 -10.727
REMARK INTRA:                  -0.897
REMARK UNBOUND:                -1.111
REMARK  Name = 
REMARK  8 active torsions:
REMARK  status: ('A' for Active; 'I' for Inactive)
REMARK    1  A    between atoms: C_2  and  C_3
REMARK    2  A    between atoms: C_2  and  C_11
REMARK    3  A    between atoms: C_3  and  C_4
REMARK    4  A    between atoms: C_4  and  C_5
REMARK    5  A    between atoms: C_14  and  C_15
REMARK    6  A    between atoms: C_15  and  N_16
REMARK    7  A    between atoms: N_16  and  C_17
REMARK    8  A    between atoms: C_17  and  C_18
REMARK                            x       y       z     vdW  Elec       q    Type
REMARK                         _______ _______ _______ _____ _____    ______ ____
ROOT
ATOM      1  C   UNL     1      45.914   5.292  12.203  0.00  0.00    +0.000 A 
ATOM      2  C   UNL     1      46.578   6.521  12.274  0.00  0.00    +0.000 A 
ATOM      3  C   UNL     1      47.431   6.794  13.348  0.00  0.00    +0.000 A 
ATOM      4  C   UNL     1      47.630   5.846  14.365  0.00  0.00    +0.000 A 
ATOM      5  C   UNL     1      46.979   4.614  14.272  0.00  0.00    +0.000 A 
ATOM      6  C   UNL     1      46.129   4.339  13.207  0.00  0.00    +0.000 A 
ENDROOT
BRANCH   1   8
ATOM      7  O   UNL     1      44.208   5.928  10.708  0.00  0.00    +0.000 OA
ATOM      8  C   UNL     1      44.973   5.041  11.072  0.00  0.00    +0.000 C 
BRANCH   8   9
ATOM      9  C   UNL     1      44.953   3.656  10.456  0.00  0.00    +0.000 C 
BRANCH   9  10
ATOM     10  C   UNL     1      44.597   3.703   8.981  0.00  0.00    +0.000 C 
BRANCH  10  11
ATOM     11  C   UNL     1      45.590   2.911   8.167  0.00  0.00    +0.000 A 
ATOM     12  C   UNL     1      46.241   3.511   7.082  0.00  0.00    +0.000 A 
ATOM     13  C   UNL     1      47.171   2.793   6.329  0.00  0.00    +0.000 A 
ATOM     14  C   UNL     1      47.449   1.466   6.648  0.00  0.00    +0.000 A 
ATOM     15  C   UNL     1      46.788   0.850   7.711  0.00  0.00    +0.000 A 
ATOM     16  C   UNL     1      45.856   1.567   8.463  0.00  0.00    +0.000 A 
ENDBRANCH  10  11
ENDBRANCH   9  10
ENDBRANCH   8   9
ENDBRANCH   1   8
BRANCH   4  17
ATOM     17  C   UNL     1      48.542   6.117  15.535  0.00  0.00    +0.000 C 
BRANCH  17  18
ATOM     18  N   UNL     1      47.901   5.791  16.802  0.00  0.00    +0.000 NA
ATOM     19  H   UNL     1      47.346   4.943  16.696  0.00  0.00    +0.000 HD
BRANCH  18  20
ATOM     20  C   UNL     1      48.899   5.573  17.845  0.00  0.00    +0.000 C 
BRANCH  20  21
ATOM     21  C   UNL     1      49.620   4.265  17.634  0.00  0.00    +0.000 A 
ATOM     22  C   UNL     1      48.933   3.129  17.182  0.00  0.00    +0.000 A 
ATOM     23  C   UNL     1      49.616   1.931  16.969  0.00  0.00    +0.000 A 
ATOM     24  C   UNL     1      50.989   1.856  17.203  0.00  0.00    +0.000 A 
ATOM     25  C   UNL     1      51.680   2.975  17.661  0.00  0.00    +0.000 A 
ATOM     26  C   UNL     1      50.999   4.174  17.875  0.00  0.00    +0.000 A 
ENDBRANCH  20  21
ENDBRANCH  18  20
ENDBRANCH  17  18
ENDBRANCH   4  17
TORSDOF 8
ENDMDL
MODEL 7
REMARK VINA RESULT:    -7.128      2.829      4.528
REMARK INTER + INTRA:         -11.572
REMARK INTER:                 -10.665
REMARK INTRA:                  -0.907
REMARK UNBOUND:                -1.111
REMARK  Name = 
REMARK  8 active torsions:
REMARK  status: ('A' for Active; 'I' for Inactive)
REMARK    1  A    between atoms: C_2  and  C_3
REMARK    2  A    between atoms: C_2  and  C_11
REMARK    3  A    between atoms: C_3  and  C_4
REMARK    4  A    between atoms: C_4  and  C_5
REMARK    5  A    between atoms: C_14  and  C_15
REMARK    6  A    between atoms: C_15  and  N_16
REMARK    7  A    between atoms: N_16  and  C_17
REMARK    8  A    between atoms: C_17  and  C_18
REMARK                            x       y       z     vdW  Elec       q    Type
REMARK                         _______ _______ _______ _____ _____    ______ ____
ROOT
ATOM      1  C   UNL     1      45.126   4.920  11.554  0.00  0.00    +0.000 A 
ATOM      2  C   UNL     1      45.656   6.152  11.160  0.00  0.00    +0.000 A 
ATOM      3  C   UNL     1      46.707   6.726  11.883  0.00  0.00    +0.000 A 
ATOM      4  C   UNL     1      47.239   6.077  13.010  0.00  0.00    +0.000 A 
ATOM      5  C   UNL     1      46.717   4.837  13.381  0.00  0.00    +0.000 A 
ATOM      6  C   UNL     1      45.671   4.264  12.665  0.00  0.00    +0.000 A 
ENDROOT
BRANCH   1   8
ATOM      7  O   UNL     1      42.896   4.188  11.357  0.00  0.00    +0.000 OA
ATOM      8  C   UNL     1      43.974   4.350  10.795  0.00  0.00    +0.000 C 
BRANCH   8   9
ATOM      9  C   UNL     1      44.208   3.925   9.359  0.00  0.00    +0.000 C 
BRANCH   9  10
ATOM     10  C   UNL     1      44.753   2.511   9.274  0.00  0.00    +0.000 C 
BRANCH  10  11
ATOM     11  C   UNL     1      45.737   2.386   8.137  0.00  0.00    +0.000 A 
ATOM     12  C   UNL     1      46.485   1.213   7.986  0.00  0.00    +0.000 A 
ATOM     13  C   UNL     1      47.390   1.081   6.932  0.00  0.00    +0.000 A 
ATOM     14  C   UNL     1      47.562   2.125   6.027  0.00  0.00    +0.000 A 
ATOM     15  C   UNL     1      46.841   3.309   6.182  0.00  0.00    +0.000 A 
ATOM     16  C   UNL     1      45.938   3.443   7.238  0.00  0.00    +0.000 A 
ENDBRANCH  10  11
ENDBRANCH   9  10
ENDBRANCH   8   9
ENDBRANCH   1   8
BRANCH   4  17
ATOM     17  C   UNL     1      48.371   6.675  13.809  0.00  0.00    +0.000 C 
BRANCH  17  18
ATOM     18  N   UNL     1      49.564   6.859  12.993  0.00  0.00    +0.000 NA
ATOM     19  H   UNL     1      49.524   6.240  12.185  0.00  0.00    +0.000 HD
BRANCH  18  20
ATOM     20  C   UNL     1      49.660   8.239  12.524  0.00  0.00    +0.000 C 
BRANCH  20  21
ATOM     21  C   UNL     1      50.812   8.399  11.562  0.00  0.00    +0.000 A 
ATOM     22  C   UNL     1      51.577   9.574  11.544  0.00  0.00    +0.000 A 
ATOM     23  C   UNL     1      52.653   9.701  10.665  0.00  0.00    +0.000 A 
ATOM     24  C   UNL     1      52.976   8.657   9.797  0.00  0.00    +0.000 A 
ATOM     25  C   UNL     1      52.217   7.490   9.799  0.00  0.00    +0.000 A 
ATOM     26  C   UNL     1      51.140   7.361  10.678  0.00  0.00    +0.000 A 
ENDBRANCH  20  21
ENDBRANCH  18  20
ENDBRANCH  17  18
ENDBRANCH   4  17
TORSDOF 8
ENDMDL
MODEL 8
REMARK VINA RESULT:    -7.054      3.081      5.328
REMARK INTER + INTRA:         -11.464
REMARK INTER:                 -10.227
REMARK INTRA:                  -1.237
REMARK UNBOUND:                -1.111
REMARK  Name = 
REMARK  8 active torsions:
REMARK  status: ('A' for Active; 'I' for Inactive)
REMARK    1  A    between atoms: C_2  and  C_3
REMARK    2  A    between atoms: C_2  and  C_11
REMARK    3  A    between atoms: C_3  and  C_4
REMARK    4  A    between atoms: C_4  and  C_5
REMARK    5  A    between atoms: C_14  and  C_15
REMARK    6  A    between atoms: C_15  and  N_16
REMARK    7  A    between atoms: N_16  and  C_17
REMARK    8  A    between atoms: C_17  and  C_18
REMARK                            x       y       z     vdW  Elec       q    Type
REMARK                         _______ _______ _______ _____ _____    ______ ____
ROOT
ATOM      1  C   UNL     1      45.453   4.640  12.103  0.00  0.00    +0.000 A 
ATOM      2  C   UNL     1      46.149   4.489  13.307  0.00  0.00    +0.000 A 
ATOM      3  C   UNL     1      47.202   5.355  13.620  0.00  0.00    +0.000 A 
ATOM      4  C   UNL     1      47.575   6.379  12.734  0.00  0.00    +0.000 A 
ATOM      5  C   UNL     1      46.858   6.534  11.545  0.00  0.00    +0.000 A 
ATOM      6  C   UNL     1      45.812   5.675  11.230  0.00  0.00    +0.000 A 
ENDROOT
BRANCH   1   8
ATOM      7  O   UNL     1      43.920   2.935  12.639  0.00  0.00    +0.000 OA
ATOM      8  C   UNL     1      44.364   3.675  11.769  0.00  0.00    +0.000 C 
BRANCH   8   9
ATOM      9  C   UNL     1      43.894   3.603  10.330  0.00  0.00    +0.000 C 
BRANCH   9  10
ATOM     10  C   UNL     1      44.265   2.280   9.684  0.00  0.00    +0.000 C 
BRANCH  10  11
ATOM     11  C   UNL     1      45.367   2.472   8.672  0.00  0.00    +0.000 A 
ATOM     12  C   UNL     1      46.139   1.377   8.264  0.00  0.00    +0.000 A 
ATOM     13  C   UNL     1      47.153   1.539   7.319  0.00  0.00    +0.000 A 
ATOM     14  C   UNL     1      47.412   2.799   6.784  0.00  0.00    +0.000 A 
ATOM     15  C   UNL     1      46.667   3.901   7.202  0.00  0.00    +0.000 A 
ATOM     16  C   UNL     1      45.653   3.741   8.149  0.00  0.00    +0.000 A 
ENDBRANCH  10  11
ENDBRANCH   9  10
ENDBRANCH   8   9
ENDBRANCH   1   8
BRANCH   4  17
ATOM     17  C   UNL     1      48.708   7.325  13.046  0.00  0.00    +0.000 C 
BRANCH  17  18
ATOM     18  N   UNL     1      49.407   7.741  11.838  0.00  0.00    +0.000 NA
ATOM     19  H   UNL     1      48.731   8.053  11.142  0.00  0.00    +0.000 HD
BRANCH  18  20
ATOM     20  C   UNL     1      50.327   8.838  12.126  0.00  0.00    +0.000 C 
BRANCH  20  21
ATOM     21  C   UNL     1      50.039  10.026  11.242  0.00  0.00    +0.000 A 
ATOM     22  C   UNL     1      51.057  10.630  10.491  0.00  0.00    +0.000 A 
ATOM     23  C   UNL     1      50.773  11.714   9.660  0.00  0.00    +0.000 A 
ATOM     24  C   UNL     1      49.471  12.205   9.570  0.00  0.00    +0.000 A 
ATOM     25  C   UNL     1      48.452  11.619  10.318  0.00  0.00    +0.000 A 
ATOM     26  C   UNL     1      48.734  10.535  11.150  0.00  0.00    +0.000 A 
ENDBRANCH  20  21
ENDBRANCH  18  20
ENDBRANCH  17  18
ENDBRANCH   4  17
TORSDOF 8
ENDMDL
MODEL 9
REMARK VINA RESULT:    -7.042      3.276      8.027
REMARK INTER + INTRA:         -11.446
REMARK INTER:                 -10.410
REMARK INTRA:                  -1.037
REMARK UNBOUND:                -1.111
REMARK  Name = 
REMARK  8 active torsions:
REMARK  status: ('A' for Active; 'I' for Inactive)
REMARK    1  A    between atoms: C_2  and  C_3
REMARK    2  A    between atoms: C_2  and  C_11
REMARK    3  A    between atoms: C_3  and  C_4
REMARK    4  A    between atoms: C_4  and  C_5
REMARK    5  A    between atoms: C_14  and  C_15
REMARK    6  A    between atoms: C_15  and  N_16
REMARK    7  A    between atoms: N_16  and  C_17
REMARK    8  A    between atoms: C_17  and  C_18
REMARK                            x       y       z     vdW  Elec       q    Type
REMARK                         _______ _______ _______ _____ _____    ______ ____
ROOT
ATOM      1  C   UNL     1      46.880   5.801  13.170  0.00  0.00    +0.000 A 
ATOM      2  C   UNL     1      46.138   6.598  12.292  0.00  0.00    +0.000 A 
ATOM      3  C   UNL     1      45.088   6.039  11.557  0.00  0.00    +0.000 A 
ATOM      4  C   UNL     1      44.767   4.678  11.687  0.00  0.00    +0.000 A 
ATOM      5  C   UNL     1      45.499   3.897  12.584  0.00  0.00    +0.000 A 
ATOM      6  C   UNL     1      46.545   4.449  13.315  0.00  0.00    +0.000 A 
ENDROOT
BRANCH   1   8
ATOM      7  O   UNL     1      48.373   5.939  14.987  0.00  0.00    +0.000 OA
ATOM      8  C   UNL     1      48.025   6.409  13.909  0.00  0.00    +0.000 C 
BRANCH   8   9
ATOM      9  C   UNL     1      48.679   7.643  13.319  0.00  0.00    +0.000 C 
BRANCH   9  10
ATOM     10  C   UNL     1      49.517   7.305  12.099  0.00  0.00    +0.000 C 
BRANCH  10  11
ATOM     11  C   UNL     1      50.092   8.557  11.484  0.00  0.00    +0.000 A 
ATOM     12  C   UNL     1      51.409   8.560  11.009  0.00  0.00    +0.000 A 
ATOM     13  C   UNL     1      51.949   9.709  10.426  0.00  0.00    +0.000 A 
ATOM     14  C   UNL     1      51.179  10.865  10.326  0.00  0.00    +0.000 A 
ATOM     15  C   UNL     1      49.875  10.881  10.818  0.00  0.00    +0.000 A 
ATOM     16  C   UNL     1      49.335   9.734  11.404  0.00  0.00    +0.000 A 
ENDBRANCH  10  11
ENDBRANCH   9  10
ENDBRANCH   8   9
ENDBRANCH   1   8
BRANCH   4  17
ATOM     17  C   UNL     1      43.640   4.050  10.905  0.00  0.00    +0.000 C 
BRANCH  17  18
ATOM     18  N   UNL     1      44.003   3.853   9.508  0.00  0.00    +0.000 NA
ATOM     19  H   UNL     1      44.746   4.502   9.253  0.00  0.00    +0.000 HD
BRANCH  18  20
ATOM     20  C   UNL     1      44.474   2.488   9.285  0.00  0.00    +0.000 C 
BRANCH  20  21
ATOM     21  C   UNL     1      45.588   2.464   8.268  0.00  0.00    +0.000 A 
ATOM     22  C   UNL     1      46.357   1.309   8.068  0.00  0.00    +0.000 A 
ATOM     23  C   UNL     1      47.370   1.293   7.108  0.00  0.00    +0.000 A 
ATOM     24  C   UNL     1      47.624   2.428   6.339  0.00  0.00    +0.000 A 
ATOM     25  C   UNL     1      46.874   3.585   6.535  0.00  0.00    +0.000 A 
ATOM     26  C   UNL     1      45.860   3.603   7.494  0.00  0.00    +0.000 A 
ENDBRANCH  20  21
ENDBRANCH  18  20
ENDBRANCH  17  18
ENDBRANCH   4  17
TORSDOF 8
ENDMDL
