MODEL 1
REMARK VINA RESULT:    -8.531      0.000      0.000
REMARK INTER + INTRA:         -12.182
REMARK INTER:                 -11.523
REMARK INTRA:                  -0.659
REMARK UNBOUND:                -0.659
REMARK  Name = 
REMARK  6 active torsions:
REMARK  status: ('A' for Active; 'I' for Inactive)
REMARK    1  A    between atoms: C_2  and  C_4
REMARK    2  A    between atoms: N_8  and  C_9
REMARK    3  A    between atoms: C_9  and  C_10
REMARK    4  A    between atoms: C_10  and  C_11
REMARK    5  A    between atoms: C_15  and  N_16
REMARK    6  A    between atoms: N_16  and  C_17
REMARK                            x       y       z     vdW  Elec       q    Type
REMARK                         _______ _______ _______ _____ _____    ______ ____
ROOT
ATOM      1  C   UNL     1      43.412   4.290  10.991  0.00  0.00    +0.000 C 
ENDROOT
BRANCH   1   6
ATOM      2  C   UNL     1      46.579   2.403   7.489  0.00  0.00    +0.000 A 
ATOM      3  C   UNL     1      45.822   1.736   8.448  0.00  0.00    +0.000 A 
ATOM      4  C   UNL     1      44.875   2.448   9.183  0.00  0.00    +0.000 A 
ATOM      5  C   UNL     1      44.714   3.812   8.970  0.00  0.00    +0.000 A 
ATOM      6  N   UNL     1      43.739   4.570   9.599  0.00  0.00    +0.000 N 
ATOM      7  N   UNL     1      45.467   4.477   8.069  0.00  0.00    +0.000 NA
ATOM      8  C   UNL     1      46.383   3.769   7.354  0.00  0.00    +0.000 A 
ATOM      9  H   UNL     1      43.937   5.544   9.376  0.00  0.00    +0.000 HD
BRANCH   2  11
ATOM     10  N   UNL     1      48.741   2.378   6.386  0.00  0.00    +0.000 N 
ATOM     11  C   UNL     1      47.565   1.721   6.629  0.00  0.00    +0.000 C 
ATOM     12  O   UNL     1      47.359   0.602   6.181  0.00  0.00    +0.000 OA
ATOM     13  H   UNL     1      49.454   1.858   5.890  0.00  0.00    +0.000 HD
ATOM     14  H   UNL     1      49.044   3.171   6.934  0.00  0.00    +0.000 HD
ENDBRANCH   2  11
ENDBRANCH   1   6
BRANCH   1  15
ATOM     15  C   UNL     1      43.592   5.550  11.852  0.00  0.00    +0.000 C 
BRANCH  15  16
ATOM     16  C   UNL     1      44.973   5.619  12.462  0.00  0.00    +0.000 A 
ATOM     17  C   UNL     1      45.890   6.586  12.035  0.00  0.00    +0.000 A 
ATOM     18  C   UNL     1      47.177   6.618  12.573  0.00  0.00    +0.000 A 
ATOM     19  C   UNL     1      47.567   5.676  13.528  0.00  0.00    +0.000 A 
ATOM     20  C   UNL     1      46.673   4.697  13.964  0.00  0.00    +0.000 A 
ATOM     21  C   UNL     1      45.373   4.690  13.437  0.00  0.00    +0.000 A 
BRANCH  20  22
ATOM     22  N   UNL     1      47.000   3.745  14.958  0.00  0.00    +0.000 N 
ATOM     23  H   UNL     1      46.159   3.214  15.189  0.00  0.00    +0.000 HD
BRANCH  22  24
ATOM     24  C   UNL     1      47.814   3.999  16.121  0.00  0.00    +0.000 C 
ATOM     25  C   UNL     1      48.196   2.700  16.864  0.00  0.00    +0.000 C 
ATOM     26  N   UNL     1      47.774   3.308  18.139  0.00  0.00    +0.000 NA
ATOM     27  C   UNL     1      47.056   4.369  17.409  0.00  0.00    +0.000 C 
ATOM     28  H   UNL     1      48.555   3.652  18.699  0.00  0.00    +0.000 HD
ENDBRANCH  22  24
ENDBRANCH  20  22
ENDBRANCH  15  16
ENDBRANCH   1  15
TORSDOF 6
ENDMDL
MODEL 2
REMARK VINA RESULT:    -7.737      2.345      3.690
REMARK INTER + INTRA:         -11.109
REMARK INTER:                 -10.377
REMARK INTRA:                  -0.733
REMARK UNBOUND:                -0.659
REMARK  Name = 
REMARK  6 active torsions:
REMARK  status: ('A' for Active; 'I' for Inactive)
REMARK    1  A    between atoms: C_2  and  C_4
REMARK    2  A    between atoms: N_8  and  C_9
REMARK    3  A    between atoms: C_9  and  C_10
REMARK    4  A    between atoms: C_10  and  C_11
REMARK    5  A    between atoms: C_15  and  N_16
REMARK    6  A    between atoms: N_16  and  C_17
REMARK                            x       y       z     vdW  Elec       q    Type
REMARK                         _______ _______ _______ _____ _____    ______ ____
ROOT
ATOM      1  C   UNL     1      43.487   4.442  10.922  0.00  0.00    +0.000 C 
ENDROOT
BRANCH   1   6
ATOM      2  C   UNL     1      46.657   2.468   7.471  0.00  0.00    +0.000 A 
ATOM      3  C   UNL     1      45.829   1.821   8.384  0.00  0.00    +0.000 A 
ATOM      4  C   UNL     1      44.900   2.568   9.108  0.00  0.00    +0.000 A 
ATOM      5  C   UNL     1      44.828   3.944   8.931  0.00  0.00    +0.000 A 
ATOM      6  N   UNL     1      43.878   4.742   9.551  0.00  0.00    +0.000 N 
ATOM      7  N   UNL     1      45.650   4.589   8.077  0.00  0.00    +0.000 NA
ATOM      8  C   UNL     1      46.547   3.846   7.371  0.00  0.00    +0.000 A 
ATOM      9  H   UNL     1      44.141   5.707   9.364  0.00  0.00    +0.000 HD
BRANCH   2  11
ATOM     10  N   UNL     1      48.789   2.412   6.312  0.00  0.00    +0.000 N 
ATOM     11  C   UNL     1      47.630   1.753   6.624  0.00  0.00    +0.000 C 
ATOM     12  O   UNL     1      47.430   0.607   6.245  0.00  0.00    +0.000 OA
ATOM     13  H   UNL     1      49.496   1.874   5.827  0.00  0.00    +0.000 HD
ATOM     14  H   UNL     1      49.094   3.239   6.806  0.00  0.00    +0.000 HD
ENDBRANCH   2  11
ENDBRANCH   1   6
BRANCH   1  15
ATOM     15  C   UNL     1      43.699   5.668  11.824  0.00  0.00    +0.000 C 
BRANCH  15  16
ATOM     16  C   UNL     1      45.112   5.736  12.355  0.00  0.00    +0.000 A 
ATOM     17  C   UNL     1      45.502   4.941  13.437  0.00  0.00    +0.000 A 
ATOM     18  C   UNL     1      46.796   5.038  13.949  0.00  0.00    +0.000 A 
ATOM     19  C   UNL     1      47.707   5.942  13.398  0.00  0.00    +0.000 A 
ATOM     20  C   UNL     1      47.339   6.753  12.323  0.00  0.00    +0.000 A 
ATOM     21  C   UNL     1      46.045   6.627  11.798  0.00  0.00    +0.000 A 
BRANCH  20  22
ATOM     22  N   UNL     1      48.232   7.654  11.700  0.00  0.00    +0.000 N 
ATOM     23  H   UNL     1      48.166   7.531  10.688  0.00  0.00    +0.000 HD
BRANCH  22  24
ATOM     24  C   UNL     1      49.586   7.916  12.124  0.00  0.00    +0.000 C 
ATOM     25  C   UNL     1      49.971   9.404  11.973  0.00  0.00    +0.000 C 
ATOM     26  N   UNL     1      51.217   9.010  11.289  0.00  0.00    +0.000 NA
ATOM     27  C   UNL     1      50.684   7.651  11.078  0.00  0.00    +0.000 C 
ATOM     28  H   UNL     1      52.036   9.039  11.897  0.00  0.00    +0.000 HD
ENDBRANCH  22  24
ENDBRANCH  20  22
ENDBRANCH  15  16
ENDBRANCH   1  15
TORSDOF 6
ENDMDL
MODEL 3
REMARK VINA RESULT:    -7.676      3.165      4.895
REMARK INTER + INTRA:         -11.027
REMARK INTER:                 -10.440
REMARK INTRA:                  -0.587
REMARK UNBOUND:                -0.659
REMARK  Name = 
REMARK  6 active torsions:
REMARK  status: ('A' for Active; 'I' for Inactive)
REMARK    1  A    between atoms: C_2  and  C_4
REMARK    2  A    between atoms: N_8  and  C_9
REMARK    3  A    between atoms: C_9  and  C_10
REMARK    4  A    between atoms: C_10  and  C_11
REMARK    5  A    between atoms: C_15  and  N_16
REMARK    6  A    between atoms: N_16  and  C_17
REMARK                            x       y       z     vdW  Elec       q    Type
REMARK                         _______ _______ _______ _____ _____    ______ ____
ROOT
ATOM      1  C   UNL     1      43.801   4.809  11.106  0.00  0.00    +0.000 C 
ENDROOT
BRANCH   1   6
ATOM      2  C   UNL     1      46.628   2.541   7.539  0.00  0.00    +0.000 A 
ATOM      3  C   UNL     1      45.804   1.975   8.507  0.00  0.00    +0.000 A 
ATOM      4  C   UNL     1      44.973   2.802   9.262  0.00  0.00    +0.000 A 
ATOM      5  C   UNL     1      44.994   4.177   9.059  0.00  0.00    +0.000 A 
ATOM      6  N   UNL     1      44.140   5.054   9.710  0.00  0.00    +0.000 N 
ATOM      7  N   UNL     1      45.815   4.742   8.150  0.00  0.00    +0.000 NA
ATOM      8  C   UNL     1      46.615   3.922   7.415  0.00  0.00    +0.000 A 
ATOM      9  H   UNL     1      44.464   5.994   9.489  0.00  0.00    +0.000 HD
BRANCH   2  11
ATOM     10  N   UNL     1      48.633   2.344   6.185  0.00  0.00    +0.000 N 
ATOM     11  C   UNL     1      47.499   1.740   6.659  0.00  0.00    +0.000 C 
ATOM     12  O   UNL     1      47.242   0.575   6.390  0.00  0.00    +0.000 OA
ATOM     13  H   UNL     1      49.279   1.753   5.676  0.00  0.00    +0.000 HD
ATOM     14  H   UNL     1      49.001   3.197   6.582  0.00  0.00    +0.000 HD
ENDBRANCH   2  11
ENDBRANCH   1   6
BRANCH   1  15
ATOM     15  C   UNL     1      45.066   4.821  11.978  0.00  0.00    +0.000 C 
BRANCH  15  16
ATOM     16  C   UNL     1      45.670   6.203  12.072  0.00  0.00    +0.000 A 
ATOM     17  C   UNL     1      47.058   6.374  12.033  0.00  0.00    +0.000 A 
ATOM     18  C   UNL     1      47.611   7.648  12.162  0.00  0.00    +0.000 A 
ATOM     19  C   UNL     1      46.787   8.760  12.347  0.00  0.00    +0.000 A 
ATOM     20  C   UNL     1      45.400   8.614  12.398  0.00  0.00    +0.000 A 
ATOM     21  C   UNL     1      44.852   7.333  12.240  0.00  0.00    +0.000 A 
BRANCH  20  22
ATOM     22  N   UNL     1      44.516   9.709  12.542  0.00  0.00    +0.000 N 
ATOM     23  H   UNL     1      43.652   9.376  12.973  0.00  0.00    +0.000 HD
BRANCH  22  24
ATOM     24  C   UNL     1      44.265  10.716  11.540  0.00  0.00    +0.000 C 
ATOM     25  C   UNL     1      42.838  11.299  11.641  0.00  0.00    +0.000 C 
ATOM     26  N   UNL     1      42.656  11.098  10.192  0.00  0.00    +0.000 NA
ATOM     27  C   UNL     1      43.826  10.200  10.158  0.00  0.00    +0.000 C 
ATOM     28  H   UNL     1      42.780  11.953   9.647  0.00  0.00    +0.000 HD
ENDBRANCH  22  24
ENDBRANCH  20  22
ENDBRANCH  15  16
ENDBRANCH   1  15
TORSDOF 6
ENDMDL
MODEL 4
REMARK VINA RESULT:    -7.495      2.286      2.784
REMARK INTER + INTRA:         -10.783
REMARK INTER:                  -9.914
REMARK INTRA:                  -0.869
REMARK UNBOUND:                -0.659
REMARK  Name = 
REMARK  6 active torsions:
REMARK  status: ('A' for Active; 'I' for Inactive)
REMARK    1  A    between atoms: C_2  and  C_4
REMARK    2  A    between atoms: N_8  and  C_9
REMARK    3  A    between atoms: C_9  and  C_10
REMARK    4  A    between atoms: C_10  and  C_11
REMARK    5  A    between atoms: C_15  and  N_16
REMARK    6  A    between atoms: N_16  and  C_17
REMARK                            x       y       z     vdW  Elec       q    Type
REMARK                         _______ _______ _______ _____ _____    ______ ____
ROOT
ATOM      1  C   UNL     1      43.250   3.663  11.140  0.00  0.00    +0.000 C 
ENDROOT
BRANCH   1   6
ATOM      2  C   UNL     1      46.519   2.849   7.331  0.00  0.00    +0.000 A 
ATOM      3  C   UNL     1      46.020   4.050   7.828  0.00  0.00    +0.000 A 
ATOM      4  C   UNL     1      45.277   4.043   9.007  0.00  0.00    +0.000 A 
ATOM      5  C   UNL     1      45.021   2.841   9.658  0.00  0.00    +0.000 A 
ATOM      6  N   UNL     1      44.363   2.761  10.875  0.00  0.00    +0.000 N 
ATOM      7  N   UNL     1      45.467   1.666   9.167  0.00  0.00    +0.000 NA
ATOM      8  C   UNL     1      46.198   1.689   8.019  0.00  0.00    +0.000 A 
ATOM      9  H   UNL     1      44.186   1.773  11.047  0.00  0.00    +0.000 HD
BRANCH   2  11
ATOM     10  N   UNL     1      48.687   2.488   6.300  0.00  0.00    +0.000 N 
ATOM     11  C   UNL     1      47.359   2.769   6.121  0.00  0.00    +0.000 C 
ATOM     12  O   UNL     1      46.886   2.911   5.002  0.00  0.00    +0.000 OA
ATOM     13  H   UNL     1      49.229   2.324   5.462  0.00  0.00    +0.000 HD
ATOM     14  H   UNL     1      49.052   2.120   7.168  0.00  0.00    +0.000 HD
ENDBRANCH   2  11
ENDBRANCH   1   6
BRANCH   1  15
ATOM     15  C   UNL     1      43.420   4.343  12.508  0.00  0.00    +0.000 C 
BRANCH  15  16
ATOM     16  C   UNL     1      44.426   5.470  12.452  0.00  0.00    +0.000 A 
ATOM     17  C   UNL     1      44.179   6.602  11.669  0.00  0.00    +0.000 A 
ATOM     18  C   UNL     1      45.130   7.620  11.589  0.00  0.00    +0.000 A 
ATOM     19  C   UNL     1      46.341   7.510  12.275  0.00  0.00    +0.000 A 
ATOM     20  C   UNL     1      46.615   6.387  13.056  0.00  0.00    +0.000 A 
ATOM     21  C   UNL     1      45.641   5.381  13.152  0.00  0.00    +0.000 A 
BRANCH  20  22
ATOM     22  N   UNL     1      47.805   6.242  13.804  0.00  0.00    +0.000 N 
ATOM     23  H   UNL     1      47.660   5.518  14.512  0.00  0.00    +0.000 HD
BRANCH  22  24
ATOM     24  C   UNL     1      48.617   7.326  14.302  0.00  0.00    +0.000 C 
ATOM     25  C   UNL     1      49.869   7.567  13.432  0.00  0.00    +0.000 C 
ATOM     26  N   UNL     1      50.707   7.578  14.645  0.00  0.00    +0.000 NA
ATOM     27  C   UNL     1      49.611   6.967  15.420  0.00  0.00    +0.000 C 
ATOM     28  H   UNL     1      50.955   8.518  14.956  0.00  0.00    +0.000 HD
ENDBRANCH  22  24
ENDBRANCH  20  22
ENDBRANCH  15  16
ENDBRANCH   1  15
TORSDOF 6
ENDMDL
MODEL 5
REMARK VINA RESULT:    -7.067      3.099      8.410
REMARK INTER + INTRA:         -10.204
REMARK INTER:                  -9.705
REMARK INTRA:                  -0.499
REMARK UNBOUND:                -0.659
REMARK  Name = 
REMARK  6 active torsions:
REMARK  status: ('A' for Active; 'I' for Inactive)
REMARK    1  A    between atoms: C_2  and  C_4
REMARK    2  A    between atoms: N_8  and  C_9
REMARK    3  A    between atoms: C_9  and  C_10
REMARK    4  A    between atoms: C_10  and  C_11
REMARK    5  A    between atoms: C_15  and  N_16
REMARK    6  A    between atoms: N_16  and  C_17
REMARK                            x       y       z     vdW  Elec       q    Type
REMARK                         _______ _______ _______ _____ _____    ______ ____
ROOT
ATOM      1  C   UNL     1      45.749   5.898  12.684  0.00  0.00    +0.000 C 
ENDROOT
BRANCH   1   6
ATOM      2  C   UNL     1      48.396   4.603  16.828  0.00  0.00    +0.000 A 
ATOM      3  C   UNL     1      47.379   3.912  16.176  0.00  0.00    +0.000 A 
ATOM      4  C   UNL     1      46.925   4.374  14.941  0.00  0.00    +0.000 A 
ATOM      5  C   UNL     1      47.470   5.527  14.390  0.00  0.00    +0.000 A 
ATOM      6  N   UNL     1      47.131   6.002  13.132  0.00  0.00    +0.000 N 
ATOM      7  N   UNL     1      48.430   6.228  15.029  0.00  0.00    +0.000 NA
ATOM      8  C   UNL     1      48.869   5.761  16.230  0.00  0.00    +0.000 A 
ATOM      9  H   UNL     1      47.561   6.921  13.042  0.00  0.00    +0.000 HD
BRANCH   2  11
ATOM     10  N   UNL     1      48.136   3.524  18.987  0.00  0.00    +0.000 N 
ATOM     11  C   UNL     1      48.974   4.158  18.110  0.00  0.00    +0.000 C 
ATOM     12  O   UNL     1      50.160   4.316  18.368  0.00  0.00    +0.000 OA
ATOM     13  H   UNL     1      48.565   3.124  19.812  0.00  0.00    +0.000 HD
ATOM     14  H   UNL     1      47.236   3.157  18.709  0.00  0.00    +0.000 HD
ENDBRANCH   2  11
ENDBRANCH   1   6
BRANCH   1  15
ATOM     15  C   UNL     1      45.643   6.218  11.185  0.00  0.00    +0.000 C 
BRANCH  15  16
ATOM     16  C   UNL     1      45.285   4.993  10.374  0.00  0.00    +0.000 A 
ATOM     17  C   UNL     1      44.486   3.987  10.926  0.00  0.00    +0.000 A 
ATOM     18  C   UNL     1      44.194   2.840  10.187  0.00  0.00    +0.000 A 
ATOM     19  C   UNL     1      44.711   2.678   8.900  0.00  0.00    +0.000 A 
ATOM     20  C   UNL     1      45.518   3.664   8.331  0.00  0.00    +0.000 A 
ATOM     21  C   UNL     1      45.783   4.826   9.071  0.00  0.00    +0.000 A 
BRANCH  20  22
ATOM     22  N   UNL     1      46.033   3.573   7.018  0.00  0.00    +0.000 N 
ATOM     23  H   UNL     1      45.411   4.082   6.387  0.00  0.00    +0.000 HD
BRANCH  22  24
ATOM     24  C   UNL     1      46.556   2.375   6.408  0.00  0.00    +0.000 C 
ATOM     25  C   UNL     1      48.019   2.098   6.818  0.00  0.00    +0.000 C 
ATOM     26  N   UNL     1      48.376   1.895   5.402  0.00  0.00    +0.000 NA
ATOM     27  C   UNL     1      47.114   2.531   4.981  0.00  0.00    +0.000 C 
ATOM     28  H   UNL     1      48.445   0.911   5.141  0.00  0.00    +0.000 HD
ENDBRANCH  22  24
ENDBRANCH  20  22
ENDBRANCH  15  16
ENDBRANCH   1  15
TORSDOF 6
ENDMDL
MODEL 6
REMARK VINA RESULT:    -6.644      3.430      8.565
REMARK INTER + INTRA:          -9.633
REMARK INTER:                  -9.265
REMARK INTRA:                  -0.369
REMARK UNBOUND:                -0.659
REMARK  Name = 
REMARK  6 active torsions:
REMARK  status: ('A' for Active; 'I' for Inactive)
REMARK    1  A    between atoms: C_2  and  C_4
REMARK    2  A    between atoms: N_8  and  C_9
REMARK    3  A    between atoms: C_9  and  C_10
REMARK    4  A    between atoms: C_10  and  C_11
REMARK    5  A    between atoms: C_15  and  N_16
REMARK    6  A    between atoms: N_16  and  C_17
REMARK                            x       y       z     vdW  Elec       q    Type
REMARK                         _______ _______ _______ _____ _____    ______ ____
ROOT
ATOM      1  C   UNL     1      47.292   5.304  13.516  0.00  0.00    +0.000 C 
ENDROOT
BRANCH   1   6
ATOM      2  C   UNL     1      48.738   4.570  18.336  0.00  0.00    +0.000 A 
ATOM      3  C   UNL     1      48.928   5.677  17.514  0.00  0.00    +0.000 A 
ATOM      4  C   UNL     1      48.277   5.730  16.282  0.00  0.00    +0.000 A 
ATOM      5  C   UNL     1      47.469   4.673  15.879  0.00  0.00    +0.000 A 
ATOM      6  N   UNL     1      46.725   4.689  14.709  0.00  0.00    +0.000 N 
ATOM      7  N   UNL     1      47.306   3.578  16.650  0.00  0.00    +0.000 NA
ATOM      8  C   UNL     1      47.941   3.543  17.853  0.00  0.00    +0.000 A 
ATOM      9  H   UNL     1      46.349   3.750  14.590  0.00  0.00    +0.000 HD
BRANCH   2  11
ATOM     10  N   UNL     1      48.550   3.962  20.679  0.00  0.00    +0.000 N 
ATOM     11  C   UNL     1      49.343   4.452  19.676  0.00  0.00    +0.000 C 
ATOM     12  O   UNL     1      50.513   4.745  19.879  0.00  0.00    +0.000 OA
ATOM     13  H   UNL     1      49.005   3.780  21.564  0.00  0.00    +0.000 HD
ATOM     14  H   UNL     1      47.680   3.481  20.497  0.00  0.00    +0.000 HD
ENDBRANCH   2  11
ENDBRANCH   1   6
BRANCH   1  15
ATOM     15  C   UNL     1      46.360   6.403  12.982  0.00  0.00    +0.000 C 
BRANCH  15  16
ATOM     16  C   UNL     1      45.205   5.827  12.196  0.00  0.00    +0.000 A 
ATOM     17  C   UNL     1      43.966   5.613  12.810  0.00  0.00    +0.000 A 
ATOM     18  C   UNL     1      42.916   5.042  12.090  0.00  0.00    +0.000 A 
ATOM     19  C   UNL     1      43.098   4.662  10.758  0.00  0.00    +0.000 A 
ATOM     20  C   UNL     1      44.327   4.857  10.126  0.00  0.00    +0.000 A 
ATOM     21  C   UNL     1      45.368   5.457  10.850  0.00  0.00    +0.000 A 
BRANCH  20  22
ATOM     22  N   UNL     1      44.554   4.531   8.769  0.00  0.00    +0.000 N 
ATOM     23  H   UNL     1      43.974   5.137   8.187  0.00  0.00    +0.000 HD
BRANCH  22  24
ATOM     24  C   UNL     1      44.642   3.194   8.235  0.00  0.00    +0.000 C 
ATOM     25  C   UNL     1      44.852   2.134   9.339  0.00  0.00    +0.000 C 
ATOM     26  N   UNL     1      45.960   1.549   8.563  0.00  0.00    +0.000 NA
ATOM     27  C   UNL     1      46.027   2.760   7.724  0.00  0.00    +0.000 C 
ATOM     28  H   UNL     1      45.693   0.708   8.049  0.00  0.00    +0.000 HD
ENDBRANCH  22  24
ENDBRANCH  20  22
ENDBRANCH  15  16
ENDBRANCH   1  15
TORSDOF 6
ENDMDL
MODEL 7
REMARK VINA RESULT:    -6.432      3.119      5.604
REMARK INTER + INTRA:          -9.347
REMARK INTER:                  -8.646
REMARK INTRA:                  -0.701
REMARK UNBOUND:                -0.659
REMARK  Name = 
REMARK  6 active torsions:
REMARK  status: ('A' for Active; 'I' for Inactive)
REMARK    1  A    between atoms: C_2  and  C_4
REMARK    2  A    between atoms: N_8  and  C_9
REMARK    3  A    between atoms: C_9  and  C_10
REMARK    4  A    between atoms: C_10  and  C_11
REMARK    5  A    between atoms: C_15  and  N_16
REMARK    6  A    between atoms: N_16  and  C_17
REMARK                            x       y       z     vdW  Elec       q    Type
REMARK                         _______ _______ _______ _____ _____    ______ ____
ROOT
ATOM      1  C   UNL     1      48.580   6.635  14.446  0.00  0.00    +0.000 C 
ENDROOT
BRANCH   1   6
ATOM      2  C   UNL     1      44.833   4.880  11.490  0.00  0.00    +0.000 A 
ATOM      3  C   UNL     1      45.523   4.242  12.516  0.00  0.00    +0.000 A 
ATOM      4  C   UNL     1      46.387   4.984  13.320  0.00  0.00    +0.000 A 
ATOM      5  C   UNL     1      46.569   6.340  13.074  0.00  0.00    +0.000 A 
ATOM      6  N   UNL     1      47.345   7.161  13.878  0.00  0.00    +0.000 N 
ATOM      7  N   UNL     1      45.935   6.963  12.059  0.00  0.00    +0.000 NA
ATOM      8  C   UNL     1      45.089   6.227  11.287  0.00  0.00    +0.000 A 
ATOM      9  H   UNL     1      47.421   8.054  13.396  0.00  0.00    +0.000 HD
BRANCH   2  11
ATOM     10  N   UNL     1      43.862   4.514   9.295  0.00  0.00    +0.000 N 
ATOM     11  C   UNL     1      43.860   4.186  10.625  0.00  0.00    +0.000 C 
ATOM     12  O   UNL     1      43.107   3.329  11.066  0.00  0.00    +0.000 OA
ATOM     13  H   UNL     1      43.271   3.955   8.693  0.00  0.00    +0.000 HD
ATOM     14  H   UNL     1      44.624   5.016   8.860  0.00  0.00    +0.000 HD
ENDBRANCH   2  11
ENDBRANCH   1   6
BRANCH   1  15
ATOM     15  C   UNL     1      48.563   6.756  15.978  0.00  0.00    +0.000 C 
BRANCH  15  16
ATOM     16  C   UNL     1      48.579   5.402  16.648  0.00  0.00    +0.000 A 
ATOM     17  C   UNL     1      47.413   4.631  16.716  0.00  0.00    +0.000 A 
ATOM     18  C   UNL     1      47.424   3.399  17.372  0.00  0.00    +0.000 A 
ATOM     19  C   UNL     1      48.592   2.934  17.981  0.00  0.00    +0.000 A 
ATOM     20  C   UNL     1      49.765   3.689  17.934  0.00  0.00    +0.000 A 
ATOM     21  C   UNL     1      49.751   4.913  17.248  0.00  0.00    +0.000 A 
BRANCH  20  22
ATOM     22  N   UNL     1      50.986   3.249  18.496  0.00  0.00    +0.000 N 
ATOM     23  H   UNL     1      51.340   3.978  19.118  0.00  0.00    +0.000 HD
BRANCH  22  24
ATOM     24  C   UNL     1      52.049   2.593  17.774  0.00  0.00    +0.000 C 
ATOM     25  C   UNL     1      51.827   1.069  17.661  0.00  0.00    +0.000 C 
ATOM     26  N   UNL     1      53.210   0.836  18.117  0.00  0.00    +0.000 NA
ATOM     27  C   UNL     1      53.298   2.228  18.597  0.00  0.00    +0.000 C 
ATOM     28  H   UNL     1      53.856   0.624  17.355  0.00  0.00    +0.000 HD
ENDBRANCH  22  24
ENDBRANCH  20  22
ENDBRANCH  15  16
ENDBRANCH   1  15
TORSDOF 6
ENDMDL
MODEL 8
REMARK VINA RESULT:    -6.366      3.499      7.637
REMARK INTER + INTRA:          -9.258
REMARK INTER:                  -8.501
REMARK INTRA:                  -0.757
REMARK UNBOUND:                -0.659
REMARK  Name = 
REMARK  6 active torsions:
REMARK  status: ('A' for Active; 'I' for Inactive)
REMARK    1  A    between atoms: C_2  and  C_4
REMARK    2  A    between atoms: N_8  and  C_9
REMARK    3  A    between atoms: C_9  and  C_10
REMARK    4  A    between atoms: C_10  and  C_11
REMARK    5  A    between atoms: C_15  and  N_16
REMARK    6  A    between atoms: N_16  and  C_17
REMARK                            x       y       z     vdW  Elec       q    Type
REMARK                         _______ _______ _______ _____ _____    ______ ____
ROOT
ATOM      1  C   UNL     1      49.059   8.346  13.683  0.00  0.00    +0.000 C 
ENDROOT
BRANCH   1   6
ATOM      2  C   UNL     1      48.067   4.458  16.807  0.00  0.00    +0.000 A 
ATOM      3  C   UNL     1      47.388   4.870  15.664  0.00  0.00    +0.000 A 
ATOM      4  C   UNL     1      47.953   5.854  14.854  0.00  0.00    +0.000 A 
ATOM      5  C   UNL     1      49.168   6.429  15.208  0.00  0.00    +0.000 A 
ATOM      6  N   UNL     1      49.833   7.351  14.413  0.00  0.00    +0.000 N 
ATOM      7  N   UNL     1      49.818   6.066  16.333  0.00  0.00    +0.000 NA
ATOM      8  C   UNL     1      49.259   5.099  17.110  0.00  0.00    +0.000 A 
ATOM      9  H   UNL     1      50.608   7.709  14.968  0.00  0.00    +0.000 HD
BRANCH   2  11
ATOM     10  N   UNL     1      48.297   3.127  18.824  0.00  0.00    +0.000 N 
ATOM     11  C   UNL     1      47.571   3.388  17.693  0.00  0.00    +0.000 C 
ATOM     12  O   UNL     1      46.537   2.782  17.449  0.00  0.00    +0.000 OA
ATOM     13  H   UNL     1      47.890   2.471  19.479  0.00  0.00    +0.000 HD
ATOM     14  H   UNL     1      48.996   3.764  19.180  0.00  0.00    +0.000 HD
ENDBRANCH   2  11
ENDBRANCH   1   6
BRANCH   1  15
ATOM     15  C   UNL     1      48.801   7.877  12.243  0.00  0.00    +0.000 C 
BRANCH  15  16
ATOM     16  C   UNL     1      47.324   7.835  11.922  0.00  0.00    +0.000 A 
ATOM     17  C   UNL     1      46.507   8.937  12.199  0.00  0.00    +0.000 A 
ATOM     18  C   UNL     1      45.137   8.876  11.939  0.00  0.00    +0.000 A 
ATOM     19  C   UNL     1      44.568   7.712  11.419  0.00  0.00    +0.000 A 
ATOM     20  C   UNL     1      45.361   6.598  11.142  0.00  0.00    +0.000 A 
ATOM     21  C   UNL     1      46.741   6.678  11.381  0.00  0.00    +0.000 A 
BRANCH  20  22
ATOM     22  N   UNL     1      44.845   5.409  10.576  0.00  0.00    +0.000 N 
ATOM     23  H   UNL     1      43.996   5.637  10.057  0.00  0.00    +0.000 HD
BRANCH  22  24
ATOM     24  C   UNL     1      44.738   4.140  11.253  0.00  0.00    +0.000 C 
ATOM     25  C   UNL     1      44.689   2.952  10.268  0.00  0.00    +0.000 C 
ATOM     26  N   UNL     1      43.517   2.412  10.981  0.00  0.00    +0.000 NA
ATOM     27  C   UNL     1      43.317   3.707  11.657  0.00  0.00    +0.000 C 
ATOM     28  H   UNL     1      43.749   1.649  11.619  0.00  0.00    +0.000 HD
ENDBRANCH  22  24
ENDBRANCH  20  22
ENDBRANCH  15  16
ENDBRANCH   1  15
TORSDOF 6
ENDMDL
MODEL 9
REMARK VINA RESULT:    -6.344      3.427      5.303
REMARK INTER + INTRA:          -9.228
REMARK INTER:                  -8.636
REMARK INTRA:                  -0.592
REMARK UNBOUND:                -0.659
REMARK  Name = 
REMARK  6 active torsions:
REMARK  status: ('A' for Active; 'I' for Inactive)
REMARK    1  A    between atoms: C_2  and  C_4
REMARK    2  A    between atoms: N_8  and  C_9
REMARK    3  A    between atoms: C_9  and  C_10
REMARK    4  A    between atoms: C_10  and  C_11
REMARK    5  A    between atoms: C_15  and  N_16
REMARK    6  A    between atoms: N_16  and  C_17
REMARK                            x       y       z     vdW  Elec       q    Type
REMARK                         _______ _______ _______ _____ _____    ______ ____
ROOT
ATOM      1  C   UNL     1      49.103   7.315  13.082  0.00  0.00    +0.000 C 
ENDROOT
BRANCH   1   6
ATOM      2  C   UNL     1      44.945   4.566  12.075  0.00  0.00    +0.000 A 
ATOM      3  C   UNL     1      45.687   4.650  13.249  0.00  0.00    +0.000 A 
ATOM      4  C   UNL     1      46.685   5.618  13.357  0.00  0.00    +0.000 A 
ATOM      5  C   UNL     1      46.944   6.467  12.287  0.00  0.00    +0.000 A 
ATOM      6  N   UNL     1      47.860   7.506  12.346  0.00  0.00    +0.000 N 
ATOM      7  N   UNL     1      46.258   6.372  11.129  0.00  0.00    +0.000 NA
ATOM      8  C   UNL     1      45.282   5.427  11.041  0.00  0.00    +0.000 A 
ATOM      9  H   UNL     1      47.955   7.866  11.399  0.00  0.00    +0.000 HD
BRANCH   2  11
ATOM     10  N   UNL     1      43.941   2.404  12.534  0.00  0.00    +0.000 N 
ATOM     11  C   UNL     1      43.837   3.609  11.892  0.00  0.00    +0.000 C 
ATOM     12  O   UNL     1      42.850   3.891  11.227  0.00  0.00    +0.000 OA
ATOM     13  H   UNL     1      43.128   1.802  12.494  0.00  0.00    +0.000 HD
ATOM     14  H   UNL     1      44.603   2.241  13.280  0.00  0.00    +0.000 HD
ENDBRANCH   2  11
ENDBRANCH   1   6
BRANCH   1  15
ATOM     15  C   UNL     1      49.015   7.970  14.469  0.00  0.00    +0.000 C 
BRANCH  15  16
ATOM     16  C   UNL     1      49.721   7.149  15.523  0.00  0.00    +0.000 A 
ATOM     17  C   UNL     1      51.102   7.274  15.712  0.00  0.00    +0.000 A 
ATOM     18  C   UNL     1      51.755   6.484  16.659  0.00  0.00    +0.000 A 
ATOM     19  C   UNL     1      51.040   5.549  17.411  0.00  0.00    +0.000 A 
ATOM     20  C   UNL     1      49.664   5.400  17.235  0.00  0.00    +0.000 A 
ATOM     21  C   UNL     1      49.013   6.218  16.301  0.00  0.00    +0.000 A 
BRANCH  20  22
ATOM     22  N   UNL     1      48.884   4.500  17.998  0.00  0.00    +0.000 N 
ATOM     23  H   UNL     1      49.098   4.641  18.987  0.00  0.00    +0.000 HD
BRANCH  22  24
ATOM     24  C   UNL     1      48.672   3.108  17.687  0.00  0.00    +0.000 C 
ATOM     25  C   UNL     1      49.962   2.413  17.198  0.00  0.00    +0.000 C 
ATOM     26  N   UNL     1      49.223   1.852  16.052  0.00  0.00    +0.000 NA
ATOM     27  C   UNL     1      48.121   2.806  16.281  0.00  0.00    +0.000 C 
ATOM     28  H   UNL     1      48.954   0.876  16.184  0.00  0.00    +0.000 HD
ENDBRANCH  22  24
ENDBRANCH  20  22
ENDBRANCH  15  16
ENDBRANCH   1  15
TORSDOF 6
ENDMDL
