MODEL 1
REMARK VINA RESULT:    -7.305      0.000      0.000
REMARK INTER + INTRA:          -9.684
REMARK INTER:                  -9.014
REMARK INTRA:                  -0.670
REMARK UNBOUND:                -0.670
REMARK  Name = 
REMARK  5 active torsions:
REMARK  status: ('A' for Active; 'I' for Inactive)
REMARK    1  A    between atoms: C_2  and  O_3
REMARK    2  A    between atoms: C_2  and  C_4
REMARK    3  A    between atoms: C_7  and  C_8
REMARK    4  A    between atoms: C_8  and  O_9
REMARK    5  A    between atoms: N_12  and  C_13
REMARK                            x       y       z     vdW  Elec       q    Type
REMARK                         _______ _______ _______ _____ _____    ______ ____
ROOT
ATOM      1  C   UNL     1      45.102   4.097   9.680  0.00  0.00    +0.000 C 
ATOM      2  C   UNL     1      45.872   5.408   9.913  0.00  0.00    +0.000 C 
ATOM      3  C   UNL     1      45.400   6.098  11.187  0.00  0.00    +0.000 C 
ATOM      4  N   UNL     1      45.511   5.162  12.309  0.00  0.00    +0.000 N 
ATOM      5  C   UNL     1      44.679   3.962  12.187  0.00  0.00    +0.000 C 
ATOM      6  C   UNL     1      45.103   3.199  10.934  0.00  0.00    +0.000 C 
ENDROOT
BRANCH   1  10
ATOM      7  C   UNL     1      46.768   1.882   6.408  0.00  0.00    +0.000 A 
ATOM      8  C   UNL     1      46.514   3.240   6.229  0.00  0.00    +0.000 A 
ATOM      9  C   UNL     1      45.967   3.974   7.279  0.00  0.00    +0.000 A 
ATOM     10  C   UNL     1      45.667   3.330   8.483  0.00  0.00    +0.000 A 
ATOM     11  N   UNL     1      45.870   1.992   8.653  0.00  0.00    +0.000 NA
ATOM     12  C   UNL     1      46.413   1.301   7.615  0.00  0.00    +0.000 A 
BRANCH   7  14
ATOM     13  O   UNL     1      46.964  -0.081   5.100  0.00  0.00    +0.000 OA
ATOM     14  C   UNL     1      47.371   1.037   5.361  0.00  0.00    +0.000 C 
BRANCH  14  15
ATOM     15  O   UNL     1      48.434   1.601   4.753  0.00  0.00    +0.000 OA
ATOM     16  H   UNL     1      48.570   1.360   3.818  0.00  0.00    +0.000 HD
ENDBRANCH  14  15
ENDBRANCH   7  14
ENDBRANCH   1  10
BRANCH   4  17
ATOM     17  C   UNL     1      46.387   5.355  13.359  0.00  0.00    +0.000 A 
ATOM     18  C   UNL     1      47.250   6.456  13.404  0.00  0.00    +0.000 A 
ATOM     19  C   UNL     1      48.121   6.613  14.475  0.00  0.00    +0.000 A 
ATOM     20  N   UNL     1      48.197   5.760  15.514  0.00  0.00    +0.000 NA
ATOM     21  C   UNL     1      47.371   4.700  15.465  0.00  0.00    +0.000 A 
ATOM     22  C   UNL     1      46.474   4.461  14.430  0.00  0.00    +0.000 A 
ENDBRANCH   4  17
BRANCH   1  23
ATOM     23  O   UNL     1      43.736   4.458   9.400  0.00  0.00    +0.000 OA
ATOM     24  H   UNL     1      43.193   3.874   9.971  0.00  0.00    +0.000 HD
ENDBRANCH   1  23
TORSDOF 5
ENDMDL
MODEL 2
REMARK VINA RESULT:    -6.842      1.934      2.570
REMARK INTER + INTRA:          -9.112
REMARK INTER:                  -8.450
REMARK INTRA:                  -0.662
REMARK UNBOUND:                -0.670
REMARK  Name = 
REMARK  5 active torsions:
REMARK  status: ('A' for Active; 'I' for Inactive)
REMARK    1  A    between atoms: C_2  and  O_3
REMARK    2  A    between atoms: C_2  and  C_4
REMARK    3  A    between atoms: C_7  and  C_8
REMARK    4  A    between atoms: C_8  and  O_9
REMARK    5  A    between atoms: N_12  and  C_13
REMARK                            x       y       z     vdW  Elec       q    Type
REMARK                         _______ _______ _______ _____ _____    ______ ____
ROOT
ATOM      1  C   UNL     1      44.747   3.449   9.974  0.00  0.00    +0.000 C 
ATOM      2  C   UNL     1      43.881   4.657   9.582  0.00  0.00    +0.000 C 
ATOM      3  C   UNL     1      43.321   5.351  10.818  0.00  0.00    +0.000 C 
ATOM      4  N   UNL     1      44.426   5.705  11.712  0.00  0.00    +0.000 N 
ATOM      5  C   UNL     1      45.190   4.563  12.221  0.00  0.00    +0.000 C 
ATOM      6  C   UNL     1      45.803   3.819  11.037  0.00  0.00    +0.000 C 
ENDROOT
BRANCH   1  10
ATOM      7  C   UNL     1      46.739   1.664   6.622  0.00  0.00    +0.000 A 
ATOM      8  C   UNL     1      46.357   3.001   6.533  0.00  0.00    +0.000 A 
ATOM      9  C   UNL     1      45.703   3.595   7.610  0.00  0.00    +0.000 A 
ATOM     10  C   UNL     1      45.427   2.834   8.749  0.00  0.00    +0.000 A 
ATOM     11  N   UNL     1      45.757   1.514   8.830  0.00  0.00    +0.000 NA
ATOM     12  C   UNL     1      46.402   0.960   7.768  0.00  0.00    +0.000 A 
BRANCH   7  14
ATOM     13  O   UNL     1      47.107  -0.116   5.107  0.00  0.00    +0.000 OA
ATOM     14  C   UNL     1      47.460   0.965   5.542  0.00  0.00    +0.000 C 
BRANCH  14  15
ATOM     15  O   UNL     1      48.561   1.615   5.116  0.00  0.00    +0.000 OA
ATOM     16  H   UNL     1      48.559   1.890   4.180  0.00  0.00    +0.000 HD
ENDBRANCH  14  15
ENDBRANCH   7  14
ENDBRANCH   1  10
BRANCH   4  17
ATOM     17  C   UNL     1      44.771   7.013  11.990  0.00  0.00    +0.000 A 
ATOM     18  C   UNL     1      45.722   7.331  12.966  0.00  0.00    +0.000 A 
ATOM     19  C   UNL     1      46.038   8.660  13.221  0.00  0.00    +0.000 A 
ATOM     20  N   UNL     1      45.485   9.703  12.573  0.00  0.00    +0.000 NA
ATOM     21  C   UNL     1      44.566   9.394  11.640  0.00  0.00    +0.000 A 
ATOM     22  C   UNL     1      44.185   8.095  11.325  0.00  0.00    +0.000 A 
ENDBRANCH   4  17
BRANCH   1  23
ATOM     23  O   UNL     1      43.864   2.471  10.556  0.00  0.00    +0.000 OA
ATOM     24  H   UNL     1      44.313   1.609  10.426  0.00  0.00    +0.000 HD
ENDBRANCH   1  23
TORSDOF 5
ENDMDL
MODEL 3
REMARK VINA RESULT:    -6.776      3.089      7.778
REMARK INTER + INTRA:          -9.031
REMARK INTER:                  -8.379
REMARK INTRA:                  -0.652
REMARK UNBOUND:                -0.670
REMARK  Name = 
REMARK  5 active torsions:
REMARK  status: ('A' for Active; 'I' for Inactive)
REMARK    1  A    between atoms: C_2  and  O_3
REMARK    2  A    between atoms: C_2  and  C_4
REMARK    3  A    between atoms: C_7  and  C_8
REMARK    4  A    between atoms: C_8  and  O_9
REMARK    5  A    between atoms: N_12  and  C_13
REMARK                            x       y       z     vdW  Elec       q    Type
REMARK                         _______ _______ _______ _____ _____    ______ ____
ROOT
ATOM      1  C   UNL     1      45.424   4.671  11.779  0.00  0.00    +0.000 C 
ATOM      2  C   UNL     1      45.291   3.158  11.544  0.00  0.00    +0.000 C 
ATOM      3  C   UNL     1      44.545   2.871  10.246  0.00  0.00    +0.000 C 
ATOM      4  N   UNL     1      45.214   3.565   9.144  0.00  0.00    +0.000 N 
ATOM      5  C   UNL     1      45.236   5.025   9.264  0.00  0.00    +0.000 C 
ATOM      6  C   UNL     1      45.987   5.399  10.540  0.00  0.00    +0.000 C 
ENDROOT
BRANCH   1  10
ATOM      7  C   UNL     1      47.760   5.461  15.287  0.00  0.00    +0.000 A 
ATOM      8  C   UNL     1      47.813   6.372  14.235  0.00  0.00    +0.000 A 
ATOM      9  C   UNL     1      47.066   6.128  13.085  0.00  0.00    +0.000 A 
ATOM     10  C   UNL     1      46.294   4.967  13.003  0.00  0.00    +0.000 A 
ATOM     11  N   UNL     1      46.268   4.046  14.008  0.00  0.00    +0.000 NA
ATOM     12  C   UNL     1      47.001   4.313  15.123  0.00  0.00    +0.000 A 
BRANCH   7  14
ATOM     13  O   UNL     1      49.687   5.431  16.660  0.00  0.00    +0.000 OA
ATOM     14  C   UNL     1      48.495   5.654  16.551  0.00  0.00    +0.000 C 
BRANCH  14  15
ATOM     15  O   UNL     1      47.718   6.060  17.575  0.00  0.00    +0.000 OA
ATOM     16  H   UNL     1      48.111   6.722  18.173  0.00  0.00    +0.000 HD
ENDBRANCH  14  15
ENDBRANCH   7  14
ENDBRANCH   1  10
BRANCH   4  17
ATOM     17  C   UNL     1      45.845   2.895   8.114  0.00  0.00    +0.000 A 
ATOM     18  C   UNL     1      46.226   1.554   8.233  0.00  0.00    +0.000 A 
ATOM     19  C   UNL     1      46.863   0.916   7.175  0.00  0.00    +0.000 A 
ATOM     20  N   UNL     1      47.146   1.508   5.999  0.00  0.00    +0.000 NA
ATOM     21  C   UNL     1      46.783   2.799   5.890  0.00  0.00    +0.000 A 
ATOM     22  C   UNL     1      46.149   3.516   6.898  0.00  0.00    +0.000 A 
ENDBRANCH   4  17
BRANCH   1  23
ATOM     23  O   UNL     1      44.096   5.176  12.018  0.00  0.00    +0.000 OA
ATOM     24  H   UNL     1      44.092   5.452  12.959  0.00  0.00    +0.000 HD
ENDBRANCH   1  23
TORSDOF 5
ENDMDL
MODEL 4
REMARK VINA RESULT:    -6.374      2.428      3.517
REMARK INTER + INTRA:          -8.535
REMARK INTER:                  -7.870
REMARK INTRA:                  -0.665
REMARK UNBOUND:                -0.670
REMARK  Name = 
REMARK  5 active torsions:
REMARK  status: ('A' for Active; 'I' for Inactive)
REMARK    1  A    between atoms: C_2  and  O_3
REMARK    2  A    between atoms: C_2  and  C_4
REMARK    3  A    between atoms: C_7  and  C_8
REMARK    4  A    between atoms: C_8  and  O_9
REMARK    5  A    between atoms: N_12  and  C_13
REMARK                            x       y       z     vdW  Elec       q    Type
REMARK                         _______ _______ _______ _____ _____    ______ ____
ROOT
ATOM      1  C   UNL     1      44.929   4.222  10.318  0.00  0.00    +0.000 C 
ATOM      2  C   UNL     1      43.651   4.968   9.901  0.00  0.00    +0.000 C 
ATOM      3  C   UNL     1      43.102   5.796  11.057  0.00  0.00    +0.000 C 
ATOM      4  N   UNL     1      44.152   6.691  11.548  0.00  0.00    +0.000 N 
ATOM      5  C   UNL     1      45.332   6.009  12.087  0.00  0.00    +0.000 C 
ATOM      6  C   UNL     1      45.957   5.165  10.978  0.00  0.00    +0.000 C 
ENDROOT
BRANCH   1  10
ATOM      7  C   UNL     1      46.773   2.126   7.063  0.00  0.00    +0.000 A 
ATOM      8  C   UNL     1      46.701   3.516   7.002  0.00  0.00    +0.000 A 
ATOM      9  C   UNL     1      46.099   4.213   8.048  0.00  0.00    +0.000 A 
ATOM     10  C   UNL     1      45.564   3.503   9.126  0.00  0.00    +0.000 A 
ATOM     11  N   UNL     1      45.590   2.141   9.175  0.00  0.00    +0.000 NA
ATOM     12  C   UNL     1      46.190   1.486   8.145  0.00  0.00    +0.000 A 
BRANCH   7  14
ATOM     13  O   UNL     1      47.026   0.199   5.713  0.00  0.00    +0.000 OA
ATOM     14  C   UNL     1      47.416   1.313   6.015  0.00  0.00    +0.000 C 
BRANCH  14  15
ATOM     15  O   UNL     1      48.494   1.900   5.457  0.00  0.00    +0.000 OA
ATOM     16  H   UNL     1      48.313   2.668   4.884  0.00  0.00    +0.000 HD
ENDBRANCH  14  15
ENDBRANCH   7  14
ENDBRANCH   1  10
BRANCH   4  17
ATOM     17  C   UNL     1      44.072   8.065  11.441  0.00  0.00    +0.000 A 
ATOM     18  C   UNL     1      45.064   8.903  11.963  0.00  0.00    +0.000 A 
ATOM     19  C   UNL     1      44.945  10.282  11.840  0.00  0.00    +0.000 A 
ATOM     20  N   UNL     1      43.915  10.897  11.228  0.00  0.00    +0.000 NA
ATOM     21  C   UNL     1      42.960  10.089  10.733  0.00  0.00    +0.000 A 
ATOM     22  C   UNL     1      42.994   8.702  10.817  0.00  0.00    +0.000 A 
ENDBRANCH   4  17
BRANCH   1  23
ATOM     23  O   UNL     1      44.540   3.242  11.300  0.00  0.00    +0.000 OA
ATOM     24  H   UNL     1      45.361   3.034  11.795  0.00  0.00    +0.000 HD
ENDBRANCH   1  23
TORSDOF 5
ENDMDL
MODEL 5
REMARK VINA RESULT:    -6.221      3.145      7.752
REMARK INTER + INTRA:          -8.345
REMARK INTER:                  -7.684
REMARK INTRA:                  -0.662
REMARK UNBOUND:                -0.670
REMARK  Name = 
REMARK  5 active torsions:
REMARK  status: ('A' for Active; 'I' for Inactive)
REMARK    1  A    between atoms: C_2  and  O_3
REMARK    2  A    between atoms: C_2  and  C_4
REMARK    3  A    between atoms: C_7  and  C_8
REMARK    4  A    between atoms: C_8  and  O_9
REMARK    5  A    between atoms: N_12  and  C_13
REMARK                            x       y       z     vdW  Elec       q    Type
REMARK                         _______ _______ _______ _____ _____    ______ ____
ROOT
ATOM      1  C   UNL     1      45.123   5.163  11.254  0.00  0.00    +0.000 C 
ATOM      2  C   UNL     1      45.395   3.673  11.519  0.00  0.00    +0.000 C 
ATOM      3  C   UNL     1      44.709   2.799  10.475  0.00  0.00    +0.000 C 
ATOM      4  N   UNL     1      45.128   3.229   9.139  0.00  0.00    +0.000 N 
ATOM      5  C   UNL     1      44.759   4.605   8.796  0.00  0.00    +0.000 C 
ATOM      6  C   UNL     1      45.426   5.552   9.791  0.00  0.00    +0.000 C 
ENDROOT
BRANCH   1  10
ATOM      7  C   UNL     1      47.365   7.745  13.841  0.00  0.00    +0.000 A 
ATOM      8  C   UNL     1      47.725   6.401  13.771  0.00  0.00    +0.000 A 
ATOM      9  C   UNL     1      47.003   5.546  12.940  0.00  0.00    +0.000 A 
ATOM     10  C   UNL     1      45.923   6.050  12.210  0.00  0.00    +0.000 A 
ATOM     11  N   UNL     1      45.535   7.353  12.305  0.00  0.00    +0.000 NA
ATOM     12  C   UNL     1      46.262   8.168  13.117  0.00  0.00    +0.000 A 
BRANCH   7  14
ATOM     13  O   UNL     1      49.258   9.015  14.479  0.00  0.00    +0.000 OA
ATOM     14  C   UNL     1      48.091   8.724  14.671  0.00  0.00    +0.000 C 
BRANCH  14  15
ATOM     15  O   UNL     1      47.355   9.231  15.681  0.00  0.00    +0.000 OA
ATOM     16  H   UNL     1      47.722  10.019  16.123  0.00  0.00    +0.000 HD
ENDBRANCH  14  15
ENDBRANCH   7  14
ENDBRANCH   1  10
BRANCH   4  17
ATOM     17  C   UNL     1      45.879   2.430   8.300  0.00  0.00    +0.000 A 
ATOM     18  C   UNL     1      45.904   1.037   8.436  0.00  0.00    +0.000 A 
ATOM     19  C   UNL     1      46.677   0.268   7.575  0.00  0.00    +0.000 A 
ATOM     20  N   UNL     1      47.425   0.777   6.579  0.00  0.00    +0.000 NA
ATOM     21  C   UNL     1      47.405   2.116   6.454  0.00  0.00    +0.000 A 
ATOM     22  C   UNL     1      46.667   2.961   7.274  0.00  0.00    +0.000 A 
ENDBRANCH   4  17
BRANCH   1  23
ATOM     23  O   UNL     1      43.718   5.379  11.483  0.00  0.00    +0.000 OA
ATOM     24  H   UNL     1      43.277   5.113  10.648  0.00  0.00    +0.000 HD
ENDBRANCH   1  23
TORSDOF 5
ENDMDL
MODEL 6
REMARK VINA RESULT:    -6.033      3.763      6.094
REMARK INTER + INTRA:          -8.115
REMARK INTER:                  -7.453
REMARK INTRA:                  -0.661
REMARK UNBOUND:                -0.670
REMARK  Name = 
REMARK  5 active torsions:
REMARK  status: ('A' for Active; 'I' for Inactive)
REMARK    1  A    between atoms: C_2  and  O_3
REMARK    2  A    between atoms: C_2  and  C_4
REMARK    3  A    between atoms: C_7  and  C_8
REMARK    4  A    between atoms: C_8  and  O_9
REMARK    5  A    between atoms: N_12  and  C_13
REMARK                            x       y       z     vdW  Elec       q    Type
REMARK                         _______ _______ _______ _____ _____    ______ ____
ROOT
ATOM      1  C   UNL     1      47.974   6.642  13.678  0.00  0.00    +0.000 C 
ATOM      2  C   UNL     1      48.045   5.926  15.037  0.00  0.00    +0.000 C 
ATOM      3  C   UNL     1      49.054   6.602  15.958  0.00  0.00    +0.000 C 
ATOM      4  N   UNL     1      48.718   8.023  16.077  0.00  0.00    +0.000 N 
ATOM      5  C   UNL     1      48.778   8.772  14.819  0.00  0.00    +0.000 C 
ATOM      6  C   UNL     1      47.777   8.165  13.840  0.00  0.00    +0.000 C 
ENDROOT
BRANCH   1  10
ATOM      7  C   UNL     1      44.897   4.882  11.265  0.00  0.00    +0.000 A 
ATOM      8  C   UNL     1      45.666   5.907  10.717  0.00  0.00    +0.000 A 
ATOM      9  C   UNL     1      46.666   6.495  11.489  0.00  0.00    +0.000 A 
ATOM     10  C   UNL     1      46.864   6.058  12.802  0.00  0.00    +0.000 A 
ATOM     11  N   UNL     1      46.088   5.087  13.362  0.00  0.00    +0.000 NA
ATOM     12  C   UNL     1      45.125   4.525  12.584  0.00  0.00    +0.000 A 
BRANCH   7  14
ATOM     13  O   UNL     1      43.218   3.242  10.964  0.00  0.00    +0.000 OA
ATOM     14  C   UNL     1      43.838   4.187  10.510  0.00  0.00    +0.000 C 
BRANCH  14  15
ATOM     15  O   UNL     1      43.654   4.668   9.265  0.00  0.00    +0.000 OA
ATOM     16  H   UNL     1      43.414   4.012   8.584  0.00  0.00    +0.000 HD
ENDBRANCH  14  15
ENDBRANCH   7  14
ENDBRANCH   1  10
BRANCH   4  17
ATOM     17  C   UNL     1      48.301   8.594  17.263  0.00  0.00    +0.000 A 
ATOM     18  C   UNL     1      48.082   7.826  18.412  0.00  0.00    +0.000 A 
ATOM     19  C   UNL     1      47.657   8.437  19.586  0.00  0.00    +0.000 A 
ATOM     20  N   UNL     1      47.440   9.760  19.709  0.00  0.00    +0.000 NA
ATOM     21  C   UNL     1      47.645  10.495  18.601  0.00  0.00    +0.000 A 
ATOM     22  C   UNL     1      48.063   9.966  17.385  0.00  0.00    +0.000 A 
ENDBRANCH   4  17
BRANCH   1  23
ATOM     23  O   UNL     1      49.241   6.432  13.027  0.00  0.00    +0.000 OA
ATOM     24  H   UNL     1      49.029   6.340  12.073  0.00  0.00    +0.000 HD
ENDBRANCH   1  23
TORSDOF 5
ENDMDL
MODEL 7
REMARK VINA RESULT:    -5.747      4.178      6.406
REMARK INTER + INTRA:          -7.761
REMARK INTER:                  -7.117
REMARK INTRA:                  -0.643
REMARK UNBOUND:                -0.670
REMARK  Name = 
REMARK  5 active torsions:
REMARK  status: ('A' for Active; 'I' for Inactive)
REMARK    1  A    between atoms: C_2  and  O_3
REMARK    2  A    between atoms: C_2  and  C_4
REMARK    3  A    between atoms: C_7  and  C_8
REMARK    4  A    between atoms: C_8  and  O_9
REMARK    5  A    between atoms: N_12  and  C_13
REMARK                            x       y       z     vdW  Elec       q    Type
REMARK                         _______ _______ _______ _____ _____    ______ ____
ROOT
ATOM      1  C   UNL     1      47.357   7.126  12.882  0.00  0.00    +0.000 C 
ATOM      2  C   UNL     1      46.775   8.487  12.466  0.00  0.00    +0.000 C 
ATOM      3  C   UNL     1      47.703   9.625  12.874  0.00  0.00    +0.000 C 
ATOM      4  N   UNL     1      49.036   9.380  12.319  0.00  0.00    +0.000 N 
ATOM      5  C   UNL     1      49.684   8.158  12.804  0.00  0.00    +0.000 C 
ATOM      6  C   UNL     1      48.820   6.960  12.417  0.00  0.00    +0.000 C 
ENDROOT
BRANCH   1  10
ATOM      7  C   UNL     1      44.874   3.985  11.346  0.00  0.00    +0.000 A 
ATOM      8  C   UNL     1      45.434   3.830  12.612  0.00  0.00    +0.000 A 
ATOM      9  C   UNL     1      46.249   4.838  13.124  0.00  0.00    +0.000 A 
ATOM     10  C   UNL     1      46.503   5.973  12.351  0.00  0.00    +0.000 A 
ATOM     11  N   UNL     1      45.996   6.116  11.093  0.00  0.00    +0.000 NA
ATOM     12  C   UNL     1      45.197   5.121  10.620  0.00  0.00    +0.000 A 
BRANCH   7  14
ATOM     13  O   UNL     1      44.238   2.414   9.695  0.00  0.00    +0.000 OA
ATOM     14  C   UNL     1      43.979   2.983  10.740  0.00  0.00    +0.000 C 
BRANCH  14  15
ATOM     15  O   UNL     1      42.836   2.789  11.428  0.00  0.00    +0.000 OA
ATOM     16  H   UNL     1      42.861   2.092  12.110  0.00  0.00    +0.000 HD
ENDBRANCH  14  15
ENDBRANCH   7  14
ENDBRANCH   1  10
BRANCH   4  17
ATOM     17  C   UNL     1      49.605  10.191  11.357  0.00  0.00    +0.000 A 
ATOM     18  C   UNL     1      50.954  10.080  11.004  0.00  0.00    +0.000 A 
ATOM     19  C   UNL     1      51.491  10.918  10.035  0.00  0.00    +0.000 A 
ATOM     20  N   UNL     1      50.786  11.859   9.380  0.00  0.00    +0.000 NA
ATOM     21  C   UNL     1      49.490  11.968   9.726  0.00  0.00    +0.000 A 
ATOM     22  C   UNL     1      48.873  11.177  10.688  0.00  0.00    +0.000 A 
ENDBRANCH   4  17
BRANCH   1  23
ATOM     23  O   UNL     1      47.348   7.089  14.321  0.00  0.00    +0.000 OA
ATOM     24  H   UNL     1      46.880   6.259  14.554  0.00  0.00    +0.000 HD
ENDBRANCH   1  23
TORSDOF 5
ENDMDL
MODEL 8
REMARK VINA RESULT:    -5.586      3.666      6.089
REMARK INTER + INTRA:          -7.562
REMARK INTER:                  -6.920
REMARK INTRA:                  -0.643
REMARK UNBOUND:                -0.670
REMARK  Name = 
REMARK  5 active torsions:
REMARK  status: ('A' for Active; 'I' for Inactive)
REMARK    1  A    between atoms: C_2  and  O_3
REMARK    2  A    between atoms: C_2  and  C_4
REMARK    3  A    between atoms: C_7  and  C_8
REMARK    4  A    between atoms: C_8  and  O_9
REMARK    5  A    between atoms: N_12  and  C_13
REMARK                            x       y       z     vdW  Elec       q    Type
REMARK                         _______ _______ _______ _____ _____    ______ ____
ROOT
ATOM      1  C   UNL     1      47.399   7.151  12.885  0.00  0.00    +0.000 C 
ATOM      2  C   UNL     1      47.898   8.049  11.741  0.00  0.00    +0.000 C 
ATOM      3  C   UNL     1      48.871   9.101  12.260  0.00  0.00    +0.000 C 
ATOM      4  N   UNL     1      49.959   8.435  12.980  0.00  0.00    +0.000 N 
ATOM      5  C   UNL     1      49.536   7.681  14.163  0.00  0.00    +0.000 C 
ATOM      6  C   UNL     1      48.565   6.588  13.725  0.00  0.00    +0.000 C 
ENDROOT
BRANCH   1  10
ATOM      7  C   UNL     1      44.889   4.034  11.342  0.00  0.00    +0.000 A 
ATOM      8  C   UNL     1      45.434   3.879  12.615  0.00  0.00    +0.000 A 
ATOM      9  C   UNL     1      46.257   4.879  13.129  0.00  0.00    +0.000 A 
ATOM     10  C   UNL     1      46.534   6.006  12.352  0.00  0.00    +0.000 A 
ATOM     11  N   UNL     1      46.042   6.148  11.088  0.00  0.00    +0.000 NA
ATOM     12  C   UNL     1      45.235   5.161  10.613  0.00  0.00    +0.000 A 
BRANCH   7  14
ATOM     13  O   UNL     1      44.230   2.492   9.673  0.00  0.00    +0.000 OA
ATOM     14  C   UNL     1      43.987   3.040  10.733  0.00  0.00    +0.000 C 
BRANCH  14  15
ATOM     15  O   UNL     1      42.857   2.830  11.436  0.00  0.00    +0.000 OA
ATOM     16  H   UNL     1      42.033   3.159  11.031  0.00  0.00    +0.000 HD
ENDBRANCH  14  15
ENDBRANCH   7  14
ENDBRANCH   1  10
BRANCH   4  17
ATOM     17  C   UNL     1      51.266   8.449  12.536  0.00  0.00    +0.000 A 
ATOM     18  C   UNL     1      52.325   8.809  13.378  0.00  0.00    +0.000 A 
ATOM     19  C   UNL     1      53.627   8.816  12.892  0.00  0.00    +0.000 A 
ATOM     20  N   UNL     1      53.962   8.485  11.631  0.00  0.00    +0.000 NA
ATOM     21  C   UNL     1      52.941   8.147  10.823  0.00  0.00    +0.000 A 
ATOM     22  C   UNL     1      51.610   8.119  11.222  0.00  0.00    +0.000 A 
ENDBRANCH   4  17
BRANCH   1  23
ATOM     23  O   UNL     1      46.596   7.978  13.748  0.00  0.00    +0.000 OA
ATOM     24  H   UNL     1      46.105   8.578  13.147  0.00  0.00    +0.000 HD
ENDBRANCH   1  23
TORSDOF 5
ENDMDL
MODEL 9
REMARK VINA RESULT:    -4.746      5.209      7.162
REMARK INTER + INTRA:          -6.526
REMARK INTER:                  -5.873
REMARK INTRA:                  -0.653
REMARK UNBOUND:                -0.670
REMARK  Name = 
REMARK  5 active torsions:
REMARK  status: ('A' for Active; 'I' for Inactive)
REMARK    1  A    between atoms: C_2  and  O_3
REMARK    2  A    between atoms: C_2  and  C_4
REMARK    3  A    between atoms: C_7  and  C_8
REMARK    4  A    between atoms: C_8  and  O_9
REMARK    5  A    between atoms: N_12  and  C_13
REMARK                            x       y       z     vdW  Elec       q    Type
REMARK                         _______ _______ _______ _____ _____    ______ ____
ROOT
ATOM      1  C   UNL     1      47.810   6.504  13.931  0.00  0.00    +0.000 C 
ATOM      2  C   UNL     1      47.185   5.458  14.868  0.00  0.00    +0.000 C 
ATOM      3  C   UNL     1      48.220   4.912  15.845  0.00  0.00    +0.000 C 
ATOM      4  N   UNL     1      48.837   6.029  16.564  0.00  0.00    +0.000 N 
ATOM      5  C   UNL     1      49.566   6.974  15.714  0.00  0.00    +0.000 C 
ATOM      6  C   UNL     1      48.589   7.584  14.712  0.00  0.00    +0.000 C 
ENDROOT
BRANCH   1  10
ATOM      7  C   UNL     1      44.779   8.393  11.558  0.00  0.00    +0.000 A 
ATOM      8  C   UNL     1      45.125   7.075  11.267  0.00  0.00    +0.000 A 
ATOM      9  C   UNL     1      46.113   6.448  12.024  0.00  0.00    +0.000 A 
ATOM     10  C   UNL     1      46.748   7.158  13.045  0.00  0.00    +0.000 A 
ATOM     11  N   UNL     1      46.449   8.462  13.310  0.00  0.00    +0.000 NA
ATOM     12  C   UNL     1      45.475   9.048  12.562  0.00  0.00    +0.000 A 
BRANCH   7  14
ATOM     13  O   UNL     1      43.928  10.188  10.271  0.00  0.00    +0.000 OA
ATOM     14  C   UNL     1      43.726   9.123  10.828  0.00  0.00    +0.000 C 
BRANCH  14  15
ATOM     15  O   UNL     1      42.520   8.523  10.871  0.00  0.00    +0.000 OA
ATOM     16  H   UNL     1      41.927   8.702  10.117  0.00  0.00    +0.000 HD
ENDBRANCH  14  15
ENDBRANCH   7  14
ENDBRANCH   1  10
BRANCH   4  17
ATOM     17  C   UNL     1      48.679   6.220  17.922  0.00  0.00    +0.000 A 
ATOM     18  C   UNL     1      47.568   5.720  18.611  0.00  0.00    +0.000 A 
ATOM     19  C   UNL     1      47.442   5.937  19.978  0.00  0.00    +0.000 A 
ATOM     20  N   UNL     1      48.343   6.610  20.719  0.00  0.00    +0.000 NA
ATOM     21  C   UNL     1      49.406   7.095  20.053  0.00  0.00    +0.000 A 
ATOM     22  C   UNL     1      49.609   6.931  18.688  0.00  0.00    +0.000 A 
ENDBRANCH   4  17
BRANCH   1  23
ATOM     23  O   UNL     1      48.751   5.806  13.093  0.00  0.00    +0.000 OA
ATOM     24  H   UNL     1      49.325   6.505  12.712  0.00  0.00    +0.000 HD
ENDBRANCH   1  23
TORSDOF 5
ENDMDL
