MODEL 1
REMARK VINA RESULT:    -7.517      0.000      0.000
REMARK INTER + INTRA:         -11.103
REMARK INTER:                 -10.373
REMARK INTRA:                  -0.730
REMARK UNBOUND:                -0.730
REMARK  Name = 
REMARK  8 active torsions:
REMARK  status: ('A' for Active; 'I' for Inactive)
REMARK    1  A    between atoms: C_1  and  C_2
REMARK    2  A    between atoms: C_2  and  C_3
REMARK    3  A    between atoms: C_2  and  C_14
REMARK    4  A    between atoms: C_3  and  O_4
REMARK    5  A    between atoms: O_4  and  C_5
REMARK    6  A    between atoms: C_8  and  C_9
REMARK    7  A    between atoms: C_18  and  C_19
REMARK    8  A    between atoms: C_19  and  N_20
REMARK                            x       y       z     vdW  Elec       q    Type
REMARK                         _______ _______ _______ _____ _____    ______ ____
ROOT
ATOM      1  C   UNL     1      43.600   4.999  10.299  0.00  0.00    +0.000 C 
ENDROOT
BRANCH   1   3
ATOM      2  C   UNL     1      42.853   4.956  12.728  0.00  0.00    +0.000 C 
ATOM      3  C   UNL     1      43.733   5.660  11.683  0.00  0.00    +0.000 C 
BRANCH   3   4
ATOM      4  C   UNL     1      45.179   5.731  12.154  0.00  0.00    +0.000 A 
ATOM      5  C   UNL     1      46.097   6.564  11.500  0.00  0.00    +0.000 A 
ATOM      6  C   UNL     1      47.386   6.737  12.010  0.00  0.00    +0.000 A 
ATOM      7  C   UNL     1      47.772   6.085  13.183  0.00  0.00    +0.000 A 
ATOM      8  C   UNL     1      46.883   5.228  13.844  0.00  0.00    +0.000 A 
ATOM      9  C   UNL     1      45.604   5.035  13.299  0.00  0.00    +0.000 A 
BRANCH   8  10
ATOM     10  C   UNL     1      47.269   4.528  15.125  0.00  0.00    +0.000 C 
BRANCH  10  11
ATOM     11  N   UNL     1      47.607   3.123  14.904  0.00  0.00    +0.000 NA
ATOM     12  H   UNL     1      47.933   3.007  13.946  0.00  0.00    +0.000 HD
ATOM     13  H   UNL     1      46.763   2.561  14.992  0.00  0.00    +0.000 HD
ENDBRANCH  10  11
ENDBRANCH   8  10
ENDBRANCH   3   4
ENDBRANCH   1   3
BRANCH   1  14
ATOM     14  O   UNL     1      44.021   3.620  10.373  0.00  0.00    +0.000 OA
BRANCH  14  15
ATOM     15  C   UNL     1      44.888   3.266   9.360  0.00  0.00    +0.000 A 
ATOM     16  C   UNL     1      45.384   4.244   8.500  0.00  0.00    +0.000 A 
ATOM     17  N   UNL     1      46.227   3.966   7.455  0.00  0.00    +0.000 NA
ATOM     18  C   UNL     1      46.559   2.649   7.334  0.00  0.00    +0.000 A 
ATOM     19  C   UNL     1      46.079   1.684   8.205  0.00  0.00    +0.000 A 
ATOM     20  N   UNL     1      45.232   1.969   9.229  0.00  0.00    +0.000 NA
BRANCH  18  21
ATOM     21  C   UNL     1      47.465   2.249   6.224  0.00  0.00    +0.000 C 
ATOM     22  N   UNL     1      48.782   2.597   6.293  0.00  0.00    +0.000 N 
ATOM     23  O   UNL     1      47.031   1.628   5.252  0.00  0.00    +0.000 OA
ATOM     24  H   UNL     1      49.163   3.116   7.069  0.00  0.00    +0.000 HD
ATOM     25  H   UNL     1      49.386   2.322   5.526  0.00  0.00    +0.000 HD
ENDBRANCH  18  21
ENDBRANCH  14  15
ENDBRANCH   1  14
TORSDOF 7
ENDMDL
MODEL 2
REMARK VINA RESULT:    -7.018      2.059      2.509
REMARK INTER + INTRA:         -10.414
REMARK INTER:                  -9.863
REMARK INTRA:                  -0.551
REMARK UNBOUND:                -0.730
REMARK  Name = 
REMARK  8 active torsions:
REMARK  status: ('A' for Active; 'I' for Inactive)
REMARK    1  A    between atoms: C_1  and  C_2
REMARK    2  A    between atoms: C_2  and  C_3
REMARK    3  A    between atoms: C_2  and  C_14
REMARK    4  A    between atoms: C_3  and  O_4
REMARK    5  A    between atoms: O_4  and  C_5
REMARK    6  A    between atoms: C_8  and  C_9
REMARK    7  A    between atoms: C_18  and  C_19
REMARK    8  A    between atoms: C_19  and  N_20
REMARK                            x       y       z     vdW  Elec       q    Type
REMARK                         _______ _______ _______ _____ _____    ______ ____
ROOT
ATOM      1  C   UNL     1      44.437   3.556  11.536  0.00  0.00    +0.000 C 
ENDROOT
BRANCH   1   3
ATOM      2  C   UNL     1      42.902   4.978  12.979  0.00  0.00    +0.000 C 
ATOM      3  C   UNL     1      43.960   4.982  11.864  0.00  0.00    +0.000 C 
BRANCH   3   4
ATOM      4  C   UNL     1      45.113   5.913  12.215  0.00  0.00    +0.000 A 
ATOM      5  C   UNL     1      46.380   5.392  12.507  0.00  0.00    +0.000 A 
ATOM      6  C   UNL     1      47.471   6.244  12.696  0.00  0.00    +0.000 A 
ATOM      7  C   UNL     1      47.310   7.627  12.590  0.00  0.00    +0.000 A 
ATOM      8  C   UNL     1      46.049   8.176  12.324  0.00  0.00    +0.000 A 
ATOM      9  C   UNL     1      44.956   7.308  12.173  0.00  0.00    +0.000 A 
BRANCH   8  10
ATOM     10  C   UNL     1      45.853   9.667  12.184  0.00  0.00    +0.000 C 
BRANCH  10  11
ATOM     11  N   UNL     1      44.491  10.077  12.522  0.00  0.00    +0.000 NA
ATOM     12  H   UNL     1      43.835   9.571  11.929  0.00  0.00    +0.000 HD
ATOM     13  H   UNL     1      44.377  11.064  12.303  0.00  0.00    +0.000 HD
ENDBRANCH  10  11
ENDBRANCH   8  10
ENDBRANCH   3   4
ENDBRANCH   1   3
BRANCH   1  14
ATOM     14  O   UNL     1      43.827   3.107  10.307  0.00  0.00    +0.000 OA
BRANCH  14  15
ATOM     15  C   UNL     1      44.734   2.964   9.277  0.00  0.00    +0.000 A 
ATOM     16  C   UNL     1      45.055   4.060   8.478  0.00  0.00    +0.000 A 
ATOM     17  N   UNL     1      45.924   3.988   7.421  0.00  0.00    +0.000 NA
ATOM     18  C   UNL     1      46.469   2.754   7.222  0.00  0.00    +0.000 A 
ATOM     19  C   UNL     1      46.162   1.673   8.031  0.00  0.00    +0.000 A 
ATOM     20  N   UNL     1      45.286   1.752   9.069  0.00  0.00    +0.000 NA
BRANCH  18  21
ATOM     21  C   UNL     1      47.421   2.577   6.092  0.00  0.00    +0.000 C 
ATOM     22  N   UNL     1      48.759   2.564   6.356  0.00  0.00    +0.000 N 
ATOM     23  O   UNL     1      47.009   2.461   4.937  0.00  0.00    +0.000 OA
ATOM     24  H   UNL     1      49.126   2.669   7.290  0.00  0.00    +0.000 HD
ATOM     25  H   UNL     1      49.395   2.448   5.576  0.00  0.00    +0.000 HD
ENDBRANCH  18  21
ENDBRANCH  14  15
ENDBRANCH   1  14
TORSDOF 7
ENDMDL
MODEL 3
REMARK VINA RESULT:    -6.759      2.681      6.368
REMARK INTER + INTRA:         -10.057
REMARK INTER:                  -9.411
REMARK INTRA:                  -0.647
REMARK UNBOUND:                -0.730
REMARK  Name = 
REMARK  8 active torsions:
REMARK  status: ('A' for Active; 'I' for Inactive)
REMARK    1  A    between atoms: C_1  and  C_2
REMARK    2  A    between atoms: C_2  and  C_3
REMARK    3  A    between atoms: C_2  and  C_14
REMARK    4  A    between atoms: C_3  and  O_4
REMARK    5  A    between atoms: O_4  and  C_5
REMARK    6  A    between atoms: C_8  and  C_9
REMARK    7  A    between atoms: C_18  and  C_19
REMARK    8  A    between atoms: C_19  and  N_20
REMARK                            x       y       z     vdW  Elec       q    Type
REMARK                         _______ _______ _______ _____ _____    ______ ____
ROOT
ATOM      1  C   UNL     1      44.991   2.939  12.268  0.00  0.00    +0.000 C 
ENDROOT
BRANCH   1   3
ATOM      2  C   UNL     1      43.052   4.208  11.223  0.00  0.00    +0.000 C 
ATOM      3  C   UNL     1      44.050   3.052  11.054  0.00  0.00    +0.000 C 
BRANCH   3   4
ATOM      4  C   UNL     1      44.812   3.182   9.742  0.00  0.00    +0.000 A 
ATOM      5  C   UNL     1      45.049   4.445   9.182  0.00  0.00    +0.000 A 
ATOM      6  C   UNL     1      45.861   4.579   8.054  0.00  0.00    +0.000 A 
ATOM      7  C   UNL     1      46.453   3.455   7.474  0.00  0.00    +0.000 A 
ATOM      8  C   UNL     1      46.214   2.178   7.999  0.00  0.00    +0.000 A 
ATOM      9  C   UNL     1      45.365   2.056   9.110  0.00  0.00    +0.000 A 
BRANCH   8  10
ATOM     10  C   UNL     1      46.858   0.949   7.403  0.00  0.00    +0.000 C 
BRANCH  10  11
ATOM     11  N   UNL     1      48.040   1.279   6.607  0.00  0.00    +0.000 NA
ATOM     12  H   UNL     1      48.846   1.358   7.227  0.00  0.00    +0.000 HD
ATOM     13  H   UNL     1      47.911   2.194   6.183  0.00  0.00    +0.000 HD
ENDBRANCH  10  11
ENDBRANCH   8  10
ENDBRANCH   3   4
ENDBRANCH   1   3
BRANCH   1  14
ATOM     14  O   UNL     1      44.783   4.060  13.153  0.00  0.00    +0.000 OA
BRANCH  14  15
ATOM     15  C   UNL     1      45.892   4.874  13.259  0.00  0.00    +0.000 A 
ATOM     16  C   UNL     1      46.807   4.668  14.290  0.00  0.00    +0.000 A 
ATOM     17  N   UNL     1      47.916   5.452  14.477  0.00  0.00    +0.000 NA
ATOM     18  C   UNL     1      48.065   6.445  13.555  0.00  0.00    +0.000 A 
ATOM     19  C   UNL     1      47.164   6.633  12.520  0.00  0.00    +0.000 A 
ATOM     20  N   UNL     1      46.058   5.858  12.353  0.00  0.00    +0.000 NA
BRANCH  18  21
ATOM     21  C   UNL     1      49.238   7.353  13.679  0.00  0.00    +0.000 C 
ATOM     22  N   UNL     1      50.203   7.314  12.717  0.00  0.00    +0.000 N 
ATOM     23  O   UNL     1      49.343   8.113  14.642  0.00  0.00    +0.000 OA
ATOM     24  H   UNL     1      50.150   6.693  11.923  0.00  0.00    +0.000 HD
ATOM     25  H   UNL     1      50.998   7.934  12.818  0.00  0.00    +0.000 HD
ENDBRANCH  18  21
ENDBRANCH  14  15
ENDBRANCH   1  14
TORSDOF 7
ENDMDL
MODEL 4
REMARK VINA RESULT:    -6.525      1.859      2.592
REMARK INTER + INTRA:          -9.734
REMARK INTER:                  -9.215
REMARK INTRA:                  -0.519
REMARK UNBOUND:                -0.730
REMARK  Name = 
REMARK  8 active torsions:
REMARK  status: ('A' for Active; 'I' for Inactive)
REMARK    1  A    between atoms: C_1  and  C_2
REMARK    2  A    between atoms: C_2  and  C_3
REMARK    3  A    between atoms: C_2  and  C_14
REMARK    4  A    between atoms: C_3  and  O_4
REMARK    5  A    between atoms: O_4  and  C_5
REMARK    6  A    between atoms: C_8  and  C_9
REMARK    7  A    between atoms: C_18  and  C_19
REMARK    8  A    between atoms: C_19  and  N_20
REMARK                            x       y       z     vdW  Elec       q    Type
REMARK                         _______ _______ _______ _____ _____    ______ ____
ROOT
ATOM      1  C   UNL     1      44.345   4.392  11.203  0.00  0.00    +0.000 C 
ENDROOT
BRANCH   1   3
ATOM      2  C   UNL     1      43.652   6.820  11.500  0.00  0.00    +0.000 C 
ATOM      3  C   UNL     1      44.797   5.862  11.137  0.00  0.00    +0.000 C 
BRANCH   3   4
ATOM      4  C   UNL     1      46.021   6.131  12.003  0.00  0.00    +0.000 A 
ATOM      5  C   UNL     1      46.159   5.505  13.249  0.00  0.00    +0.000 A 
ATOM      6  C   UNL     1      47.338   5.640  13.984  0.00  0.00    +0.000 A 
ATOM      7  C   UNL     1      48.398   6.399  13.481  0.00  0.00    +0.000 A 
ATOM      8  C   UNL     1      48.278   7.055  12.250  0.00  0.00    +0.000 A 
ATOM      9  C   UNL     1      47.072   6.940  11.540  0.00  0.00    +0.000 A 
BRANCH   8  10
ATOM     10  C   UNL     1      49.417   7.864  11.675  0.00  0.00    +0.000 C 
BRANCH  10  11
ATOM     11  N   UNL     1      49.105   9.292  11.620  0.00  0.00    +0.000 NA
ATOM     12  H   UNL     1      48.096   9.414  11.692  0.00  0.00    +0.000 HD
ATOM     13  H   UNL     1      49.375   9.656  10.709  0.00  0.00    +0.000 HD
ENDBRANCH  10  11
ENDBRANCH   8  10
ENDBRANCH   3   4
ENDBRANCH   1   3
BRANCH   1  14
ATOM     14  O   UNL     1      43.787   3.996   9.932  0.00  0.00    +0.000 OA
BRANCH  14  15
ATOM     15  C   UNL     1      44.724   3.446   9.081  0.00  0.00    +0.000 A 
ATOM     16  C   UNL     1      45.062   2.100   9.198  0.00  0.00    +0.000 A 
ATOM     17  N   UNL     1      46.003   1.491   8.409  0.00  0.00    +0.000 NA
ATOM     18  C   UNL     1      46.572   2.309   7.478  0.00  0.00    +0.000 A 
ATOM     19  C   UNL     1      46.217   3.642   7.352  0.00  0.00    +0.000 A 
ATOM     20  N   UNL     1      45.293   4.240   8.152  0.00  0.00    +0.000 NA
BRANCH  18  21
ATOM     21  C   UNL     1      47.610   1.738   6.578  0.00  0.00    +0.000 C 
ATOM     22  N   UNL     1      48.725   2.476   6.311  0.00  0.00    +0.000 N 
ATOM     23  O   UNL     1      47.458   0.627   6.070  0.00  0.00    +0.000 OA
ATOM     24  H   UNL     1      48.872   3.395   6.703  0.00  0.00    +0.000 HD
ATOM     25  H   UNL     1      49.421   2.077   5.691  0.00  0.00    +0.000 HD
ENDBRANCH  18  21
ENDBRANCH  14  15
ENDBRANCH   1  14
TORSDOF 7
ENDMDL
MODEL 5
REMARK VINA RESULT:    -6.300      3.864      6.396
REMARK INTER + INTRA:          -9.424
REMARK INTER:                  -8.908
REMARK INTRA:                  -0.516
REMARK UNBOUND:                -0.730
REMARK  Name = 
REMARK  8 active torsions:
REMARK  status: ('A' for Active; 'I' for Inactive)
REMARK    1  A    between atoms: C_1  and  C_2
REMARK    2  A    between atoms: C_2  and  C_3
REMARK    3  A    between atoms: C_2  and  C_14
REMARK    4  A    between atoms: C_3  and  O_4
REMARK    5  A    between atoms: O_4  and  C_5
REMARK    6  A    between atoms: C_8  and  C_9
REMARK    7  A    between atoms: C_18  and  C_19
REMARK    8  A    between atoms: C_19  and  N_20
REMARK                            x       y       z     vdW  Elec       q    Type
REMARK                         _______ _______ _______ _____ _____    ______ ____
ROOT
ATOM      1  C   UNL     1      47.604   4.770  16.058  0.00  0.00    +0.000 C 
ENDROOT
BRANCH   1   3
ATOM      2  C   UNL     1      47.418   2.710  17.535  0.00  0.00    +0.000 C 
ATOM      3  C   UNL     1      48.086   4.081  17.348  0.00  0.00    +0.000 C 
BRANCH   3   4
ATOM      4  C   UNL     1      49.602   3.955  17.406  0.00  0.00    +0.000 A 
ATOM      5  C   UNL     1      50.398   5.081  17.657  0.00  0.00    +0.000 A 
ATOM      6  C   UNL     1      51.775   4.948  17.846  0.00  0.00    +0.000 A 
ATOM      7  C   UNL     1      52.375   3.689  17.793  0.00  0.00    +0.000 A 
ATOM      8  C   UNL     1      51.608   2.549  17.520  0.00  0.00    +0.000 A 
ATOM      9  C   UNL     1      50.231   2.703  17.295  0.00  0.00    +0.000 A 
BRANCH   8  10
ATOM     10  C   UNL     1      52.229   1.173  17.478  0.00  0.00    +0.000 C 
BRANCH  10  11
ATOM     11  N   UNL     1      51.436   0.189  18.212  0.00  0.00    +0.000 NA
ATOM     12  H   UNL     1      50.446   0.398  18.085  0.00  0.00    +0.000 HD
ATOM     13  H   UNL     1      51.625   0.285  19.207  0.00  0.00    +0.000 HD
ENDBRANCH  10  11
ENDBRANCH   8  10
ENDBRANCH   3   4
ENDBRANCH   1   3
BRANCH   1  14
ATOM     14  O   UNL     1      47.701   3.852  14.948  0.00  0.00    +0.000 OA
BRANCH  14  15
ATOM     15  C   UNL     1      46.814   4.142  13.931  0.00  0.00    +0.000 A 
ATOM     16  C   UNL     1      46.571   5.468  13.580  0.00  0.00    +0.000 A 
ATOM     17  N   UNL     1      45.684   5.835  12.602  0.00  0.00    +0.000 NA
ATOM     18  C   UNL     1      45.068   4.790  11.980  0.00  0.00    +0.000 A 
ATOM     19  C   UNL     1      45.328   3.472  12.319  0.00  0.00    +0.000 A 
ATOM     20  N   UNL     1      46.199   3.120  13.302  0.00  0.00    +0.000 NA
BRANCH  18  21
ATOM     21  C   UNL     1      44.082   5.089  10.906  0.00  0.00    +0.000 C 
ATOM     22  N   UNL     1      43.337   6.227  10.998  0.00  0.00    +0.000 N 
ATOM     23  O   UNL     1      43.931   4.315   9.960  0.00  0.00    +0.000 OA
ATOM     24  H   UNL     1      43.430   6.873  11.767  0.00  0.00    +0.000 HD
ATOM     25  H   UNL     1      42.665   6.415  10.262  0.00  0.00    +0.000 HD
ENDBRANCH  18  21
ENDBRANCH  14  15
ENDBRANCH   1  14
TORSDOF 7
ENDMDL
MODEL 6
REMARK VINA RESULT:    -6.083      3.186      7.814
REMARK INTER + INTRA:          -9.124
REMARK INTER:                  -8.448
REMARK INTRA:                  -0.676
REMARK UNBOUND:                -0.730
REMARK  Name = 
REMARK  8 active torsions:
REMARK  status: ('A' for Active; 'I' for Inactive)
REMARK    1  A    between atoms: C_1  and  C_2
REMARK    2  A    between atoms: C_2  and  C_3
REMARK    3  A    between atoms: C_2  and  C_14
REMARK    4  A    between atoms: C_3  and  O_4
REMARK    5  A    between atoms: O_4  and  C_5
REMARK    6  A    between atoms: C_8  and  C_9
REMARK    7  A    between atoms: C_18  and  C_19
REMARK    8  A    between atoms: C_19  and  N_20
REMARK                            x       y       z     vdW  Elec       q    Type
REMARK                         _______ _______ _______ _____ _____    ______ ____
ROOT
ATOM      1  C   UNL     1      47.139   6.421  13.011  0.00  0.00    +0.000 C 
ENDROOT
BRANCH   1   3
ATOM      2  C   UNL     1      45.124   7.774  12.258  0.00  0.00    +0.000 C 
ATOM      3  C   UNL     1      45.603   6.474  12.923  0.00  0.00    +0.000 C 
BRANCH   3   4
ATOM      4  C   UNL     1      45.021   5.258  12.216  0.00  0.00    +0.000 A 
ATOM      5  C   UNL     1      44.253   4.326  12.926  0.00  0.00    +0.000 A 
ATOM      6  C   UNL     1      43.605   3.285  12.258  0.00  0.00    +0.000 A 
ATOM      7  C   UNL     1      43.710   3.166  10.870  0.00  0.00    +0.000 A 
ATOM      8  C   UNL     1      44.490   4.070  10.138  0.00  0.00    +0.000 A 
ATOM      9  C   UNL     1      45.166   5.088  10.829  0.00  0.00    +0.000 A 
BRANCH   8  10
ATOM     10  C   UNL     1      44.603   3.975   8.635  0.00  0.00    +0.000 C 
BRANCH  10  11
ATOM     11  N   UNL     1      45.718   4.767   8.116  0.00  0.00    +0.000 NA
ATOM     12  H   UNL     1      45.350   5.612   7.681  0.00  0.00    +0.000 HD
ATOM     13  H   UNL     1      46.183   4.242   7.379  0.00  0.00    +0.000 HD
ENDBRANCH  10  11
ENDBRANCH   8  10
ENDBRANCH   3   4
ENDBRANCH   1   3
BRANCH   1  14
ATOM     14  O   UNL     1      47.559   5.106  13.436  0.00  0.00    +0.000 OA
BRANCH  14  15
ATOM     15  C   UNL     1      47.705   5.004  14.804  0.00  0.00    +0.000 A 
ATOM     16  C   UNL     1      46.992   4.034  15.507  0.00  0.00    +0.000 A 
ATOM     17  N   UNL     1      47.063   3.890  16.868  0.00  0.00    +0.000 NA
ATOM     18  C   UNL     1      47.909   4.765  17.484  0.00  0.00    +0.000 A 
ATOM     19  C   UNL     1      48.631   5.714  16.778  0.00  0.00    +0.000 A 
ATOM     20  N   UNL     1      48.540   5.858  15.428  0.00  0.00    +0.000 NA
BRANCH  18  21
ATOM     21  C   UNL     1      48.048   4.690  18.963  0.00  0.00    +0.000 C 
ATOM     22  N   UNL     1      48.447   3.514  19.526  0.00  0.00    +0.000 N 
ATOM     23  O   UNL     1      47.792   5.667  19.668  0.00  0.00    +0.000 OA
ATOM     24  H   UNL     1      48.651   2.693  18.975  0.00  0.00    +0.000 HD
ATOM     25  H   UNL     1      48.532   3.476  20.535  0.00  0.00    +0.000 HD
ENDBRANCH  18  21
ENDBRANCH  14  15
ENDBRANCH   1  14
TORSDOF 7
ENDMDL
MODEL 7
REMARK VINA RESULT:    -5.995      3.741      6.471
REMARK INTER + INTRA:          -9.003
REMARK INTER:                  -8.517
REMARK INTRA:                  -0.486
REMARK UNBOUND:                -0.730
REMARK  Name = 
REMARK  8 active torsions:
REMARK  status: ('A' for Active; 'I' for Inactive)
REMARK    1  A    between atoms: C_1  and  C_2
REMARK    2  A    between atoms: C_2  and  C_3
REMARK    3  A    between atoms: C_2  and  C_14
REMARK    4  A    between atoms: C_3  and  O_4
REMARK    5  A    between atoms: O_4  and  C_5
REMARK    6  A    between atoms: C_8  and  C_9
REMARK    7  A    between atoms: C_18  and  C_19
REMARK    8  A    between atoms: C_19  and  N_20
REMARK                            x       y       z     vdW  Elec       q    Type
REMARK                         _______ _______ _______ _____ _____    ______ ____
ROOT
ATOM      1  C   UNL     1      47.592   4.185  15.588  0.00  0.00    +0.000 C 
ENDROOT
BRANCH   1   3
ATOM      2  C   UNL     1      48.892   2.324  16.732  0.00  0.00    +0.000 C 
ATOM      3  C   UNL     1      47.741   3.334  16.862  0.00  0.00    +0.000 C 
BRANCH   3   4
ATOM      4  C   UNL     1      47.910   4.186  18.113  0.00  0.00    +0.000 A 
ATOM      5  C   UNL     1      48.532   3.659  19.252  0.00  0.00    +0.000 A 
ATOM      6  C   UNL     1      48.811   4.476  20.350  0.00  0.00    +0.000 A 
ATOM      7  C   UNL     1      48.477   5.832  20.322  0.00  0.00    +0.000 A 
ATOM      8  C   UNL     1      47.833   6.380  19.205  0.00  0.00    +0.000 A 
ATOM      9  C   UNL     1      47.525   5.538  18.125  0.00  0.00    +0.000 A 
BRANCH   8  10
ATOM     10  C   UNL     1      47.480   7.847  19.142  0.00  0.00    +0.000 C 
BRANCH  10  11
ATOM     11  N   UNL     1      47.630   8.391  17.792  0.00  0.00    +0.000 NA
ATOM     12  H   UNL     1      48.334   9.128  17.807  0.00  0.00    +0.000 HD
ATOM     13  H   UNL     1      46.756   8.832  17.513  0.00  0.00    +0.000 HD
ENDBRANCH  10  11
ENDBRANCH   8  10
ENDBRANCH   3   4
ENDBRANCH   1   3
BRANCH   1  14
ATOM     14  O   UNL     1      47.355   3.327  14.452  0.00  0.00    +0.000 OA
BRANCH  14  15
ATOM     15  C   UNL     1      46.357   3.796  13.622  0.00  0.00    +0.000 A 
ATOM     16  C   UNL     1      45.980   5.136  13.680  0.00  0.00    +0.000 A 
ATOM     17  N   UNL     1      44.980   5.668  12.908  0.00  0.00    +0.000 NA
ATOM     18  C   UNL     1      44.391   4.780  12.058  0.00  0.00    +0.000 A 
ATOM     19  C   UNL     1      44.783   3.453  11.991  0.00  0.00    +0.000 A 
ATOM     20  N   UNL     1      45.767   2.932  12.772  0.00  0.00    +0.000 NA
BRANCH  18  21
ATOM     21  C   UNL     1      43.289   5.264  11.184  0.00  0.00    +0.000 C 
ATOM     22  N   UNL     1      42.281   5.994  11.740  0.00  0.00    +0.000 N 
ATOM     23  O   UNL     1      43.279   4.996   9.981  0.00  0.00    +0.000 OA
ATOM     24  H   UNL     1      42.256   6.218  12.724  0.00  0.00    +0.000 HD
ATOM     25  H   UNL     1      41.534   6.312  11.133  0.00  0.00    +0.000 HD
ENDBRANCH  18  21
ENDBRANCH  14  15
ENDBRANCH   1  14
TORSDOF 7
ENDMDL
MODEL 8
REMARK VINA RESULT:    -5.879      3.775      7.929
REMARK INTER + INTRA:          -8.842
REMARK INTER:                  -8.335
REMARK INTRA:                  -0.508
REMARK UNBOUND:                -0.730
REMARK  Name = 
REMARK  8 active torsions:
REMARK  status: ('A' for Active; 'I' for Inactive)
REMARK    1  A    between atoms: C_1  and  C_2
REMARK    2  A    between atoms: C_2  and  C_3
REMARK    3  A    between atoms: C_2  and  C_14
REMARK    4  A    between atoms: C_3  and  O_4
REMARK    5  A    between atoms: O_4  and  C_5
REMARK    6  A    between atoms: C_8  and  C_9
REMARK    7  A    between atoms: C_18  and  C_19
REMARK    8  A    between atoms: C_19  and  N_20
REMARK                            x       y       z     vdW  Elec       q    Type
REMARK                         _______ _______ _______ _____ _____    ______ ____
ROOT
ATOM      1  C   UNL     1      47.656   6.053  13.519  0.00  0.00    +0.000 C 
ENDROOT
BRANCH   1   3
ATOM      2  C   UNL     1      46.474   8.160  12.730  0.00  0.00    +0.000 C 
ATOM      3  C   UNL     1      46.318   6.670  13.075  0.00  0.00    +0.000 C 
BRANCH   3   4
ATOM      4  C   UNL     1      45.685   5.911  11.917  0.00  0.00    +0.000 A 
ATOM      5  C   UNL     1      46.142   6.106  10.606  0.00  0.00    +0.000 A 
ATOM      6  C   UNL     1      45.660   5.314   9.562  0.00  0.00    +0.000 A 
ATOM      7  C   UNL     1      44.720   4.313   9.814  0.00  0.00    +0.000 A 
ATOM      8  C   UNL     1      44.228   4.111  11.109  0.00  0.00    +0.000 A 
ATOM      9  C   UNL     1      44.694   4.940  12.142  0.00  0.00    +0.000 A 
BRANCH   8  10
ATOM     10  C   UNL     1      43.227   3.021  11.411  0.00  0.00    +0.000 C 
BRANCH  10  11
ATOM     11  N   UNL     1      43.629   2.208  12.558  0.00  0.00    +0.000 NA
ATOM     12  H   UNL     1      43.665   2.799  13.388  0.00  0.00    +0.000 HD
ATOM     13  H   UNL     1      44.575   1.865  12.407  0.00  0.00    +0.000 HD
ENDBRANCH  10  11
ENDBRANCH   8  10
ENDBRANCH   3   4
ENDBRANCH   1   3
BRANCH   1  14
ATOM     14  O   UNL     1      47.422   4.764  14.126  0.00  0.00    +0.000 OA
BRANCH  14  15
ATOM     15  C   UNL     1      47.650   4.760  15.486  0.00  0.00    +0.000 A 
ATOM     16  C   UNL     1      48.420   5.768  16.063  0.00  0.00    +0.000 A 
ATOM     17  N   UNL     1      48.714   5.816  17.401  0.00  0.00    +0.000 NA
ATOM     18  C   UNL     1      48.172   4.802  18.133  0.00  0.00    +0.000 A 
ATOM     19  C   UNL     1      47.389   3.813  17.558  0.00  0.00    +0.000 A 
ATOM     20  N   UNL     1      47.118   3.767  16.226  0.00  0.00    +0.000 NA
BRANCH  18  21
ATOM     21  C   UNL     1      48.440   4.766  19.596  0.00  0.00    +0.000 C 
ATOM     22  N   UNL     1      48.484   3.557  20.226  0.00  0.00    +0.000 N 
ATOM     23  O   UNL     1      48.602   5.809  20.230  0.00  0.00    +0.000 OA
ATOM     24  H   UNL     1      48.342   2.687  19.735  0.00  0.00    +0.000 HD
ATOM     25  H   UNL     1      48.662   3.549  21.224  0.00  0.00    +0.000 HD
ENDBRANCH  18  21
ENDBRANCH  14  15
ENDBRANCH   1  14
TORSDOF 7
ENDMDL
MODEL 9
REMARK VINA RESULT:    -5.843      3.707      6.062
REMARK INTER + INTRA:          -8.794
REMARK INTER:                  -8.147
REMARK INTRA:                  -0.646
REMARK UNBOUND:                -0.730
REMARK  Name = 
REMARK  8 active torsions:
REMARK  status: ('A' for Active; 'I' for Inactive)
REMARK    1  A    between atoms: C_1  and  C_2
REMARK    2  A    between atoms: C_2  and  C_3
REMARK    3  A    between atoms: C_2  and  C_14
REMARK    4  A    between atoms: C_3  and  O_4
REMARK    5  A    between atoms: O_4  and  C_5
REMARK    6  A    between atoms: C_8  and  C_9
REMARK    7  A    between atoms: C_18  and  C_19
REMARK    8  A    between atoms: C_19  and  N_20
REMARK                            x       y       z     vdW  Elec       q    Type
REMARK                         _______ _______ _______ _____ _____    ______ ____
ROOT
ATOM      1  C   UNL     1      48.307   7.426  14.283  0.00  0.00    +0.000 C 
ENDROOT
BRANCH   1   3
ATOM      2  C   UNL     1      49.992   8.732  15.666  0.00  0.00    +0.000 C 
ATOM      3  C   UNL     1      49.402   7.347  15.362  0.00  0.00    +0.000 C 
BRANCH   3   4
ATOM      4  C   UNL     1      48.912   6.676  16.637  0.00  0.00    +0.000 A 
ATOM      5  C   UNL     1      48.492   7.448  17.728  0.00  0.00    +0.000 A 
ATOM      6  C   UNL     1      47.915   6.842  18.846  0.00  0.00    +0.000 A 
ATOM      7  C   UNL     1      47.744   5.456  18.886  0.00  0.00    +0.000 A 
ATOM      8  C   UNL     1      48.176   4.658  17.820  0.00  0.00    +0.000 A 
ATOM      9  C   UNL     1      48.789   5.278  16.720  0.00  0.00    +0.000 A 
BRANCH   8  10
ATOM     10  C   UNL     1      47.984   3.160  17.830  0.00  0.00    +0.000 C 
BRANCH  10  11
ATOM     11  N   UNL     1      46.571   2.786  17.774  0.00  0.00    +0.000 NA
ATOM     12  H   UNL     1      46.059   3.503  17.261  0.00  0.00    +0.000 HD
ATOM     13  H   UNL     1      46.192   2.779  18.718  0.00  0.00    +0.000 HD
ENDBRANCH  10  11
ENDBRANCH   8  10
ENDBRANCH   3   4
ENDBRANCH   1   3
BRANCH   1  14
ATOM     14  O   UNL     1      48.497   6.372  13.315  0.00  0.00    +0.000 OA
BRANCH  14  15
ATOM     15  C   UNL     1      47.325   5.716  12.997  0.00  0.00    +0.000 A 
ATOM     16  C   UNL     1      46.880   4.666  13.797  0.00  0.00    +0.000 A 
ATOM     17  N   UNL     1      45.742   3.949  13.530  0.00  0.00    +0.000 NA
ATOM     18  C   UNL     1      45.065   4.361  12.420  0.00  0.00    +0.000 A 
ATOM     19  C   UNL     1      45.502   5.419  11.640  0.00  0.00    +0.000 A 
ATOM     20  N   UNL     1      46.641   6.113  11.906  0.00  0.00    +0.000 NA
BRANCH  18  21
ATOM     21  C   UNL     1      43.819   3.639  12.045  0.00  0.00    +0.000 C 
ATOM     22  N   UNL     1      43.651   2.354  12.470  0.00  0.00    +0.000 N 
ATOM     23  O   UNL     1      42.962   4.186  11.350  0.00  0.00    +0.000 OA
ATOM     24  H   UNL     1      44.341   1.876  13.030  0.00  0.00    +0.000 HD
ATOM     25  H   UNL     1      42.800   1.873  12.202  0.00  0.00    +0.000 HD
ENDBRANCH  18  21
ENDBRANCH  14  15
ENDBRANCH   1  14
TORSDOF 7
ENDMDL
