MODEL 1
REMARK VINA RESULT:    -8.335      0.000      0.000
REMARK INTER + INTRA:         -12.484
REMARK INTER:                 -11.259
REMARK INTRA:                  -1.225
REMARK UNBOUND:                -1.225
REMARK  Name = 
REMARK  6 active torsions:
REMARK  status: ('A' for Active; 'I' for Inactive)
REMARK    1  A    between atoms: C_2  and  C_25
REMARK    2  A    between atoms: N_3  and  C_4
REMARK    3  A    between atoms: C_4  and  C_5
REMARK    4  A    between atoms: C_8  and  C_9
REMARK    5  A    between atoms: C_9  and  N_10
REMARK    6  A    between atoms: C_11  and  C_13
REMARK                            x       y       z     vdW  Elec       q    Type
REMARK                         _______ _______ _______ _____ _____    ______ ____
ROOT
ATOM      1  C   UNL     1      44.887   5.592  10.788  0.00  0.00    +0.000 A 
ATOM      2  C   UNL     1      44.260   6.111  11.929  0.00  0.00    +0.000 A 
ATOM      3  C   UNL     1      44.954   6.954  12.804  0.00  0.00    +0.000 A 
ATOM      4  C   UNL     1      46.283   7.314  12.546  0.00  0.00    +0.000 A 
ATOM      5  C   UNL     1      46.906   6.803  11.398  0.00  0.00    +0.000 A 
ATOM      6  C   UNL     1      46.212   5.962  10.523  0.00  0.00    +0.000 A 
ENDROOT
BRANCH   1   7
ATOM      7  C   UNL     1      44.157   4.639   9.876  0.00  0.00    +0.000 C 
BRANCH   7  10
ATOM      8  O   UNL     1      45.097   2.041   9.554  0.00  0.00    +0.000 OA
ATOM      9  C   UNL     1      45.378   2.877   8.703  0.00  0.00    +0.000 C 
ATOM     10  N   UNL     1      44.975   4.196   8.771  0.00  0.00    +0.000 N 
ATOM     11  H   UNL     1      45.044   4.792   7.957  0.00  0.00    +0.000 HD
BRANCH   9  12
ATOM     12  C   UNL     1      46.160   2.482   7.512  0.00  0.00    +0.000 A 
ATOM     13  C   UNL     1      46.238   3.271   6.362  0.00  0.00    +0.000 A 
ATOM     14  C   UNL     1      47.003   2.830   5.285  0.00  0.00    +0.000 A 
ATOM     15  C   UNL     1      47.664   1.617   5.395  0.00  0.00    +0.000 A 
ATOM     16  N   UNL     1      47.623   0.839   6.499  0.00  0.00    +0.000 NA
ATOM     17  C   UNL     1      46.880   1.293   7.539  0.00  0.00    +0.000 A 
ENDBRANCH   9  12
ENDBRANCH   7  10
ENDBRANCH   1   7
BRANCH   4  18
ATOM     18  C   UNL     1      47.049   8.196  13.500  0.00  0.00    +0.000 C 
BRANCH  18  19
ATOM     19  N   UNL     1      47.477   7.467  14.668  0.00  0.00    +0.000 N 
ATOM     20  C   UNL     1      48.711   6.866  14.717  0.00  0.00    +0.000 C 
ATOM     21  O   UNL     1      49.512   6.958  13.792  0.00  0.00    +0.000 OA
ATOM     22  H   UNL     1      46.759   7.191  15.332  0.00  0.00    +0.000 HD
BRANCH  20  23
ATOM     23  C   UNL     1      49.054   6.160  15.959  0.00  0.00    +0.000 A 
ATOM     24  C   UNL     1      50.134   6.591  16.717  0.00  0.00    +0.000 A 
ATOM     25  S   UNL     1      50.364   5.699  18.153  0.00  0.00    +0.000 S 
ATOM     26  C   UNL     1      49.063   4.667  17.784  0.00  0.00    +0.000 A 
ATOM     27  N   UNL     1      48.732   3.638  18.610  0.00  0.00    +0.000 NA
ATOM     28  C   UNL     1      47.749   2.915  18.190  0.00  0.00    +0.000 A 
ATOM     29  N   UNL     1      47.063   3.128  17.025  0.00  0.00    +0.000 N 
ATOM     30  C   UNL     1      47.341   4.175  16.175  0.00  0.00    +0.000 A 
ATOM     31  O   UNL     1      46.679   4.367  15.161  0.00  0.00    +0.000 OA
ATOM     32  C   UNL     1      48.450   5.012  16.593  0.00  0.00    +0.000 A 
ATOM     33  H   UNL     1      46.297   2.529  16.755  0.00  0.00    +0.000 HD
ENDBRANCH  20  23
ENDBRANCH  18  19
ENDBRANCH   4  18
TORSDOF 6
ENDMDL
MODEL 2
REMARK VINA RESULT:    -7.914      1.775      1.959
REMARK INTER + INTRA:         -11.915
REMARK INTER:                 -11.070
REMARK INTRA:                  -0.845
REMARK UNBOUND:                -1.225
REMARK  Name = 
REMARK  6 active torsions:
REMARK  status: ('A' for Active; 'I' for Inactive)
REMARK    1  A    between atoms: C_2  and  C_25
REMARK    2  A    between atoms: N_3  and  C_4
REMARK    3  A    between atoms: C_4  and  C_5
REMARK    4  A    between atoms: C_8  and  C_9
REMARK    5  A    between atoms: C_9  and  N_10
REMARK    6  A    between atoms: C_11  and  C_13
REMARK                            x       y       z     vdW  Elec       q    Type
REMARK                         _______ _______ _______ _____ _____    ______ ____
ROOT
ATOM      1  C   UNL     1      45.360   4.604  11.764  0.00  0.00    +0.000 A 
ATOM      2  C   UNL     1      46.031   4.295  12.954  0.00  0.00    +0.000 A 
ATOM      3  C   UNL     1      46.871   5.233  13.565  0.00  0.00    +0.000 A 
ATOM      4  C   UNL     1      47.041   6.508  13.009  0.00  0.00    +0.000 A 
ATOM      5  C   UNL     1      46.360   6.819  11.824  0.00  0.00    +0.000 A 
ATOM      6  C   UNL     1      45.520   5.882  11.215  0.00  0.00    +0.000 A 
ENDROOT
BRANCH   1   7
ATOM      7  C   UNL     1      44.499   3.573  11.078  0.00  0.00    +0.000 C 
BRANCH   7  10
ATOM      8  O   UNL     1      44.433   4.245   8.379  0.00  0.00    +0.000 OA
ATOM      9  C   UNL     1      45.117   3.291   8.730  0.00  0.00    +0.000 C 
ATOM     10  N   UNL     1      45.211   2.863  10.039  0.00  0.00    +0.000 N 
ATOM     11  H   UNL     1      45.940   2.219  10.314  0.00  0.00    +0.000 HD
BRANCH   9  12
ATOM     12  C   UNL     1      45.922   2.554   7.732  0.00  0.00    +0.000 A 
ATOM     13  C   UNL     1      46.335   3.122   6.525  0.00  0.00    +0.000 A 
ATOM     14  C   UNL     1      47.098   2.362   5.641  0.00  0.00    +0.000 A 
ATOM     15  C   UNL     1      47.421   1.061   5.996  0.00  0.00    +0.000 A 
ATOM     16  N   UNL     1      47.050   0.488   7.162  0.00  0.00    +0.000 NA
ATOM     17  C   UNL     1      46.317   1.251   8.011  0.00  0.00    +0.000 A 
ENDBRANCH   9  12
ENDBRANCH   7  10
ENDBRANCH   1   7
BRANCH   4  18
ATOM     18  C   UNL     1      47.969   7.514  13.641  0.00  0.00    +0.000 C 
BRANCH  18  19
ATOM     19  N   UNL     1      47.895   7.472  15.080  0.00  0.00    +0.000 N 
ATOM     20  C   UNL     1      48.956   7.033  15.834  0.00  0.00    +0.000 C 
ATOM     21  O   UNL     1      50.020   6.700  15.319  0.00  0.00    +0.000 OA
ATOM     22  H   UNL     1      46.971   7.522  15.500  0.00  0.00    +0.000 HD
BRANCH  20  23
ATOM     23  C   UNL     1      48.782   7.043  17.292  0.00  0.00    +0.000 A 
ATOM     24  C   UNL     1      48.566   8.247  17.950  0.00  0.00    +0.000 A 
ATOM     25  S   UNL     1      48.330   8.078  19.631  0.00  0.00    +0.000 S 
ATOM     26  C   UNL     1      48.564   6.395  19.549  0.00  0.00    +0.000 A 
ATOM     27  N   UNL     1      48.520   5.629  20.672  0.00  0.00    +0.000 NA
ATOM     28  C   UNL     1      48.750   4.374  20.469  0.00  0.00    +0.000 A 
ATOM     29  N   UNL     1      49.015   3.816  19.248  0.00  0.00    +0.000 N 
ATOM     30  C   UNL     1      49.037   4.546  18.081  0.00  0.00    +0.000 A 
ATOM     31  O   UNL     1      49.230   4.010  16.995  0.00  0.00    +0.000 OA
ATOM     32  C   UNL     1      48.798   5.966  18.254  0.00  0.00    +0.000 A 
ATOM     33  H   UNL     1      49.180   2.825  19.154  0.00  0.00    +0.000 HD
ENDBRANCH  20  23
ENDBRANCH  18  19
ENDBRANCH   4  18
TORSDOF 6
ENDMDL
MODEL 3
REMARK VINA RESULT:    -7.854      2.459      2.839
REMARK INTER + INTRA:         -11.835
REMARK INTER:                 -10.772
REMARK INTRA:                  -1.063
REMARK UNBOUND:                -1.225
REMARK  Name = 
REMARK  6 active torsions:
REMARK  status: ('A' for Active; 'I' for Inactive)
REMARK    1  A    between atoms: C_2  and  C_25
REMARK    2  A    between atoms: N_3  and  C_4
REMARK    3  A    between atoms: C_4  and  C_5
REMARK    4  A    between atoms: C_8  and  C_9
REMARK    5  A    between atoms: C_9  and  N_10
REMARK    6  A    between atoms: C_11  and  C_13
REMARK                            x       y       z     vdW  Elec       q    Type
REMARK                         _______ _______ _______ _____ _____    ______ ____
ROOT
ATOM      1  C   UNL     1      45.391   4.525  11.900  0.00  0.00    +0.000 A 
ATOM      2  C   UNL     1      45.932   3.987  13.076  0.00  0.00    +0.000 A 
ATOM      3  C   UNL     1      46.825   4.730  13.857  0.00  0.00    +0.000 A 
ATOM      4  C   UNL     1      47.181   6.034  13.489  0.00  0.00    +0.000 A 
ATOM      5  C   UNL     1      46.631   6.575  12.318  0.00  0.00    +0.000 A 
ATOM      6  C   UNL     1      45.738   5.833  11.539  0.00  0.00    +0.000 A 
ENDROOT
BRANCH   1   7
ATOM      7  C   UNL     1      44.473   3.703  11.031  0.00  0.00    +0.000 C 
BRANCH   7  10
ATOM      8  O   UNL     1      44.654   4.486   8.368  0.00  0.00    +0.000 OA
ATOM      9  C   UNL     1      45.224   3.460   8.718  0.00  0.00    +0.000 C 
ATOM     10  N   UNL     1      45.188   2.973  10.010  0.00  0.00    +0.000 N 
ATOM     11  H   UNL     1      45.835   2.253  10.301  0.00  0.00    +0.000 HD
BRANCH   9  12
ATOM     12  C   UNL     1      46.026   2.691   7.742  0.00  0.00    +0.000 A 
ATOM     13  C   UNL     1      46.542   3.258   6.574  0.00  0.00    +0.000 A 
ATOM     14  C   UNL     1      47.294   2.467   5.709  0.00  0.00    +0.000 A 
ATOM     15  C   UNL     1      47.505   1.137   6.042  0.00  0.00    +0.000 A 
ATOM     16  N   UNL     1      47.034   0.564   7.171  0.00  0.00    +0.000 NA
ATOM     17  C   UNL     1      46.312   1.356   8.003  0.00  0.00    +0.000 A 
ENDBRANCH   9  12
ENDBRANCH   7  10
ENDBRANCH   1   7
BRANCH   4  18
ATOM     18  C   UNL     1      48.167   6.830  14.305  0.00  0.00    +0.000 C 
BRANCH  18  19
ATOM     19  N   UNL     1      48.022   6.569  15.715  0.00  0.00    +0.000 N 
ATOM     20  C   UNL     1      49.094   6.183  16.481  0.00  0.00    +0.000 C 
ATOM     21  O   UNL     1      50.224   6.085  16.009  0.00  0.00    +0.000 OA
ATOM     22  H   UNL     1      47.079   6.423  16.066  0.00  0.00    +0.000 HD
BRANCH  20  23
ATOM     23  C   UNL     1      48.841   5.953  17.909  0.00  0.00    +0.000 A 
ATOM     24  C   UNL     1      49.099   4.705  18.461  0.00  0.00    +0.000 A 
ATOM     25  S   UNL     1      48.803   4.621  20.138  0.00  0.00    +0.000 S 
ATOM     26  C   UNL     1      48.264   6.235  20.178  0.00  0.00    +0.000 A 
ATOM     27  N   UNL     1      47.826   6.795  21.337  0.00  0.00    +0.000 NA
ATOM     28  C   UNL     1      47.413   8.013  21.216  0.00  0.00    +0.000 A 
ATOM     29  N   UNL     1      47.402   8.721  20.045  0.00  0.00    +0.000 N 
ATOM     30  C   UNL     1      47.866   8.206  18.855  0.00  0.00    +0.000 A 
ATOM     31  O   UNL     1      47.887   8.882  17.832  0.00  0.00    +0.000 OA
ATOM     32  C   UNL     1      48.329   6.834  18.933  0.00  0.00    +0.000 A 
ATOM     33  H   UNL     1      47.072   9.674  20.017  0.00  0.00    +0.000 HD
ENDBRANCH  20  23
ENDBRANCH  18  19
ENDBRANCH   4  18
TORSDOF 6
ENDMDL
MODEL 4
REMARK VINA RESULT:    -7.802      3.393      6.055
REMARK INTER + INTRA:         -11.764
REMARK INTER:                 -10.815
REMARK INTRA:                  -0.948
REMARK UNBOUND:                -1.225
REMARK  Name = 
REMARK  6 active torsions:
REMARK  status: ('A' for Active; 'I' for Inactive)
REMARK    1  A    between atoms: C_2  and  C_25
REMARK    2  A    between atoms: N_3  and  C_4
REMARK    3  A    between atoms: C_4  and  C_5
REMARK    4  A    between atoms: C_8  and  C_9
REMARK    5  A    between atoms: C_9  and  N_10
REMARK    6  A    between atoms: C_11  and  C_13
REMARK                            x       y       z     vdW  Elec       q    Type
REMARK                         _______ _______ _______ _____ _____    ______ ____
ROOT
ATOM      1  C   UNL     1      46.775   2.167   6.629  0.00  0.00    +0.000 A 
ATOM      2  C   UNL     1      46.439   3.520   6.779  0.00  0.00    +0.000 A 
ATOM      3  C   UNL     1      45.712   3.956   7.892  0.00  0.00    +0.000 A 
ATOM      4  C   UNL     1      45.324   3.053   8.891  0.00  0.00    +0.000 A 
ATOM      5  C   UNL     1      45.670   1.703   8.745  0.00  0.00    +0.000 A 
ATOM      6  C   UNL     1      46.398   1.267   7.634  0.00  0.00    +0.000 A 
ENDROOT
BRANCH   1   7
ATOM      7  C   UNL     1      47.509   1.689   5.402  0.00  0.00    +0.000 C 
BRANCH   7  10
ATOM      8  O   UNL     1      46.680   0.674   2.949  0.00  0.00    +0.000 OA
ATOM      9  C   UNL     1      46.879  -0.108   3.871  0.00  0.00    +0.000 C 
ATOM     10  N   UNL     1      47.279   0.289   5.132  0.00  0.00    +0.000 N 
ATOM     11  H   UNL     1      47.633  -0.391   5.791  0.00  0.00    +0.000 HD
BRANCH   9  12
ATOM     12  C   UNL     1      46.724  -1.562   3.652  0.00  0.00    +0.000 A 
ATOM     13  C   UNL     1      46.642  -2.481   4.699  0.00  0.00    +0.000 A 
ATOM     14  C   UNL     1      46.489  -3.834   4.408  0.00  0.00    +0.000 A 
ATOM     15  C   UNL     1      46.421  -4.221   3.077  0.00  0.00    +0.000 A 
ATOM     16  N   UNL     1      46.481  -3.356   2.042  0.00  0.00    +0.000 NA
ATOM     17  C   UNL     1      46.620  -2.042   2.351  0.00  0.00    +0.000 A 
ENDBRANCH   9  12
ENDBRANCH   7  10
ENDBRANCH   1   7
BRANCH   4  18
ATOM     18  C   UNL     1      44.513   3.509  10.077  0.00  0.00    +0.000 C 
BRANCH  18  19
ATOM     19  N   UNL     1      45.068   4.698  10.674  0.00  0.00    +0.000 N 
ATOM     20  C   UNL     1      44.256   5.687  11.172  0.00  0.00    +0.000 C 
ATOM     21  O   UNL     1      43.033   5.584  11.168  0.00  0.00    +0.000 OA
ATOM     22  H   UNL     1      46.045   4.901  10.482  0.00  0.00    +0.000 HD
BRANCH  20  23
ATOM     23  C   UNL     1      44.923   6.852  11.771  0.00  0.00    +0.000 A 
ATOM     24  C   UNL     1      44.536   8.132  11.396  0.00  0.00    +0.000 A 
ATOM     25  S   UNL     1      45.369   9.370  12.222  0.00  0.00    +0.000 S 
ATOM     26  C   UNL     1      46.318   8.240  13.069  0.00  0.00    +0.000 A 
ATOM     27  N   UNL     1      47.276   8.649  13.944  0.00  0.00    +0.000 NA
ATOM     28  C   UNL     1      47.944   7.688  14.488  0.00  0.00    +0.000 A 
ATOM     29  N   UNL     1      47.739   6.358  14.243  0.00  0.00    +0.000 N 
ATOM     30  C   UNL     1      46.760   5.896  13.392  0.00  0.00    +0.000 A 
ATOM     31  O   UNL     1      46.570   4.696  13.229  0.00  0.00    +0.000 OA
ATOM     32  C   UNL     1      45.988   6.937  12.741  0.00  0.00    +0.000 A 
ATOM     33  H   UNL     1      48.292   5.652  14.707  0.00  0.00    +0.000 HD
ENDBRANCH  20  23
ENDBRANCH  18  19
ENDBRANCH   4  18
TORSDOF 6
ENDMDL
MODEL 5
REMARK VINA RESULT:    -6.918      3.727      8.461
REMARK INTER + INTRA:         -10.570
REMARK INTER:                  -9.687
REMARK INTRA:                  -0.883
REMARK UNBOUND:                -1.225
REMARK  Name = 
REMARK  6 active torsions:
REMARK  status: ('A' for Active; 'I' for Inactive)
REMARK    1  A    between atoms: C_2  and  C_25
REMARK    2  A    between atoms: N_3  and  C_4
REMARK    3  A    between atoms: C_4  and  C_5
REMARK    4  A    between atoms: C_8  and  C_9
REMARK    5  A    between atoms: C_9  and  N_10
REMARK    6  A    between atoms: C_11  and  C_13
REMARK                            x       y       z     vdW  Elec       q    Type
REMARK                         _______ _______ _______ _____ _____    ______ ____
ROOT
ATOM      1  C   UNL     1      50.141   7.173  15.762  0.00  0.00    +0.000 A 
ATOM      2  C   UNL     1      48.878   6.672  15.417  0.00  0.00    +0.000 A 
ATOM      3  C   UNL     1      48.313   6.956  14.168  0.00  0.00    +0.000 A 
ATOM      4  C   UNL     1      49.008   7.729  13.229  0.00  0.00    +0.000 A 
ATOM      5  C   UNL     1      50.276   8.220  13.571  0.00  0.00    +0.000 A 
ATOM      6  C   UNL     1      50.841   7.935  14.818  0.00  0.00    +0.000 A 
ENDROOT
BRANCH   1   7
ATOM      7  C   UNL     1      50.723   6.913  17.128  0.00  0.00    +0.000 C 
BRANCH   7  10
ATOM      8  O   UNL     1      49.594   4.622  18.228  0.00  0.00    +0.000 OA
ATOM      9  C   UNL     1      50.727   4.555  17.766  0.00  0.00    +0.000 C 
ATOM     10  N   UNL     1      51.387   5.633  17.210  0.00  0.00    +0.000 N 
ATOM     11  H   UNL     1      52.221   5.489  16.656  0.00  0.00    +0.000 HD
BRANCH   9  12
ATOM     12  C   UNL     1      51.446   3.262  17.759  0.00  0.00    +0.000 A 
ATOM     13  C   UNL     1      52.771   3.131  18.177  0.00  0.00    +0.000 A 
ATOM     14  C   UNL     1      53.374   1.875  18.146  0.00  0.00    +0.000 A 
ATOM     15  C   UNL     1      52.628   0.794  17.699  0.00  0.00    +0.000 A 
ATOM     16  N   UNL     1      51.340   0.885  17.304  0.00  0.00    +0.000 NA
ATOM     17  C   UNL     1      50.771   2.116  17.352  0.00  0.00    +0.000 A 
ENDBRANCH   9  12
ENDBRANCH   7  10
ENDBRANCH   1   7
BRANCH   4  18
ATOM     18  C   UNL     1      48.394   8.067  11.894  0.00  0.00    +0.000 C 
BRANCH  18  19
ATOM     19  N   UNL     1      47.676   6.946  11.342  0.00  0.00    +0.000 N 
ATOM     20  C   UNL     1      46.304   6.902  11.362  0.00  0.00    +0.000 C 
ATOM     21  O   UNL     1      45.633   7.828  11.811  0.00  0.00    +0.000 OA
ATOM     22  H   UNL     1      48.202   6.091  11.181  0.00  0.00    +0.000 HD
BRANCH  20  23
ATOM     23  C   UNL     1      45.670   5.720  10.762  0.00  0.00    +0.000 A 
ATOM     24  C   UNL     1      45.796   5.493   9.398  0.00  0.00    +0.000 A 
ATOM     25  S   UNL     1      45.049   4.053   8.870  0.00  0.00    +0.000 S 
ATOM     26  C   UNL     1      44.481   3.710  10.437  0.00  0.00    +0.000 A 
ATOM     27  N   UNL     1      43.726   2.605  10.679  0.00  0.00    +0.000 NA
ATOM     28  C   UNL     1      43.334   2.487  11.904  0.00  0.00    +0.000 A 
ATOM     29  N   UNL     1      43.631   3.369  12.907  0.00  0.00    +0.000 N 
ATOM     30  C   UNL     1      44.418   4.482  12.716  0.00  0.00    +0.000 A 
ATOM     31  O   UNL     1      44.705   5.228  13.646  0.00  0.00    +0.000 OA
ATOM     32  C   UNL     1      44.874   4.670  11.352  0.00  0.00    +0.000 A 
ATOM     33  H   UNL     1      43.298   3.217  13.848  0.00  0.00    +0.000 HD
ENDBRANCH  20  23
ENDBRANCH  18  19
ENDBRANCH   4  18
TORSDOF 6
ENDMDL
MODEL 6
REMARK VINA RESULT:    -6.901      3.229      8.821
REMARK INTER + INTRA:         -10.546
REMARK INTER:                  -9.638
REMARK INTRA:                  -0.909
REMARK UNBOUND:                -1.225
REMARK  Name = 
REMARK  6 active torsions:
REMARK  status: ('A' for Active; 'I' for Inactive)
REMARK    1  A    between atoms: C_2  and  C_25
REMARK    2  A    between atoms: N_3  and  C_4
REMARK    3  A    between atoms: C_4  and  C_5
REMARK    4  A    between atoms: C_8  and  C_9
REMARK    5  A    between atoms: C_9  and  N_10
REMARK    6  A    between atoms: C_11  and  C_13
REMARK                            x       y       z     vdW  Elec       q    Type
REMARK                         _______ _______ _______ _____ _____    ______ ____
ROOT
ATOM      1  C   UNL     1      50.006   7.328  15.580  0.00  0.00    +0.000 A 
ATOM      2  C   UNL     1      50.244   8.324  14.623  0.00  0.00    +0.000 A 
ATOM      3  C   UNL     1      49.414   8.452  13.503  0.00  0.00    +0.000 A 
ATOM      4  C   UNL     1      48.316   7.599  13.327  0.00  0.00    +0.000 A 
ATOM      5  C   UNL     1      48.073   6.611  14.291  0.00  0.00    +0.000 A 
ATOM      6  C   UNL     1      48.901   6.485  15.410  0.00  0.00    +0.000 A 
ENDROOT
BRANCH   1   7
ATOM      7  C   UNL     1      50.933   7.156  16.756  0.00  0.00    +0.000 C 
BRANCH   7  10
ATOM      8  O   UNL     1      49.982   5.218  18.510  0.00  0.00    +0.000 OA
ATOM      9  C   UNL     1      50.901   4.925  17.753  0.00  0.00    +0.000 C 
ATOM     10  N   UNL     1      51.457   5.814  16.854  0.00  0.00    +0.000 N 
ATOM     11  H   UNL     1      52.056   5.479  16.112  0.00  0.00    +0.000 HD
BRANCH   9  12
ATOM     12  C   UNL     1      51.448   3.551  17.753  0.00  0.00    +0.000 A 
ATOM     13  C   UNL     1      52.735   3.249  18.201  0.00  0.00    +0.000 A 
ATOM     14  C   UNL     1      53.172   1.927  18.174  0.00  0.00    +0.000 A 
ATOM     15  C   UNL     1      52.305   0.953  17.701  0.00  0.00    +0.000 A 
ATOM     16  N   UNL     1      51.050   1.210  17.275  0.00  0.00    +0.000 NA
ATOM     17  C   UNL     1      50.642   2.503  17.320  0.00  0.00    +0.000 A 
ENDBRANCH   9  12
ENDBRANCH   7  10
ENDBRANCH   1   7
BRANCH   4  18
ATOM     18  C   UNL     1      47.436   7.708  12.107  0.00  0.00    +0.000 C 
BRANCH  18  19
ATOM     19  N   UNL     1      46.772   6.461  11.820  0.00  0.00    +0.000 N 
ATOM     20  C   UNL     1      45.406   6.397  11.693  0.00  0.00    +0.000 C 
ATOM     21  O   UNL     1      44.701   7.399  11.777  0.00  0.00    +0.000 OA
ATOM     22  H   UNL     1      47.300   5.607  11.974  0.00  0.00    +0.000 HD
BRANCH  20  23
ATOM     23  C   UNL     1      44.830   5.081  11.387  0.00  0.00    +0.000 A 
ATOM     24  C   UNL     1      44.073   4.423  12.348  0.00  0.00    +0.000 A 
ATOM     25  S   UNL     1      43.433   2.934  11.817  0.00  0.00    +0.000 S 
ATOM     26  C   UNL     1      44.192   3.087  10.302  0.00  0.00    +0.000 A 
ATOM     27  N   UNL     1      44.072   2.114   9.359  0.00  0.00    +0.000 NA
ATOM     28  C   UNL     1      44.729   2.344   8.271  0.00  0.00    +0.000 A 
ATOM     29  N   UNL     1      45.489   3.457   8.038  0.00  0.00    +0.000 N 
ATOM     30  C   UNL     1      45.614   4.482   8.949  0.00  0.00    +0.000 A 
ATOM     31  O   UNL     1      46.265   5.489   8.692  0.00  0.00    +0.000 OA
ATOM     32  C   UNL     1      44.906   4.268  10.197  0.00  0.00    +0.000 A 
ATOM     33  H   UNL     1      45.975   3.581   7.162  0.00  0.00    +0.000 HD
ENDBRANCH  20  23
ENDBRANCH  18  19
ENDBRANCH   4  18
TORSDOF 6
ENDMDL
MODEL 7
REMARK VINA RESULT:    -6.847      5.089      9.623
REMARK INTER + INTRA:         -10.474
REMARK INTER:                  -9.792
REMARK INTRA:                  -0.682
REMARK UNBOUND:                -1.225
REMARK  Name = 
REMARK  6 active torsions:
REMARK  status: ('A' for Active; 'I' for Inactive)
REMARK    1  A    between atoms: C_2  and  C_25
REMARK    2  A    between atoms: N_3  and  C_4
REMARK    3  A    between atoms: C_4  and  C_5
REMARK    4  A    between atoms: C_8  and  C_9
REMARK    5  A    between atoms: C_9  and  N_10
REMARK    6  A    between atoms: C_11  and  C_13
REMARK                            x       y       z     vdW  Elec       q    Type
REMARK                         _______ _______ _______ _____ _____    ______ ____
ROOT
ATOM      1  C   UNL     1      51.351   2.797  17.683  0.00  0.00    +0.000 A 
ATOM      2  C   UNL     1      50.748   3.965  18.170  0.00  0.00    +0.000 A 
ATOM      3  C   UNL     1      49.387   4.210  17.953  0.00  0.00    +0.000 A 
ATOM      4  C   UNL     1      48.595   3.282  17.264  0.00  0.00    +0.000 A 
ATOM      5  C   UNL     1      49.197   2.109  16.787  0.00  0.00    +0.000 A 
ATOM      6  C   UNL     1      50.556   1.864  17.004  0.00  0.00    +0.000 A 
ENDROOT
BRANCH   1   7
ATOM      7  C   UNL     1      52.828   2.561  17.868  0.00  0.00    +0.000 C 
BRANCH   7  10
ATOM      8  O   UNL     1      54.710   1.113  19.317  0.00  0.00    +0.000 OA
ATOM      9  C   UNL     1      54.148   0.567  18.375  0.00  0.00    +0.000 C 
ATOM     10  N   UNL     1      53.209   1.197  17.582  0.00  0.00    +0.000 N 
ATOM     11  H   UNL     1      52.622   0.656  16.961  0.00  0.00    +0.000 HD
BRANCH   9  12
ATOM     12  C   UNL     1      54.441  -0.848  18.060  0.00  0.00    +0.000 A 
ATOM     13  C   UNL     1      54.228  -1.885  18.970  0.00  0.00    +0.000 A 
ATOM     14  C   UNL     1      54.524  -3.193  18.593  0.00  0.00    +0.000 A 
ATOM     15  C   UNL     1      55.021  -3.417  17.318  0.00  0.00    +0.000 A 
ATOM     16  N   UNL     1      55.223  -2.438  16.409  0.00  0.00    +0.000 NA
ATOM     17  C   UNL     1      54.918  -1.174  16.795  0.00  0.00    +0.000 A 
ENDBRANCH   9  12
ENDBRANCH   7  10
ENDBRANCH   1   7
BRANCH   4  18
ATOM     18  C   UNL     1      47.136   3.552  16.997  0.00  0.00    +0.000 C 
BRANCH  18  19
ATOM     19  N   UNL     1      46.960   4.566  15.988  0.00  0.00    +0.000 N 
ATOM     20  C   UNL     1      47.095   4.271  14.654  0.00  0.00    +0.000 C 
ATOM     21  O   UNL     1      47.328   3.130  14.264  0.00  0.00    +0.000 OA
ATOM     22  H   UNL     1      46.995   5.535  16.292  0.00  0.00    +0.000 HD
BRANCH  20  23
ATOM     23  C   UNL     1      46.882   5.374  13.707  0.00  0.00    +0.000 A 
ATOM     24  C   UNL     1      47.931   6.234  13.409  0.00  0.00    +0.000 A 
ATOM     25  S   UNL     1      47.535   7.425  12.254  0.00  0.00    +0.000 S 
ATOM     26  C   UNL     1      45.930   6.868  12.151  0.00  0.00    +0.000 A 
ATOM     27  N   UNL     1      45.029   7.484  11.340  0.00  0.00    +0.000 NA
ATOM     28  C   UNL     1      43.841   6.980  11.387  0.00  0.00    +0.000 A 
ATOM     29  N   UNL     1      43.473   5.916  12.166  0.00  0.00    +0.000 N 
ATOM     30  C   UNL     1      44.359   5.242  12.976  0.00  0.00    +0.000 A 
ATOM     31  O   UNL     1      44.010   4.262  13.626  0.00  0.00    +0.000 OA
ATOM     32  C   UNL     1      45.707   5.777  12.972  0.00  0.00    +0.000 A 
ATOM     33  H   UNL     1      42.527   5.565  12.153  0.00  0.00    +0.000 HD
ENDBRANCH  20  23
ENDBRANCH  18  19
ENDBRANCH   4  18
TORSDOF 6
ENDMDL
MODEL 8
REMARK VINA RESULT:    -6.799      4.285      7.125
REMARK INTER + INTRA:         -10.409
REMARK INTER:                  -9.441
REMARK INTRA:                  -0.968
REMARK UNBOUND:                -1.225
REMARK  Name = 
REMARK  6 active torsions:
REMARK  status: ('A' for Active; 'I' for Inactive)
REMARK    1  A    between atoms: C_2  and  C_25
REMARK    2  A    between atoms: N_3  and  C_4
REMARK    3  A    between atoms: C_4  and  C_5
REMARK    4  A    between atoms: C_8  and  C_9
REMARK    5  A    between atoms: C_9  and  N_10
REMARK    6  A    between atoms: C_11  and  C_13
REMARK                            x       y       z     vdW  Elec       q    Type
REMARK                         _______ _______ _______ _____ _____    ______ ____
ROOT
ATOM      1  C   UNL     1      45.008   9.276  11.832  0.00  0.00    +0.000 A 
ATOM      2  C   UNL     1      46.147   9.130  12.636  0.00  0.00    +0.000 A 
ATOM      3  C   UNL     1      46.587   7.861  13.028  0.00  0.00    +0.000 A 
ATOM      4  C   UNL     1      45.911   6.709  12.606  0.00  0.00    +0.000 A 
ATOM      5  C   UNL     1      44.779   6.855  11.793  0.00  0.00    +0.000 A 
ATOM      6  C   UNL     1      44.340   8.123  11.400  0.00  0.00    +0.000 A 
ENDROOT
BRANCH   1   7
ATOM      7  C   UNL     1      44.502  10.645  11.457  0.00  0.00    +0.000 C 
BRANCH   7  10
ATOM      8  O   UNL     1      42.222  10.525   9.868  0.00  0.00    +0.000 OA
ATOM      9  C   UNL     1      42.095  10.788  11.059  0.00  0.00    +0.000 C 
ATOM     10  N   UNL     1      43.159  10.887  11.933  0.00  0.00    +0.000 N 
ATOM     11  H   UNL     1      43.000  10.893  12.931  0.00  0.00    +0.000 HD
BRANCH   9  12
ATOM     12  C   UNL     1      40.746  10.987  11.631  0.00  0.00    +0.000 A 
ATOM     13  C   UNL     1      39.625  10.282  11.189  0.00  0.00    +0.000 A 
ATOM     14  C   UNL     1      38.390  10.524  11.786  0.00  0.00    +0.000 A 
ATOM     15  C   UNL     1      38.320  11.462  12.805  0.00  0.00    +0.000 A 
ATOM     16  N   UNL     1      39.387  12.148  13.266  0.00  0.00    +0.000 NA
ATOM     17  C   UNL     1      40.581  11.889  12.676  0.00  0.00    +0.000 A 
ENDBRANCH   9  12
ENDBRANCH   7  10
ENDBRANCH   1   7
BRANCH   4  18
ATOM     18  C   UNL     1      46.359   5.339  13.050  0.00  0.00    +0.000 C 
BRANCH  18  19
ATOM     19  N   UNL     1      46.878   5.361  14.395  0.00  0.00    +0.000 N 
ATOM     20  C   UNL     1      47.332   4.214  14.999  0.00  0.00    +0.000 C 
ATOM     21  O   UNL     1      47.355   3.137  14.409  0.00  0.00    +0.000 OA
ATOM     22  H   UNL     1      46.658   6.173  14.965  0.00  0.00    +0.000 HD
BRANCH  20  23
ATOM     23  C   UNL     1      47.852   4.348  16.367  0.00  0.00    +0.000 A 
ATOM     24  C   UNL     1      47.356   3.528  17.372  0.00  0.00    +0.000 A 
ATOM     25  S   UNL     1      48.101   3.772  18.887  0.00  0.00    +0.000 S 
ATOM     26  C   UNL     1      49.074   5.022  18.266  0.00  0.00    +0.000 A 
ATOM     27  N   UNL     1      49.943   5.694  19.069  0.00  0.00    +0.000 NA
ATOM     28  C   UNL     1      50.591   6.641  18.477  0.00  0.00    +0.000 A 
ATOM     29  N   UNL     1      50.454   6.973  17.156  0.00  0.00    +0.000 N 
ATOM     30  C   UNL     1      49.612   6.301  16.299  0.00  0.00    +0.000 A 
ATOM     31  O   UNL     1      49.545   6.593  15.110  0.00  0.00    +0.000 OA
ATOM     32  C   UNL     1      48.847   5.235  16.918  0.00  0.00    +0.000 A 
ATOM     33  H   UNL     1      50.996   7.722  16.750  0.00  0.00    +0.000 HD
ENDBRANCH  20  23
ENDBRANCH  18  19
ENDBRANCH   4  18
TORSDOF 6
ENDMDL
MODEL 9
REMARK VINA RESULT:    -6.281      4.242      9.884
REMARK INTER + INTRA:          -9.709
REMARK INTER:                  -8.782
REMARK INTRA:                  -0.927
REMARK UNBOUND:                -1.225
REMARK  Name = 
REMARK  6 active torsions:
REMARK  status: ('A' for Active; 'I' for Inactive)
REMARK    1  A    between atoms: C_2  and  C_25
REMARK    2  A    between atoms: N_3  and  C_4
REMARK    3  A    between atoms: C_4  and  C_5
REMARK    4  A    between atoms: C_8  and  C_9
REMARK    5  A    between atoms: C_9  and  N_10
REMARK    6  A    between atoms: C_11  and  C_13
REMARK                            x       y       z     vdW  Elec       q    Type
REMARK                         _______ _______ _______ _____ _____    ______ ____
ROOT
ATOM      1  C   UNL     1      51.456   3.808  17.723  0.00  0.00    +0.000 A 
ATOM      2  C   UNL     1      50.601   4.917  17.794  0.00  0.00    +0.000 A 
ATOM      3  C   UNL     1      49.237   4.787  17.507  0.00  0.00    +0.000 A 
ATOM      4  C   UNL     1      48.695   3.541  17.163  0.00  0.00    +0.000 A 
ATOM      5  C   UNL     1      49.549   2.431  17.104  0.00  0.00    +0.000 A 
ATOM      6  C   UNL     1      50.911   2.561  17.392  0.00  0.00    +0.000 A 
ENDROOT
BRANCH   1   7
ATOM      7  C   UNL     1      52.934   3.960  17.977  0.00  0.00    +0.000 C 
BRANCH   7  10
ATOM      8  O   UNL     1      54.518   5.507  16.293  0.00  0.00    +0.000 OA
ATOM      9  C   UNL     1      54.092   6.011  17.325  0.00  0.00    +0.000 C 
ATOM     10  N   UNL     1      53.310   5.331  18.238  0.00  0.00    +0.000 N 
ATOM     11  H   UNL     1      52.810   5.836  18.956  0.00  0.00    +0.000 HD
BRANCH   9  12
ATOM     12  C   UNL     1      54.385   7.429  17.629  0.00  0.00    +0.000 A 
ATOM     13  C   UNL     1      54.640   7.888  18.922  0.00  0.00    +0.000 A 
ATOM     14  C   UNL     1      54.914   9.239  19.123  0.00  0.00    +0.000 A 
ATOM     15  C   UNL     1      54.925  10.083  18.023  0.00  0.00    +0.000 A 
ATOM     16  N   UNL     1      54.698   9.667  16.758  0.00  0.00    +0.000 NA
ATOM     17  C   UNL     1      54.443   8.345  16.585  0.00  0.00    +0.000 A 
ENDBRANCH   9  12
ENDBRANCH   7  10
ENDBRANCH   1   7
BRANCH   4  18
ATOM     18  C   UNL     1      47.233   3.398  16.821  0.00  0.00    +0.000 C 
BRANCH  18  19
ATOM     19  N   UNL     1      46.813   4.391  15.865  0.00  0.00    +0.000 N 
ATOM     20  C   UNL     1      46.873   4.148  14.515  0.00  0.00    +0.000 C 
ATOM     21  O   UNL     1      47.246   3.066  14.069  0.00  0.00    +0.000 OA
ATOM     22  H   UNL     1      46.724   5.348  16.197  0.00  0.00    +0.000 HD
BRANCH  20  23
ATOM     23  C   UNL     1      46.408   5.221  13.627  0.00  0.00    +0.000 A 
ATOM     24  C   UNL     1      47.230   6.314  13.383  0.00  0.00    +0.000 A 
ATOM     25  S   UNL     1      46.566   7.442  12.290  0.00  0.00    +0.000 S 
ATOM     26  C   UNL     1      45.131   6.539  12.147  0.00  0.00    +0.000 A 
ATOM     27  N   UNL     1      44.107   6.975  11.364  0.00  0.00    +0.000 NA
ATOM     28  C   UNL     1      43.066   6.211  11.376  0.00  0.00    +0.000 A 
ATOM     29  N   UNL     1      42.957   5.051  12.094  0.00  0.00    +0.000 N 
ATOM     30  C   UNL     1      43.978   4.555  12.873  0.00  0.00    +0.000 A 
ATOM     31  O   UNL     1      43.867   3.488  13.468  0.00  0.00    +0.000 OA
ATOM     32  C   UNL     1      45.168   5.384  12.907  0.00  0.00    +0.000 A 
ATOM     33  H   UNL     1      42.116   4.493  12.056  0.00  0.00    +0.000 HD
ENDBRANCH  20  23
ENDBRANCH  18  19
ENDBRANCH   4  18
TORSDOF 6
ENDMDL
