MODEL 1
REMARK VINA RESULT:    -6.790      0.000      0.000
REMARK INTER + INTRA:         -10.415
REMARK INTER:                  -9.370
REMARK INTRA:                  -1.045
REMARK UNBOUND:                -1.045
REMARK  Name = 
REMARK  8 active torsions:
REMARK  status: ('A' for Active; 'I' for Inactive)
REMARK    1  A    between atoms: C_1  and  O_2
REMARK    2  A    between atoms: O_2  and  C_3
REMARK    3  A    between atoms: C_5  and  C_6
REMARK    4  A    between atoms: C_6  and  C_7
REMARK    5  A    between atoms: C_7  and  C_8
REMARK    6  A    between atoms: C_13  and  C_14
REMARK    7  A    between atoms: C_23  and  C_24
REMARK    8  A    between atoms: C_24  and  O_26
REMARK                            x       y       z     vdW  Elec       q    Type
REMARK                         _______ _______ _______ _____ _____    ______ ____
ROOT
ATOM      1  C   UNL     1      48.229   7.361  12.351  0.00  0.00    +0.000 C 
ENDROOT
BRANCH   1   2
ATOM      2  C   UNL     1      48.898   7.151  13.685  0.00  0.00    +0.000 A 
ATOM      3  C   UNL     1      50.156   7.703  13.937  0.00  0.00    +0.000 A 
ATOM      4  C   UNL     1      50.757   7.507  15.169  0.00  0.00    +0.000 A 
ATOM      5  F   UNL     1      51.958   8.047  15.411  0.00  0.00    +0.000 F 
ATOM      6  C   UNL     1      50.133   6.756  16.158  0.00  0.00    +0.000 A 
ATOM      7  C   UNL     1      48.881   6.165  15.932  0.00  0.00    +0.000 A 
ATOM      8  C   UNL     1      48.270   6.385  14.684  0.00  0.00    +0.000 A 
BRANCH   7   9
ATOM      9  C   UNL     1      48.164   5.312  16.974  0.00  0.00    +0.000 C 
ATOM     10  C   UNL     1      49.137   4.646  17.962  0.00  0.00    +0.000 C 
ATOM     11  C   UNL     1      49.802   3.408  17.368  0.00  0.00    +0.000 C 
ATOM     12  C   UNL     1      48.791   2.445  16.743  0.00  0.00    +0.000 C 
ATOM     13  N   UNL     1      47.880   3.097  15.806  0.00  0.00    +0.000 NA
ATOM     14  C   UNL     1      47.200   4.251  16.398  0.00  0.00    +0.000 C 
ATOM     15  H   UNL     1      47.194   2.427  15.460  0.00  0.00    +0.000 HD
ENDBRANCH   7   9
ENDBRANCH   1   2
BRANCH   1  16
ATOM     16  C   UNL     1      46.706   7.442  12.484  0.00  0.00    +0.000 C 
BRANCH  16  19
ATOM     17  C   UNL     1      45.135   4.829  10.227  0.00  0.00    +0.000 A 
ATOM     18  C   UNL     1      45.801   5.982  10.653  0.00  0.00    +0.000 A 
ATOM     19  C   UNL     1      46.000   6.191  12.017  0.00  0.00    +0.000 A 
ATOM     20  N   UNL     1      45.573   5.310  12.947  0.00  0.00    +0.000 NA
ATOM     21  C   UNL     1      44.914   4.208  12.519  0.00  0.00    +0.000 A 
ATOM     22  C   UNL     1      44.658   3.923  11.184  0.00  0.00    +0.000 A 
BRANCH  17  24
ATOM     23  C   UNL     1      46.018   4.265   8.089  0.00  0.00    +0.000 C 
ATOM     24  O   UNL     1      44.882   4.555   8.904  0.00  0.00    +0.000 OA
ENDBRANCH  17  24
BRANCH  22  25
ATOM     25  C   UNL     1      43.915   2.668  10.903  0.00  0.00    +0.000 C 
ATOM     26  O   UNL     1      42.927   2.342  11.547  0.00  0.00    +0.000 OA
BRANCH  25  27
ATOM     27  O   UNL     1      44.394   1.916   9.896  0.00  0.00    +0.000 OA
ATOM     28  H   UNL     1      44.857   1.108  10.200  0.00  0.00    +0.000 HD
ENDBRANCH  25  27
ENDBRANCH  22  25
ENDBRANCH  16  19
ENDBRANCH   1  16
TORSDOF 7
ENDMDL
MODEL 2
REMARK VINA RESULT:    -6.773      3.617      6.720
REMARK INTER + INTRA:         -10.392
REMARK INTER:                  -9.438
REMARK INTRA:                  -0.954
REMARK UNBOUND:                -1.045
REMARK  Name = 
REMARK  8 active torsions:
REMARK  status: ('A' for Active; 'I' for Inactive)
REMARK    1  A    between atoms: C_1  and  O_2
REMARK    2  A    between atoms: O_2  and  C_3
REMARK    3  A    between atoms: C_5  and  C_6
REMARK    4  A    between atoms: C_6  and  C_7
REMARK    5  A    between atoms: C_7  and  C_8
REMARK    6  A    between atoms: C_13  and  C_14
REMARK    7  A    between atoms: C_23  and  C_24
REMARK    8  A    between atoms: C_24  and  O_26
REMARK                            x       y       z     vdW  Elec       q    Type
REMARK                         _______ _______ _______ _____ _____    ______ ____
ROOT
ATOM      1  C   UNL     1      48.837   7.140  12.627  0.00  0.00    +0.000 C 
ENDROOT
BRANCH   1   2
ATOM      2  C   UNL     1      47.407   7.416  12.239  0.00  0.00    +0.000 A 
ATOM      3  C   UNL     1      46.876   8.700  12.375  0.00  0.00    +0.000 A 
ATOM      4  C   UNL     1      45.562   8.942  12.010  0.00  0.00    +0.000 A 
ATOM      5  F   UNL     1      45.060  10.177  12.130  0.00  0.00    +0.000 F 
ATOM      6  C   UNL     1      44.757   7.920  11.521  0.00  0.00    +0.000 A 
ATOM      7  C   UNL     1      45.249   6.612  11.394  0.00  0.00    +0.000 A 
ATOM      8  C   UNL     1      46.589   6.381  11.751  0.00  0.00    +0.000 A 
BRANCH   7   9
ATOM      9  C   UNL     1      44.400   5.450  10.886  0.00  0.00    +0.000 C 
ATOM     10  C   UNL     1      42.942   5.529  11.371  0.00  0.00    +0.000 C 
ATOM     11  C   UNL     1      42.788   5.047  12.811  0.00  0.00    +0.000 C 
ATOM     12  C   UNL     1      43.451   3.689  13.046  0.00  0.00    +0.000 C 
ATOM     13  N   UNL     1      44.835   3.638  12.582  0.00  0.00    +0.000 NA
ATOM     14  C   UNL     1      44.972   4.046  11.183  0.00  0.00    +0.000 C 
ATOM     15  H   UNL     1      45.213   2.699  12.711  0.00  0.00    +0.000 HD
ENDBRANCH   7   9
ENDBRANCH   1   2
BRANCH   1  16
ATOM     16  C   UNL     1      49.123   7.544  14.075  0.00  0.00    +0.000 C 
BRANCH  16  19
ATOM     17  C   UNL     1      48.484   5.768  17.366  0.00  0.00    +0.000 A 
ATOM     18  C   UNL     1      48.906   6.726  16.439  0.00  0.00    +0.000 A 
ATOM     19  C   UNL     1      48.657   6.520  15.083  0.00  0.00    +0.000 A 
ATOM     20  N   UNL     1      48.014   5.422  14.631  0.00  0.00    +0.000 NA
ATOM     21  C   UNL     1      47.629   4.495  15.540  0.00  0.00    +0.000 A 
ATOM     22  C   UNL     1      47.844   4.609  16.907  0.00  0.00    +0.000 A 
BRANCH  17  24
ATOM     23  C   UNL     1      47.857   6.793  19.421  0.00  0.00    +0.000 C 
ATOM     24  O   UNL     1      48.705   5.885  18.717  0.00  0.00    +0.000 OA
ENDBRANCH  17  24
BRANCH  22  25
ATOM     25  C   UNL     1      47.356   3.489  17.751  0.00  0.00    +0.000 C 
ATOM     26  O   UNL     1      46.371   2.831  17.450  0.00  0.00    +0.000 OA
BRANCH  25  27
ATOM     27  O   UNL     1      48.068   3.243  18.867  0.00  0.00    +0.000 OA
ATOM     28  H   UNL     1      49.030   3.402  18.758  0.00  0.00    +0.000 HD
ENDBRANCH  25  27
ENDBRANCH  22  25
ENDBRANCH  16  19
ENDBRANCH   1  16
TORSDOF 7
ENDMDL
MODEL 3
REMARK VINA RESULT:    -6.520      1.915      2.393
REMARK INTER + INTRA:         -10.043
REMARK INTER:                  -8.869
REMARK INTRA:                  -1.173
REMARK UNBOUND:                -1.045
REMARK  Name = 
REMARK  8 active torsions:
REMARK  status: ('A' for Active; 'I' for Inactive)
REMARK    1  A    between atoms: C_1  and  O_2
REMARK    2  A    between atoms: O_2  and  C_3
REMARK    3  A    between atoms: C_5  and  C_6
REMARK    4  A    between atoms: C_6  and  C_7
REMARK    5  A    between atoms: C_7  and  C_8
REMARK    6  A    between atoms: C_13  and  C_14
REMARK    7  A    between atoms: C_23  and  C_24
REMARK    8  A    between atoms: C_24  and  O_26
REMARK                            x       y       z     vdW  Elec       q    Type
REMARK                         _______ _______ _______ _____ _____    ______ ____
ROOT
ATOM      1  C   UNL     1      48.932   8.308  13.679  0.00  0.00    +0.000 C 
ENDROOT
BRANCH   1   2
ATOM      2  C   UNL     1      49.589   7.555  14.808  0.00  0.00    +0.000 A 
ATOM      3  C   UNL     1      50.951   7.720  15.067  0.00  0.00    +0.000 A 
ATOM      4  C   UNL     1      51.540   7.027  16.110  0.00  0.00    +0.000 A 
ATOM      5  F   UNL     1      52.844   7.197  16.363  0.00  0.00    +0.000 F 
ATOM      6  C   UNL     1      50.798   6.156  16.899  0.00  0.00    +0.000 A 
ATOM      7  C   UNL     1      49.433   5.945  16.653  0.00  0.00    +0.000 A 
ATOM      8  C   UNL     1      48.840   6.667  15.602  0.00  0.00    +0.000 A 
BRANCH   7   9
ATOM      9  C   UNL     1      48.580   4.982  17.472  0.00  0.00    +0.000 C 
ATOM     10  C   UNL     1      49.426   3.962  18.253  0.00  0.00    +0.000 C 
ATOM     11  C   UNL     1      49.911   2.818  17.366  0.00  0.00    +0.000 C 
ATOM     12  C   UNL     1      48.780   2.194  16.547  0.00  0.00    +0.000 C 
ATOM     13  N   UNL     1      47.992   3.180  15.811  0.00  0.00    +0.000 NA
ATOM     14  C   UNL     1      47.480   4.245  16.676  0.00  0.00    +0.000 C 
ATOM     15  H   UNL     1      47.221   2.721  15.327  0.00  0.00    +0.000 HD
ENDBRANCH   7   9
ENDBRANCH   1   2
BRANCH   1  16
ATOM     16  C   UNL     1      48.604   7.391  12.498  0.00  0.00    +0.000 C 
BRANCH  16  19
ATOM     17  C   UNL     1      45.575   5.139  12.881  0.00  0.00    +0.000 A 
ATOM     18  C   UNL     1      46.899   5.591  12.890  0.00  0.00    +0.000 A 
ATOM     19  C   UNL     1      47.175   6.901  12.503  0.00  0.00    +0.000 A 
ATOM     20  N   UNL     1      46.202   7.756  12.122  0.00  0.00    +0.000 NA
ATOM     21  C   UNL     1      44.928   7.297  12.100  0.00  0.00    +0.000 A 
ATOM     22  C   UNL     1      44.560   6.006  12.456  0.00  0.00    +0.000 A 
BRANCH  17  24
ATOM     23  C   UNL     1      45.138   2.911  12.164  0.00  0.00    +0.000 C 
ATOM     24  O   UNL     1      45.219   3.858  13.230  0.00  0.00    +0.000 OA
ENDBRANCH  17  24
BRANCH  22  25
ATOM     25  C   UNL     1      43.115   5.679  12.364  0.00  0.00    +0.000 C 
ATOM     26  O   UNL     1      42.506   5.720  11.304  0.00  0.00    +0.000 OA
BRANCH  25  27
ATOM     27  O   UNL     1      42.518   5.332  13.519  0.00  0.00    +0.000 OA
ATOM     28  H   UNL     1      42.530   4.366  13.689  0.00  0.00    +0.000 HD
ENDBRANCH  25  27
ENDBRANCH  22  25
ENDBRANCH  16  19
ENDBRANCH   1  16
TORSDOF 7
ENDMDL
MODEL 4
REMARK VINA RESULT:    -6.417      4.703      8.197
REMARK INTER + INTRA:          -9.901
REMARK INTER:                  -8.822
REMARK INTRA:                  -1.079
REMARK UNBOUND:                -1.045
REMARK  Name = 
REMARK  8 active torsions:
REMARK  status: ('A' for Active; 'I' for Inactive)
REMARK    1  A    between atoms: C_1  and  O_2
REMARK    2  A    between atoms: O_2  and  C_3
REMARK    3  A    between atoms: C_5  and  C_6
REMARK    4  A    between atoms: C_6  and  C_7
REMARK    5  A    between atoms: C_7  and  C_8
REMARK    6  A    between atoms: C_13  and  C_14
REMARK    7  A    between atoms: C_23  and  C_24
REMARK    8  A    between atoms: C_24  and  O_26
REMARK                            x       y       z     vdW  Elec       q    Type
REMARK                         _______ _______ _______ _____ _____    ______ ____
ROOT
ATOM      1  C   UNL     1      47.362   4.114  16.315  0.00  0.00    +0.000 C 
ENDROOT
BRANCH   1   2
ATOM      2  C   UNL     1      47.162   4.748  14.963  0.00  0.00    +0.000 A 
ATOM      3  C   UNL     1      47.879   5.894  14.609  0.00  0.00    +0.000 A 
ATOM      4  C   UNL     1      47.690   6.464  13.362  0.00  0.00    +0.000 A 
ATOM      5  F   UNL     1      48.387   7.555  13.022  0.00  0.00    +0.000 F 
ATOM      6  C   UNL     1      46.786   5.920  12.457  0.00  0.00    +0.000 A 
ATOM      7  C   UNL     1      46.030   4.785  12.787  0.00  0.00    +0.000 A 
ATOM      8  C   UNL     1      46.242   4.203  14.050  0.00  0.00    +0.000 A 
BRANCH   7   9
ATOM      9  C   UNL     1      45.007   4.164  11.840  0.00  0.00    +0.000 C 
ATOM     10  C   UNL     1      44.584   5.125  10.716  0.00  0.00    +0.000 C 
ATOM     11  C   UNL     1      43.560   6.152  11.191  0.00  0.00    +0.000 C 
ATOM     12  C   UNL     1      42.388   5.507  11.934  0.00  0.00    +0.000 C 
ATOM     13  N   UNL     1      42.812   4.602  12.999  0.00  0.00    +0.000 NA
ATOM     14  C   UNL     1      43.751   3.582  12.527  0.00  0.00    +0.000 C 
ATOM     15  H   UNL     1      42.000   4.158  13.426  0.00  0.00    +0.000 HD
ENDBRANCH   7   9
ENDBRANCH   1   2
BRANCH   1  16
ATOM     16  C   UNL     1      48.045   2.748  16.208  0.00  0.00    +0.000 C 
BRANCH  16  19
ATOM     17  C   UNL     1      51.136   3.788  18.145  0.00  0.00    +0.000 A 
ATOM     18  C   UNL     1      49.862   3.818  17.570  0.00  0.00    +0.000 A 
ATOM     19  C   UNL     1      49.416   2.716  16.843  0.00  0.00    +0.000 A 
ATOM     20  N   UNL     1      50.175   1.612  16.676  0.00  0.00    +0.000 NA
ATOM     21  C   UNL     1      51.414   1.608  17.222  0.00  0.00    +0.000 A 
ATOM     22  C   UNL     1      51.947   2.662  17.952  0.00  0.00    +0.000 A 
BRANCH  17  24
ATOM     23  C   UNL     1      50.942   5.224  20.035  0.00  0.00    +0.000 C 
ATOM     24  O   UNL     1      51.660   4.838  18.862  0.00  0.00    +0.000 OA
ENDBRANCH  17  24
BRANCH  22  25
ATOM     25  C   UNL     1      53.327   2.480  18.470  0.00  0.00    +0.000 C 
ATOM     26  O   UNL     1      54.274   2.261  17.729  0.00  0.00    +0.000 OA
BRANCH  25  27
ATOM     27  O   UNL     1      53.468   2.574  19.805  0.00  0.00    +0.000 OA
ATOM     28  H   UNL     1      54.394   2.462  20.107  0.00  0.00    +0.000 HD
ENDBRANCH  25  27
ENDBRANCH  22  25
ENDBRANCH  16  19
ENDBRANCH   1  16
TORSDOF 7
ENDMDL
MODEL 5
REMARK VINA RESULT:    -6.289      4.035      7.095
REMARK INTER + INTRA:          -9.724
REMARK INTER:                  -8.488
REMARK INTRA:                  -1.236
REMARK UNBOUND:                -1.045
REMARK  Name = 
REMARK  8 active torsions:
REMARK  status: ('A' for Active; 'I' for Inactive)
REMARK    1  A    between atoms: C_1  and  O_2
REMARK    2  A    between atoms: O_2  and  C_3
REMARK    3  A    between atoms: C_5  and  C_6
REMARK    4  A    between atoms: C_6  and  C_7
REMARK    5  A    between atoms: C_7  and  C_8
REMARK    6  A    between atoms: C_13  and  C_14
REMARK    7  A    between atoms: C_23  and  C_24
REMARK    8  A    between atoms: C_24  and  O_26
REMARK                            x       y       z     vdW  Elec       q    Type
REMARK                         _______ _______ _______ _____ _____    ______ ____
ROOT
ATOM      1  C   UNL     1      48.951   6.953  12.616  0.00  0.00    +0.000 C 
ENDROOT
BRANCH   1   2
ATOM      2  C   UNL     1      47.524   7.289  12.265  0.00  0.00    +0.000 A 
ATOM      3  C   UNL     1      47.032   8.579  12.472  0.00  0.00    +0.000 A 
ATOM      4  C   UNL     1      45.721   8.876  12.140  0.00  0.00    +0.000 A 
ATOM      5  F   UNL     1      45.256  10.117  12.329  0.00  0.00    +0.000 F 
ATOM      6  C   UNL     1      44.880   7.903  11.613  0.00  0.00    +0.000 A 
ATOM      7  C   UNL     1      45.332   6.590  11.414  0.00  0.00    +0.000 A 
ATOM      8  C   UNL     1      46.670   6.303  11.738  0.00  0.00    +0.000 A 
BRANCH   7   9
ATOM      9  C   UNL     1      44.442   5.479  10.862  0.00  0.00    +0.000 C 
ATOM     10  C   UNL     1      42.988   5.590  11.351  0.00  0.00    +0.000 C 
ATOM     11  C   UNL     1      42.816   5.059  12.772  0.00  0.00    +0.000 C 
ATOM     12  C   UNL     1      43.430   3.670  12.953  0.00  0.00    +0.000 C 
ATOM     13  N   UNL     1      44.812   3.588  12.487  0.00  0.00    +0.000 NA
ATOM     14  C   UNL     1      44.964   4.045  11.104  0.00  0.00    +0.000 C 
ATOM     15  H   UNL     1      45.157   2.632  12.578  0.00  0.00    +0.000 HD
ENDBRANCH   7   9
ENDBRANCH   1   2
BRANCH   1  16
ATOM     16  C   UNL     1      49.452   7.774  13.807  0.00  0.00    +0.000 C 
BRANCH  16  19
ATOM     17  C   UNL     1      48.725   5.561  16.801  0.00  0.00    +0.000 A 
ATOM     18  C   UNL     1      48.546   6.311  15.634  0.00  0.00    +0.000 A 
ATOM     19  C   UNL     1      49.642   6.951  15.060  0.00  0.00    +0.000 A 
ATOM     20  N   UNL     1      50.880   6.869  15.592  0.00  0.00    +0.000 NA
ATOM     21  C   UNL     1      51.033   6.156  16.733  0.00  0.00    +0.000 A 
ATOM     22  C   UNL     1      49.999   5.495  17.382  0.00  0.00    +0.000 A 
BRANCH  17  24
ATOM     23  C   UNL     1      47.066   3.855  16.717  0.00  0.00    +0.000 C 
ATOM     24  O   UNL     1      47.695   4.913  17.441  0.00  0.00    +0.000 OA
ENDBRANCH  17  24
BRANCH  22  25
ATOM     25  C   UNL     1      50.354   4.767  18.626  0.00  0.00    +0.000 C 
ATOM     26  O   UNL     1      50.968   5.302  19.538  0.00  0.00    +0.000 OA
BRANCH  25  27
ATOM     27  O   UNL     1      49.955   3.483  18.688  0.00  0.00    +0.000 OA
ATOM     28  H   UNL     1      49.777   3.088  17.808  0.00  0.00    +0.000 HD
ENDBRANCH  25  27
ENDBRANCH  22  25
ENDBRANCH  16  19
ENDBRANCH   1  16
TORSDOF 7
ENDMDL
MODEL 6
REMARK VINA RESULT:    -6.254      2.646      4.124
REMARK INTER + INTRA:          -9.675
REMARK INTER:                  -8.828
REMARK INTRA:                  -0.847
REMARK UNBOUND:                -1.045
REMARK  Name = 
REMARK  8 active torsions:
REMARK  status: ('A' for Active; 'I' for Inactive)
REMARK    1  A    between atoms: C_1  and  O_2
REMARK    2  A    between atoms: O_2  and  C_3
REMARK    3  A    between atoms: C_5  and  C_6
REMARK    4  A    between atoms: C_6  and  C_7
REMARK    5  A    between atoms: C_7  and  C_8
REMARK    6  A    between atoms: C_13  and  C_14
REMARK    7  A    between atoms: C_23  and  C_24
REMARK    8  A    between atoms: C_24  and  O_26
REMARK                            x       y       z     vdW  Elec       q    Type
REMARK                         _______ _______ _______ _____ _____    ______ ____
ROOT
ATOM      1  C   UNL     1      47.363   3.674  16.008  0.00  0.00    +0.000 C 
ENDROOT
BRANCH   1   2
ATOM      2  C   UNL     1      48.690   3.495  16.701  0.00  0.00    +0.000 A 
ATOM      3  C   UNL     1      49.342   2.261  16.665  0.00  0.00    +0.000 A 
ATOM      4  C   UNL     1      50.563   2.112  17.301  0.00  0.00    +0.000 A 
ATOM      5  F   UNL     1      51.191   0.931  17.254  0.00  0.00    +0.000 F 
ATOM      6  C   UNL     1      51.145   3.170  17.988  0.00  0.00    +0.000 A 
ATOM      7  C   UNL     1      50.507   4.417  18.067  0.00  0.00    +0.000 A 
ATOM      8  C   UNL     1      49.276   4.564  17.403  0.00  0.00    +0.000 A 
BRANCH   7   9
ATOM      9  C   UNL     1      51.091   5.603  18.829  0.00  0.00    +0.000 C 
ATOM     10  C   UNL     1      51.775   5.182  20.141  0.00  0.00    +0.000 C 
ATOM     11  C   UNL     1      50.768   4.926  21.259  0.00  0.00    +0.000 C 
ATOM     12  C   UNL     1      49.768   6.073  21.417  0.00  0.00    +0.000 C 
ATOM     13  N   UNL     1      49.127   6.453  20.161  0.00  0.00    +0.000 NA
ATOM     14  C   UNL     1      50.098   6.753  19.106  0.00  0.00    +0.000 C 
ATOM     15  H   UNL     1      48.513   7.253  20.309  0.00  0.00    +0.000 HD
ENDBRANCH   7   9
ENDBRANCH   1   2
BRANCH   1  16
ATOM     16  C   UNL     1      47.339   4.936  15.142  0.00  0.00    +0.000 C 
BRANCH  16  19
ATOM     17  C   UNL     1      45.354   5.764  12.017  0.00  0.00    +0.000 A 
ATOM     18  C   UNL     1      46.127   5.913  13.172  0.00  0.00    +0.000 A 
ATOM     19  C   UNL     1      46.515   4.780  13.886  0.00  0.00    +0.000 A 
ATOM     20  N   UNL     1      46.170   3.535  13.495  0.00  0.00    +0.000 NA
ATOM     21  C   UNL     1      45.405   3.409  12.385  0.00  0.00    +0.000 A 
ATOM     22  C   UNL     1      44.962   4.479  11.619  0.00  0.00    +0.000 A 
BRANCH  17  24
ATOM     23  C   UNL     1      45.174   8.128  11.798  0.00  0.00    +0.000 C 
ATOM     24  O   UNL     1      44.915   6.828  11.266  0.00  0.00    +0.000 OA
ENDBRANCH  17  24
BRANCH  22  25
ATOM     25  C   UNL     1      44.125   4.148  10.438  0.00  0.00    +0.000 C 
ATOM     26  O   UNL     1      44.221   3.078   9.854  0.00  0.00    +0.000 OA
BRANCH  25  27
ATOM     27  O   UNL     1      43.254   5.099  10.052  0.00  0.00    +0.000 OA
ATOM     28  H   UNL     1      42.939   4.987   9.130  0.00  0.00    +0.000 HD
ENDBRANCH  25  27
ENDBRANCH  22  25
ENDBRANCH  16  19
ENDBRANCH   1  16
TORSDOF 7
ENDMDL
MODEL 7
REMARK VINA RESULT:    -6.176      1.789      2.032
REMARK INTER + INTRA:          -9.568
REMARK INTER:                  -8.876
REMARK INTRA:                  -0.693
REMARK UNBOUND:                -1.045
REMARK  Name = 
REMARK  8 active torsions:
REMARK  status: ('A' for Active; 'I' for Inactive)
REMARK    1  A    between atoms: C_1  and  O_2
REMARK    2  A    between atoms: O_2  and  C_3
REMARK    3  A    between atoms: C_5  and  C_6
REMARK    4  A    between atoms: C_6  and  C_7
REMARK    5  A    between atoms: C_7  and  C_8
REMARK    6  A    between atoms: C_13  and  C_14
REMARK    7  A    between atoms: C_23  and  C_24
REMARK    8  A    between atoms: C_24  and  O_26
REMARK                            x       y       z     vdW  Elec       q    Type
REMARK                         _______ _______ _______ _____ _____    ______ ____
ROOT
ATOM      1  C   UNL     1      48.805   7.000  13.025  0.00  0.00    +0.000 C 
ENDROOT
BRANCH   1   2
ATOM      2  C   UNL     1      48.729   7.404  14.475  0.00  0.00    +0.000 A 
ATOM      3  C   UNL     1      48.540   8.743  14.824  0.00  0.00    +0.000 A 
ATOM      4  C   UNL     1      48.467   9.100  16.160  0.00  0.00    +0.000 A 
ATOM      5  F   UNL     1      48.274  10.383  16.491  0.00  0.00    +0.000 F 
ATOM      6  C   UNL     1      48.592   8.147  17.163  0.00  0.00    +0.000 A 
ATOM      7  C   UNL     1      48.808   6.796  16.850  0.00  0.00    +0.000 A 
ATOM      8  C   UNL     1      48.863   6.440  15.491  0.00  0.00    +0.000 A 
BRANCH   7   9
ATOM      9  C   UNL     1      48.976   5.714  17.913  0.00  0.00    +0.000 C 
ATOM     10  C   UNL     1      49.482   4.385  17.326  0.00  0.00    +0.000 C 
ATOM     11  C   UNL     1      48.366   3.590  16.655  0.00  0.00    +0.000 C 
ATOM     12  C   UNL     1      47.133   3.447  17.549  0.00  0.00    +0.000 C 
ATOM     13  N   UNL     1      46.667   4.721  18.092  0.00  0.00    +0.000 NA
ATOM     14  C   UNL     1      47.727   5.455  18.785  0.00  0.00    +0.000 C 
ATOM     15  H   UNL     1      45.880   4.566  18.722  0.00  0.00    +0.000 HD
ENDBRANCH   7   9
ENDBRANCH   1   2
BRANCH   1  16
ATOM     16  C   UNL     1      47.726   7.688  12.184  0.00  0.00    +0.000 C 
BRANCH  16  19
ATOM     17  C   UNL     1      45.216   5.310  10.624  0.00  0.00    +0.000 A 
ATOM     18  C   UNL     1      46.363   6.087  10.813  0.00  0.00    +0.000 A 
ATOM     19  C   UNL     1      46.496   6.835  11.981  0.00  0.00    +0.000 A 
ATOM     20  N   UNL     1      45.551   6.832  12.946  0.00  0.00    +0.000 NA
ATOM     21  C   UNL     1      44.438   6.089  12.739  0.00  0.00    +0.000 A 
ATOM     22  C   UNL     1      44.213   5.323  11.603  0.00  0.00    +0.000 A 
BRANCH  17  24
ATOM     23  C   UNL     1      45.917   4.750   8.419  0.00  0.00    +0.000 C 
ATOM     24  O   UNL     1      44.998   4.557   9.495  0.00  0.00    +0.000 OA
ENDBRANCH  17  24
BRANCH  22  25
ATOM     25  C   UNL     1      42.930   4.578  11.547  0.00  0.00    +0.000 C 
ATOM     26  O   UNL     1      42.888   3.356  11.568  0.00  0.00    +0.000 OA
BRANCH  25  27
ATOM     27  O   UNL     1      41.817   5.332  11.476  0.00  0.00    +0.000 OA
ATOM     28  H   UNL     1      41.507   5.483  10.559  0.00  0.00    +0.000 HD
ENDBRANCH  25  27
ENDBRANCH  22  25
ENDBRANCH  16  19
ENDBRANCH   1  16
TORSDOF 7
ENDMDL
MODEL 8
REMARK VINA RESULT:    -6.000      4.528      8.074
REMARK INTER + INTRA:          -9.325
REMARK INTER:                  -8.268
REMARK INTRA:                  -1.057
REMARK UNBOUND:                -1.045
REMARK  Name = 
REMARK  8 active torsions:
REMARK  status: ('A' for Active; 'I' for Inactive)
REMARK    1  A    between atoms: C_1  and  O_2
REMARK    2  A    between atoms: O_2  and  C_3
REMARK    3  A    between atoms: C_5  and  C_6
REMARK    4  A    between atoms: C_6  and  C_7
REMARK    5  A    between atoms: C_7  and  C_8
REMARK    6  A    between atoms: C_13  and  C_14
REMARK    7  A    between atoms: C_23  and  C_24
REMARK    8  A    between atoms: C_24  and  O_26
REMARK                            x       y       z     vdW  Elec       q    Type
REMARK                         _______ _______ _______ _____ _____    ______ ____
ROOT
ATOM      1  C   UNL     1      47.131   3.510  14.734  0.00  0.00    +0.000 C 
ENDROOT
BRANCH   1   2
ATOM      2  C   UNL     1      46.664   4.361  13.581  0.00  0.00    +0.000 A 
ATOM      3  C   UNL     1      47.196   5.638  13.387  0.00  0.00    +0.000 A 
ATOM      4  C   UNL     1      46.762   6.407  12.320  0.00  0.00    +0.000 A 
ATOM      5  F   UNL     1      47.283   7.625  12.130  0.00  0.00    +0.000 F 
ATOM      6  C   UNL     1      45.793   5.933  11.444  0.00  0.00    +0.000 A 
ATOM      7  C   UNL     1      45.217   4.666  11.623  0.00  0.00    +0.000 A 
ATOM      8  C   UNL     1      45.677   3.885  12.698  0.00  0.00    +0.000 A 
BRANCH   7   9
ATOM      9  C   UNL     1      44.133   4.109  10.705  0.00  0.00    +0.000 C 
ATOM     10  C   UNL     1      44.311   2.607  10.426  0.00  0.00    +0.000 C 
ATOM     11  C   UNL     1      45.380   2.340   9.369  0.00  0.00    +0.000 C 
ATOM     12  C   UNL     1      45.181   3.189   8.112  0.00  0.00    +0.000 C 
ATOM     13  N   UNL     1      45.018   4.612   8.399  0.00  0.00    +0.000 NA
ATOM     14  C   UNL     1      43.953   4.868   9.371  0.00  0.00    +0.000 C 
ATOM     15  H   UNL     1      44.835   5.125   7.538  0.00  0.00    +0.000 HD
ENDBRANCH   7   9
ENDBRANCH   1   2
BRANCH   1  16
ATOM     16  C   UNL     1      47.221   4.312  16.034  0.00  0.00    +0.000 C 
BRANCH  16  19
ATOM     17  C   UNL     1      50.526   5.522  17.451  0.00  0.00    +0.000 A 
ATOM     18  C   UNL     1      49.239   5.526  16.904  0.00  0.00    +0.000 A 
ATOM     19  C   UNL     1      48.606   4.314  16.638  0.00  0.00    +0.000 A 
ATOM     20  N   UNL     1      49.195   3.126  16.896  0.00  0.00    +0.000 NA
ATOM     21  C   UNL     1      50.448   3.139  17.408  0.00  0.00    +0.000 A 
ATOM     22  C   UNL     1      51.161   4.296  17.693  0.00  0.00    +0.000 A 
BRANCH  17  24
ATOM     23  C   UNL     1      50.467   7.773  18.223  0.00  0.00    +0.000 C 
ATOM     24  O   UNL     1      51.227   6.671  17.726  0.00  0.00    +0.000 OA
ENDBRANCH  17  24
BRANCH  22  25
ATOM     25  C   UNL     1      52.527   4.115  18.245  0.00  0.00    +0.000 C 
ATOM     26  O   UNL     1      52.776   3.276  19.098  0.00  0.00    +0.000 OA
BRANCH  25  27
ATOM     27  O   UNL     1      53.474   4.931  17.745  0.00  0.00    +0.000 OA
ATOM     28  H   UNL     1      53.559   4.877  16.770  0.00  0.00    +0.000 HD
ENDBRANCH  25  27
ENDBRANCH  22  25
ENDBRANCH  16  19
ENDBRANCH   1  16
TORSDOF 7
ENDMDL
MODEL 9
REMARK VINA RESULT:    -5.909      2.547      3.388
REMARK INTER + INTRA:          -9.200
REMARK INTER:                  -8.033
REMARK INTRA:                  -1.167
REMARK UNBOUND:                -1.045
REMARK  Name = 
REMARK  8 active torsions:
REMARK  status: ('A' for Active; 'I' for Inactive)
REMARK    1  A    between atoms: C_1  and  O_2
REMARK    2  A    between atoms: O_2  and  C_3
REMARK    3  A    between atoms: C_5  and  C_6
REMARK    4  A    between atoms: C_6  and  C_7
REMARK    5  A    between atoms: C_7  and  C_8
REMARK    6  A    between atoms: C_13  and  C_14
REMARK    7  A    between atoms: C_23  and  C_24
REMARK    8  A    between atoms: C_24  and  O_26
REMARK                            x       y       z     vdW  Elec       q    Type
REMARK                         _______ _______ _______ _____ _____    ______ ____
ROOT
ATOM      1  C   UNL     1      49.049   8.280  14.936  0.00  0.00    +0.000 C 
ENDROOT
BRANCH   1   2
ATOM      2  C   UNL     1      48.799   8.142  16.415  0.00  0.00    +0.000 A 
ATOM      3  C   UNL     1      48.082   9.122  17.104  0.00  0.00    +0.000 A 
ATOM      4  C   UNL     1      47.855   8.980  18.462  0.00  0.00    +0.000 A 
ATOM      5  F   UNL     1      47.157   9.916  19.117  0.00  0.00    +0.000 F 
ATOM      6  C   UNL     1      48.342   7.879  19.157  0.00  0.00    +0.000 A 
ATOM      7  C   UNL     1      49.088   6.887  18.504  0.00  0.00    +0.000 A 
ATOM      8  C   UNL     1      49.298   7.032  17.120  0.00  0.00    +0.000 A 
BRANCH   7   9
ATOM      9  C   UNL     1      49.666   5.672  19.224  0.00  0.00    +0.000 C 
ATOM     10  C   UNL     1      50.608   4.849  18.328  0.00  0.00    +0.000 C 
ATOM     11  C   UNL     1      49.842   3.946  17.364  0.00  0.00    +0.000 C 
ATOM     12  C   UNL     1      48.769   3.116  18.070  0.00  0.00    +0.000 C 
ATOM     13  N   UNL     1      47.884   3.918  18.911  0.00  0.00    +0.000 NA
ATOM     14  C   UNL     1      48.620   4.740  19.874  0.00  0.00    +0.000 C 
ATOM     15  H   UNL     1      47.223   3.314  19.401  0.00  0.00    +0.000 HD
ENDBRANCH   7   9
ENDBRANCH   1   2
BRANCH   1  16
ATOM     16  C   UNL     1      49.120   6.919  14.239  0.00  0.00    +0.000 C 
BRANCH  16  19
ATOM     17  C   UNL     1      45.652   6.545  12.749  0.00  0.00    +0.000 A 
ATOM     18  C   UNL     1      46.913   7.067  13.053  0.00  0.00    +0.000 A 
ATOM     19  C   UNL     1      47.762   6.353  13.897  0.00  0.00    +0.000 A 
ATOM     20  N   UNL     1      47.407   5.166  14.432  0.00  0.00    +0.000 NA
ATOM     21  C   UNL     1      46.175   4.684  14.144  0.00  0.00    +0.000 A 
ATOM     22  C   UNL     1      45.259   5.329  13.324  0.00  0.00    +0.000 A 
BRANCH  17  24
ATOM     23  C   UNL     1      44.968   8.587  11.733  0.00  0.00    +0.000 C 
ATOM     24  O   UNL     1      44.747   7.191  11.940  0.00  0.00    +0.000 OA
ENDBRANCH  17  24
BRANCH  22  25
ATOM     25  C   UNL     1      43.952   4.651  13.127  0.00  0.00    +0.000 C 
ATOM     26  O   UNL     1      43.875   3.470  12.819  0.00  0.00    +0.000 OA
BRANCH  25  27
ATOM     27  O   UNL     1      42.861   5.417  13.310  0.00  0.00    +0.000 OA
ATOM     28  H   UNL     1      42.753   5.726  14.235  0.00  0.00    +0.000 HD
ENDBRANCH  25  27
ENDBRANCH  22  25
ENDBRANCH  16  19
ENDBRANCH   1  16
TORSDOF 7
ENDMDL
