MODEL 1
REMARK VINA RESULT:    -7.821      0.000      0.000
REMARK INTER + INTRA:         -11.815
REMARK INTER:                 -11.021
REMARK INTRA:                  -0.794
REMARK UNBOUND:                -0.794
REMARK  Name = 
REMARK  7 active torsions:
REMARK  status: ('A' for Active; 'I' for Inactive)
REMARK    1  A    between atoms: C_2  and  C_20
REMARK    2  A    between atoms: N_3  and  C_4
REMARK    3  A    between atoms: C_4  and  C_5
REMARK    4  A    between atoms: C_8  and  C_9
REMARK    5  A    between atoms: C_9  and  C_10
REMARK    6  A    between atoms: C_10  and  O_11
REMARK    7  A    between atoms: O_11  and  C_12
REMARK                            x       y       z     vdW  Elec       q    Type
REMARK                         _______ _______ _______ _____ _____    ______ ____
ROOT
ATOM      1  C   UNL     1      44.002   4.733  10.598  0.00  0.00    +0.000 C 
ENDROOT
BRANCH   1   2
ATOM      2  C   UNL     1      44.774   3.952   9.573  0.00  0.00    +0.000 A 
ATOM      3  C   UNL     1      45.530   4.624   8.608  0.00  0.00    +0.000 A 
ATOM      4  C   UNL     1      46.301   3.913   7.684  0.00  0.00    +0.000 A 
ATOM      5  C   UNL     1      46.324   2.511   7.690  0.00  0.00    +0.000 A 
ATOM      6  C   UNL     1      45.550   1.841   8.648  0.00  0.00    +0.000 A 
ATOM      7  C   UNL     1      44.778   2.553   9.575  0.00  0.00    +0.000 A 
BRANCH   5   8
ATOM      8  C   UNL     1      47.143   1.691   6.711  0.00  0.00    +0.000 C 
BRANCH   8   9
ATOM      9  C   UNL     1      47.029   2.116   5.247  0.00  0.00    +0.000 C 
BRANCH   9  10
ATOM     10  O   UNL     1      47.839   1.273   4.426  0.00  0.00    +0.000 OA
BRANCH  10  11
ATOM     11  C   UNL     1      47.042   0.478   3.626  0.00  0.00    +0.000 A 
ATOM     12  N   UNL     1      46.093   1.119   2.933  0.00  0.00    +0.000 NA
ATOM     13  C   UNL     1      45.298   0.341   2.173  0.00  0.00    +0.000 A 
ATOM     14  C   UNL     1      45.431  -1.026   2.077  0.00  0.00    +0.000 A 
ATOM     15  C   UNL     1      46.449  -1.575   2.818  0.00  0.00    +0.000 A 
ATOM     16  N   UNL     1      47.264  -0.851   3.599  0.00  0.00    +0.000 NA
ENDBRANCH  10  11
ENDBRANCH   9  10
ENDBRANCH   8   9
ENDBRANCH   5   8
ENDBRANCH   1   2
BRANCH   1  19
ATOM     17  O   UNL     1      45.454   5.372  12.830  0.00  0.00    +0.000 OA
ATOM     18  C   UNL     1      45.272   6.258  12.001  0.00  0.00    +0.000 C 
ATOM     19  N   UNL     1      44.557   6.039  10.843  0.00  0.00    +0.000 N 
ATOM     20  H   UNL     1      44.489   6.750  10.133  0.00  0.00    +0.000 HD
BRANCH  18  21
ATOM     21  C   UNL     1      45.795   7.612  12.184  0.00  0.00    +0.000 A 
ATOM     22  C   UNL     1      45.092   8.760  12.527  0.00  0.00    +0.000 A 
ATOM     23  N   UNL     1      45.984   9.799  12.640  0.00  0.00    +0.000 N 
ATOM     24  C   UNL     1      47.245   9.363  12.355  0.00  0.00    +0.000 A 
ATOM     25  N   UNL     1      48.341  10.145  12.378  0.00  0.00    +0.000 NA
ATOM     26  C   UNL     1      49.471   9.472  12.060  0.00  0.00    +0.000 A 
ATOM     27  C   UNL     1      49.549   8.124  11.737  0.00  0.00    +0.000 A 
ATOM     28  C   UNL     1      48.381   7.363  11.733  0.00  0.00    +0.000 A 
ATOM     29  C   UNL     1      47.172   8.007  12.058  0.00  0.00    +0.000 A 
ATOM     30  H   UNL     1      45.771  10.750  12.899  0.00  0.00    +0.000 HD
ENDBRANCH  18  21
ENDBRANCH   1  19
TORSDOF 7
ENDMDL
MODEL 2
REMARK VINA RESULT:    -7.746      5.597      6.893
REMARK INTER + INTRA:         -11.710
REMARK INTER:                 -10.980
REMARK INTRA:                  -0.729
REMARK UNBOUND:                -0.794
REMARK  Name = 
REMARK  7 active torsions:
REMARK  status: ('A' for Active; 'I' for Inactive)
REMARK    1  A    between atoms: C_2  and  C_20
REMARK    2  A    between atoms: N_3  and  C_4
REMARK    3  A    between atoms: C_4  and  C_5
REMARK    4  A    between atoms: C_8  and  C_9
REMARK    5  A    between atoms: C_9  and  C_10
REMARK    6  A    between atoms: C_10  and  O_11
REMARK    7  A    between atoms: O_11  and  C_12
REMARK                            x       y       z     vdW  Elec       q    Type
REMARK                         _______ _______ _______ _____ _____    ______ ____
ROOT
ATOM      1  C   UNL     1      47.986   6.282  14.532  0.00  0.00    +0.000 C 
ENDROOT
BRANCH   1   2
ATOM      2  C   UNL     1      46.959   5.800  13.547  0.00  0.00    +0.000 A 
ATOM      3  C   UNL     1      46.175   4.682  13.847  0.00  0.00    +0.000 A 
ATOM      4  C   UNL     1      45.176   4.256  12.968  0.00  0.00    +0.000 A 
ATOM      5  C   UNL     1      44.943   4.927  11.759  0.00  0.00    +0.000 A 
ATOM      6  C   UNL     1      45.744   6.037  11.454  0.00  0.00    +0.000 A 
ATOM      7  C   UNL     1      46.745   6.465  12.335  0.00  0.00    +0.000 A 
BRANCH   5   8
ATOM      8  C   UNL     1      43.872   4.507  10.770  0.00  0.00    +0.000 C 
BRANCH   8   9
ATOM      9  C   UNL     1      44.379   4.140   9.375  0.00  0.00    +0.000 C 
BRANCH   9  10
ATOM     10  O   UNL     1      44.527   2.723   9.263  0.00  0.00    +0.000 OA
BRANCH  10  11
ATOM     11  C   UNL     1      45.581   2.419   8.424  0.00  0.00    +0.000 A 
ATOM     12  N   UNL     1      45.953   1.133   8.403  0.00  0.00    +0.000 NA
ATOM     13  C   UNL     1      46.998   0.840   7.606  0.00  0.00    +0.000 A 
ATOM     14  C   UNL     1      47.657   1.771   6.834  0.00  0.00    +0.000 A 
ATOM     15  C   UNL     1      47.180   3.056   6.921  0.00  0.00    +0.000 A 
ATOM     16  N   UNL     1      46.151   3.407   7.706  0.00  0.00    +0.000 NA
ENDBRANCH  10  11
ENDBRANCH   9  10
ENDBRANCH   8   9
ENDBRANCH   5   8
ENDBRANCH   1   2
BRANCH   1  19
ATOM     17  O   UNL     1      50.095   5.865  16.229  0.00  0.00    +0.000 OA
ATOM     18  C   UNL     1      48.987   5.490  16.601  0.00  0.00    +0.000 C 
ATOM     19  N   UNL     1      47.862   5.655  15.823  0.00  0.00    +0.000 N 
ATOM     20  H   UNL     1      46.949   5.421  16.176  0.00  0.00    +0.000 HD
BRANCH  18  21
ATOM     21  C   UNL     1      48.783   4.835  17.893  0.00  0.00    +0.000 A 
ATOM     22  C   UNL     1      48.804   3.475  18.174  0.00  0.00    +0.000 A 
ATOM     23  N   UNL     1      48.615   3.306  19.524  0.00  0.00    +0.000 N 
ATOM     24  C   UNL     1      48.446   4.520  20.125  0.00  0.00    +0.000 A 
ATOM     25  N   UNL     1      48.239   4.689  21.444  0.00  0.00    +0.000 NA
ATOM     26  C   UNL     1      48.105   5.991  21.791  0.00  0.00    +0.000 A 
ATOM     27  C   UNL     1      48.166   7.072  20.921  0.00  0.00    +0.000 A 
ATOM     28  C   UNL     1      48.387   6.834  19.565  0.00  0.00    +0.000 A 
ATOM     29  C   UNL     1      48.536   5.499  19.144  0.00  0.00    +0.000 A 
ATOM     30  H   UNL     1      48.604   2.432  20.026  0.00  0.00    +0.000 HD
ENDBRANCH  18  21
ENDBRANCH   1  19
TORSDOF 7
ENDMDL
MODEL 3
REMARK VINA RESULT:    -7.677      4.347      5.611
REMARK INTER + INTRA:         -11.613
REMARK INTER:                 -10.631
REMARK INTRA:                  -0.982
REMARK UNBOUND:                -0.794
REMARK  Name = 
REMARK  7 active torsions:
REMARK  status: ('A' for Active; 'I' for Inactive)
REMARK    1  A    between atoms: C_2  and  C_20
REMARK    2  A    between atoms: N_3  and  C_4
REMARK    3  A    between atoms: C_4  and  C_5
REMARK    4  A    between atoms: C_8  and  C_9
REMARK    5  A    between atoms: C_9  and  C_10
REMARK    6  A    between atoms: C_10  and  O_11
REMARK    7  A    between atoms: O_11  and  C_12
REMARK                            x       y       z     vdW  Elec       q    Type
REMARK                         _______ _______ _______ _____ _____    ______ ____
ROOT
ATOM      1  C   UNL     1      47.040   7.282  13.170  0.00  0.00    +0.000 C 
ENDROOT
BRANCH   1   2
ATOM      2  C   UNL     1      46.312   6.165  12.476  0.00  0.00    +0.000 A 
ATOM      3  C   UNL     1      46.119   4.945  13.130  0.00  0.00    +0.000 A 
ATOM      4  C   UNL     1      45.393   3.918  12.521  0.00  0.00    +0.000 A 
ATOM      5  C   UNL     1      44.855   4.077  11.236  0.00  0.00    +0.000 A 
ATOM      6  C   UNL     1      45.067   5.296  10.577  0.00  0.00    +0.000 A 
ATOM      7  C   UNL     1      45.793   6.327  11.187  0.00  0.00    +0.000 A 
BRANCH   5   8
ATOM      8  C   UNL     1      44.060   2.995  10.530  0.00  0.00    +0.000 C 
BRANCH   8   9
ATOM      9  C   UNL     1      44.502   2.688   9.099  0.00  0.00    +0.000 C 
BRANCH   9  10
ATOM     10  O   UNL     1      45.777   2.045   9.105  0.00  0.00    +0.000 OA
BRANCH  10  11
ATOM     11  C   UNL     1      46.350   2.109   7.850  0.00  0.00    +0.000 A 
ATOM     12  N   UNL     1      46.206   3.274   7.206  0.00  0.00    +0.000 NA
ATOM     13  C   UNL     1      46.740   3.329   5.970  0.00  0.00    +0.000 A 
ATOM     14  C   UNL     1      47.413   2.281   5.380  0.00  0.00    +0.000 A 
ATOM     15  C   UNL     1      47.515   1.141   6.139  0.00  0.00    +0.000 A 
ATOM     16  N   UNL     1      46.994   1.027   7.369  0.00  0.00    +0.000 NA
ENDBRANCH  10  11
ENDBRANCH   9  10
ENDBRANCH   8   9
ENDBRANCH   5   8
ENDBRANCH   1   2
BRANCH   1  19
ATOM     17  O   UNL     1      49.664   6.966  13.883  0.00  0.00    +0.000 OA
ATOM     18  C   UNL     1      48.818   6.792  14.754  0.00  0.00    +0.000 C 
ATOM     19  N   UNL     1      47.471   6.928  14.498  0.00  0.00    +0.000 N 
ATOM     20  H   UNL     1      46.793   6.867  15.241  0.00  0.00    +0.000 HD
BRANCH  18  21
ATOM     21  C   UNL     1      49.176   6.420  16.122  0.00  0.00    +0.000 A 
ATOM     22  C   UNL     1      49.958   7.131  17.024  0.00  0.00    +0.000 A 
ATOM     23  N   UNL     1      49.995   6.438  18.209  0.00  0.00    +0.000 N 
ATOM     24  C   UNL     1      49.278   5.282  18.095  0.00  0.00    +0.000 A 
ATOM     25  N   UNL     1      49.124   4.385  19.087  0.00  0.00    +0.000 NA
ATOM     26  C   UNL     1      48.366   3.325  18.721  0.00  0.00    +0.000 A 
ATOM     27  C   UNL     1      47.788   3.133  17.474  0.00  0.00    +0.000 A 
ATOM     28  C   UNL     1      47.979   4.099  16.487  0.00  0.00    +0.000 A 
ATOM     29  C   UNL     1      48.757   5.227  16.808  0.00  0.00    +0.000 A 
ATOM     30  H   UNL     1      50.466   6.718  19.056  0.00  0.00    +0.000 HD
ENDBRANCH  18  21
ENDBRANCH   1  19
TORSDOF 7
ENDMDL
MODEL 4
REMARK VINA RESULT:    -7.629      1.926      2.154
REMARK INTER + INTRA:         -11.545
REMARK INTER:                 -10.896
REMARK INTRA:                  -0.649
REMARK UNBOUND:                -0.794
REMARK  Name = 
REMARK  7 active torsions:
REMARK  status: ('A' for Active; 'I' for Inactive)
REMARK    1  A    between atoms: C_2  and  C_20
REMARK    2  A    between atoms: N_3  and  C_4
REMARK    3  A    between atoms: C_4  and  C_5
REMARK    4  A    between atoms: C_8  and  C_9
REMARK    5  A    between atoms: C_9  and  C_10
REMARK    6  A    between atoms: C_10  and  O_11
REMARK    7  A    between atoms: O_11  and  C_12
REMARK                            x       y       z     vdW  Elec       q    Type
REMARK                         _______ _______ _______ _____ _____    ______ ____
ROOT
ATOM      1  C   UNL     1      44.279   4.368  10.508  0.00  0.00    +0.000 C 
ENDROOT
BRANCH   1   2
ATOM      2  C   UNL     1      44.967   3.620   9.401  0.00  0.00    +0.000 A 
ATOM      3  C   UNL     1      45.513   4.318   8.320  0.00  0.00    +0.000 A 
ATOM      4  C   UNL     1      46.207   3.643   7.313  0.00  0.00    +0.000 A 
ATOM      5  C   UNL     1      46.361   2.250   7.352  0.00  0.00    +0.000 A 
ATOM      6  C   UNL     1      45.797   1.551   8.429  0.00  0.00    +0.000 A 
ATOM      7  C   UNL     1      45.102   2.227   9.439  0.00  0.00    +0.000 A 
BRANCH   5   8
ATOM      8  C   UNL     1      47.105   1.468   6.286  0.00  0.00    +0.000 C 
BRANCH   8   9
ATOM      9  C   UNL     1      47.036   2.056   4.876  0.00  0.00    +0.000 C 
BRANCH   9  10
ATOM     10  O   UNL     1      47.793   1.251   3.970  0.00  0.00    +0.000 OA
BRANCH  10  11
ATOM     11  C   UNL     1      46.964   0.360   3.317  0.00  0.00    +0.000 A 
ATOM     12  N   UNL     1      45.939   0.904   2.649  0.00  0.00    +0.000 NA
ATOM     13  C   UNL     1      45.114   0.034   2.035  0.00  0.00    +0.000 A 
ATOM     14  C   UNL     1      45.290  -1.332   2.056  0.00  0.00    +0.000 A 
ATOM     15  C   UNL     1      46.385  -1.778   2.756  0.00  0.00    +0.000 A 
ATOM     16  N   UNL     1      47.232  -0.958   3.395  0.00  0.00    +0.000 NA
ENDBRANCH  10  11
ENDBRANCH   9  10
ENDBRANCH   8   9
ENDBRANCH   5   8
ENDBRANCH   1   2
BRANCH   1  19
ATOM     17  O   UNL     1      45.696   6.579  11.283  0.00  0.00    +0.000 OA
ATOM     18  C   UNL     1      45.743   5.594  12.012  0.00  0.00    +0.000 C 
ATOM     19  N   UNL     1      45.064   4.432  11.713  0.00  0.00    +0.000 N 
ATOM     20  H   UNL     1      45.044   3.663  12.362  0.00  0.00    +0.000 HD
BRANCH  18  21
ATOM     21  C   UNL     1      46.528   5.578  13.246  0.00  0.00    +0.000 A 
ATOM     22  C   UNL     1      46.308   4.821  14.389  0.00  0.00    +0.000 A 
ATOM     23  N   UNL     1      47.315   5.083  15.286  0.00  0.00    +0.000 N 
ATOM     24  C   UNL     1      48.172   6.009  14.766  0.00  0.00    +0.000 A 
ATOM     25  N   UNL     1      49.262   6.476  15.404  0.00  0.00    +0.000 NA
ATOM     26  C   UNL     1      49.947   7.386  14.673  0.00  0.00    +0.000 A 
ATOM     27  C   UNL     1      49.607   7.827  13.401  0.00  0.00    +0.000 A 
ATOM     28  C   UNL     1      48.468   7.305  12.789  0.00  0.00    +0.000 A 
ATOM     29  C   UNL     1      47.715   6.351  13.499  0.00  0.00    +0.000 A 
ATOM     30  H   UNL     1      47.436   4.665  16.196  0.00  0.00    +0.000 HD
ENDBRANCH  18  21
ENDBRANCH   1  19
TORSDOF 7
ENDMDL
MODEL 5
REMARK VINA RESULT:    -7.088      2.627      3.305
REMARK INTER + INTRA:         -10.783
REMARK INTER:                 -10.266
REMARK INTRA:                  -0.517
REMARK UNBOUND:                -0.794
REMARK  Name = 
REMARK  7 active torsions:
REMARK  status: ('A' for Active; 'I' for Inactive)
REMARK    1  A    between atoms: C_2  and  C_20
REMARK    2  A    between atoms: N_3  and  C_4
REMARK    3  A    between atoms: C_4  and  C_5
REMARK    4  A    between atoms: C_8  and  C_9
REMARK    5  A    between atoms: C_9  and  C_10
REMARK    6  A    between atoms: C_10  and  O_11
REMARK    7  A    between atoms: O_11  and  C_12
REMARK                            x       y       z     vdW  Elec       q    Type
REMARK                         _______ _______ _______ _____ _____    ______ ____
ROOT
ATOM      1  C   UNL     1      44.742   3.605  10.031  0.00  0.00    +0.000 C 
ENDROOT
BRANCH   1   2
ATOM      2  C   UNL     1      45.496   3.155   8.812  0.00  0.00    +0.000 A 
ATOM      3  C   UNL     1      45.799   1.801   8.639  0.00  0.00    +0.000 A 
ATOM      4  C   UNL     1      46.447   1.358   7.483  0.00  0.00    +0.000 A 
ATOM      5  C   UNL     1      46.825   2.259   6.477  0.00  0.00    +0.000 A 
ATOM      6  C   UNL     1      46.536   3.618   6.663  0.00  0.00    +0.000 A 
ATOM      7  C   UNL     1      45.885   4.063   7.821  0.00  0.00    +0.000 A 
BRANCH   5   8
ATOM      8  C   UNL     1      47.530   1.832   5.204  0.00  0.00    +0.000 C 
BRANCH   8   9
ATOM      9  C   UNL     1      46.686   1.003   4.235  0.00  0.00    +0.000 C 
BRANCH   9  10
ATOM     10  O   UNL     1      47.489   0.555   3.142  0.00  0.00    +0.000 OA
BRANCH  10  11
ATOM     11  C   UNL     1      47.433  -0.822   3.041  0.00  0.00    +0.000 A 
ATOM     12  N   UNL     1      46.657  -1.438   3.942  0.00  0.00    +0.000 NA
ATOM     13  C   UNL     1      46.623  -2.782   3.862  0.00  0.00    +0.000 A 
ATOM     14  C   UNL     1      47.315  -3.510   2.919  0.00  0.00    +0.000 A 
ATOM     15  C   UNL     1      48.064  -2.773   2.035  0.00  0.00    +0.000 A 
ATOM     16  N   UNL     1      48.143  -1.435   2.075  0.00  0.00    +0.000 NA
ENDBRANCH  10  11
ENDBRANCH   9  10
ENDBRANCH   8   9
ENDBRANCH   5   8
ENDBRANCH   1   2
BRANCH   1  19
ATOM     17  O   UNL     1      44.722   3.353  12.758  0.00  0.00    +0.000 OA
ATOM     18  C   UNL     1      45.454   4.211  12.275  0.00  0.00    +0.000 C 
ATOM     19  N   UNL     1      45.538   4.416  10.915  0.00  0.00    +0.000 N 
ATOM     20  H   UNL     1      46.206   5.064  10.529  0.00  0.00    +0.000 HD
BRANCH  18  21
ATOM     21  C   UNL     1      46.284   5.081  13.108  0.00  0.00    +0.000 A 
ATOM     22  C   UNL     1      46.566   6.428  12.920  0.00  0.00    +0.000 A 
ATOM     23  N   UNL     1      47.344   6.861  13.966  0.00  0.00    +0.000 N 
ATOM     24  C   UNL     1      47.596   5.824  14.817  0.00  0.00    +0.000 A 
ATOM     25  N   UNL     1      48.332   5.928  15.939  0.00  0.00    +0.000 NA
ATOM     26  C   UNL     1      48.431   4.756  16.611  0.00  0.00    +0.000 A 
ATOM     27  C   UNL     1      47.857   3.552  16.229  0.00  0.00    +0.000 A 
ATOM     28  C   UNL     1      47.102   3.507  15.058  0.00  0.00    +0.000 A 
ATOM     29  C   UNL     1      46.961   4.695  14.317  0.00  0.00    +0.000 A 
ATOM     30  H   UNL     1      47.687   7.797  14.115  0.00  0.00    +0.000 HD
ENDBRANCH  18  21
ENDBRANCH   1  19
TORSDOF 7
ENDMDL
MODEL 6
REMARK VINA RESULT:    -6.952      4.826      6.139
REMARK INTER + INTRA:         -10.591
REMARK INTER:                  -9.727
REMARK INTRA:                  -0.863
REMARK UNBOUND:                -0.794
REMARK  Name = 
REMARK  7 active torsions:
REMARK  status: ('A' for Active; 'I' for Inactive)
REMARK    1  A    between atoms: C_2  and  C_20
REMARK    2  A    between atoms: N_3  and  C_4
REMARK    3  A    between atoms: C_4  and  C_5
REMARK    4  A    between atoms: C_8  and  C_9
REMARK    5  A    between atoms: C_9  and  C_10
REMARK    6  A    between atoms: C_10  and  O_11
REMARK    7  A    between atoms: O_11  and  C_12
REMARK                            x       y       z     vdW  Elec       q    Type
REMARK                         _______ _______ _______ _____ _____    ______ ____
ROOT
ATOM      1  C   UNL     1      47.667   3.819  15.414  0.00  0.00    +0.000 C 
ENDROOT
BRANCH   1   2
ATOM      2  C   UNL     1      46.925   4.210  14.167  0.00  0.00    +0.000 A 
ATOM      3  C   UNL     1      46.236   3.241  13.432  0.00  0.00    +0.000 A 
ATOM      4  C   UNL     1      45.493   3.597  12.304  0.00  0.00    +0.000 A 
ATOM      5  C   UNL     1      45.431   4.929  11.870  0.00  0.00    +0.000 A 
ATOM      6  C   UNL     1      46.139   5.895  12.600  0.00  0.00    +0.000 A 
ATOM      7  C   UNL     1      46.883   5.539  13.732  0.00  0.00    +0.000 A 
BRANCH   5   8
ATOM      8  C   UNL     1      44.640   5.370  10.654  0.00  0.00    +0.000 C 
BRANCH   8   9
ATOM      9  C   UNL     1      44.330   4.267   9.641  0.00  0.00    +0.000 C 
BRANCH   9  10
ATOM     10  O   UNL     1      44.949   4.562   8.388  0.00  0.00    +0.000 OA
BRANCH  10  11
ATOM     11  C   UNL     1      45.777   3.523   8.009  0.00  0.00    +0.000 A 
ATOM     12  N   UNL     1      46.767   3.849   7.168  0.00  0.00    +0.000 NA
ATOM     13  C   UNL     1      47.558   2.832   6.775  0.00  0.00    +0.000 A 
ATOM     14  C   UNL     1      47.401   1.531   7.202  0.00  0.00    +0.000 A 
ATOM     15  C   UNL     1      46.364   1.317   8.077  0.00  0.00    +0.000 A 
ATOM     16  N   UNL     1      45.539   2.288   8.492  0.00  0.00    +0.000 NA
ENDBRANCH  10  11
ENDBRANCH   9  10
ENDBRANCH   8   9
ENDBRANCH   5   8
ENDBRANCH   1   2
BRANCH   1  19
ATOM     17  O   UNL     1      49.549   5.402  16.618  0.00  0.00    +0.000 OA
ATOM     18  C   UNL     1      48.407   5.443  17.064  0.00  0.00    +0.000 C 
ATOM     19  N   UNL     1      47.387   4.688  16.528  0.00  0.00    +0.000 N 
ATOM     20  H   UNL     1      46.438   4.797  16.848  0.00  0.00    +0.000 HD
BRANCH  18  21
ATOM     21  C   UNL     1      48.048   6.292  18.200  0.00  0.00    +0.000 A 
ATOM     22  C   UNL     1      47.686   5.897  19.481  0.00  0.00    +0.000 A 
ATOM     23  N   UNL     1      47.480   7.021  20.243  0.00  0.00    +0.000 N 
ATOM     24  C   UNL     1      47.674   8.139  19.483  0.00  0.00    +0.000 A 
ATOM     25  N   UNL     1      47.546   9.398  19.941  0.00  0.00    +0.000 NA
ATOM     26  C   UNL     1      47.794  10.330  18.991  0.00  0.00    +0.000 A 
ATOM     27  C   UNL     1      48.144  10.070  17.673  0.00  0.00    +0.000 A 
ATOM     28  C   UNL     1      48.265   8.745  17.256  0.00  0.00    +0.000 A 
ATOM     29  C   UNL     1      48.021   7.730  18.201  0.00  0.00    +0.000 A 
ATOM     30  H   UNL     1      47.230   7.050  21.219  0.00  0.00    +0.000 HD
ENDBRANCH  18  21
ENDBRANCH   1  19
TORSDOF 7
ENDMDL
MODEL 7
REMARK VINA RESULT:    -6.946      3.314      5.050
REMARK INTER + INTRA:         -10.582
REMARK INTER:                  -9.480
REMARK INTRA:                  -1.102
REMARK UNBOUND:                -0.794
REMARK  Name = 
REMARK  7 active torsions:
REMARK  status: ('A' for Active; 'I' for Inactive)
REMARK    1  A    between atoms: C_2  and  C_20
REMARK    2  A    between atoms: N_3  and  C_4
REMARK    3  A    between atoms: C_4  and  C_5
REMARK    4  A    between atoms: C_8  and  C_9
REMARK    5  A    between atoms: C_9  and  C_10
REMARK    6  A    between atoms: C_10  and  O_11
REMARK    7  A    between atoms: O_11  and  C_12
REMARK                            x       y       z     vdW  Elec       q    Type
REMARK                         _______ _______ _______ _____ _____    ______ ____
ROOT
ATOM      1  C   UNL     1      47.699   6.218  14.269  0.00  0.00    +0.000 C 
ENDROOT
BRANCH   1   2
ATOM      2  C   UNL     1      46.624   5.347  13.683  0.00  0.00    +0.000 A 
ATOM      3  C   UNL     1      45.413   5.913  13.274  0.00  0.00    +0.000 A 
ATOM      4  C   UNL     1      44.427   5.127  12.672  0.00  0.00    +0.000 A 
ATOM      5  C   UNL     1      44.618   3.752  12.477  0.00  0.00    +0.000 A 
ATOM      6  C   UNL     1      45.828   3.186  12.904  0.00  0.00    +0.000 A 
ATOM      7  C   UNL     1      46.818   3.973  13.507  0.00  0.00    +0.000 A 
BRANCH   5   8
ATOM      8  C   UNL     1      43.582   2.854  11.829  0.00  0.00    +0.000 C 
BRANCH   8   9
ATOM      9  C   UNL     1      43.878   2.450  10.385  0.00  0.00    +0.000 C 
BRANCH   9  10
ATOM     10  O   UNL     1      44.301   3.589   9.633  0.00  0.00    +0.000 OA
BRANCH  10  11
ATOM     11  C   UNL     1      45.275   3.225   8.724  0.00  0.00    +0.000 A 
ATOM     12  N   UNL     1      45.604   1.927   8.714  0.00  0.00    +0.000 NA
ATOM     13  C   UNL     1      46.573   1.576   7.848  0.00  0.00    +0.000 A 
ATOM     14  C   UNL     1      47.197   2.462   6.998  0.00  0.00    +0.000 A 
ATOM     15  C   UNL     1      46.768   3.764   7.081  0.00  0.00    +0.000 A 
ATOM     16  N   UNL     1      45.815   4.172   7.932  0.00  0.00    +0.000 NA
ENDBRANCH  10  11
ENDBRANCH   9  10
ENDBRANCH   8   9
ENDBRANCH   5   8
ENDBRANCH   1   2
BRANCH   1  19
ATOM     17  O   UNL     1      48.788   7.329  12.016  0.00  0.00    +0.000 OA
ATOM     18  C   UNL     1      48.144   8.067  12.755  0.00  0.00    +0.000 C 
ATOM     19  N   UNL     1      47.553   7.606  13.911  0.00  0.00    +0.000 N 
ATOM     20  H   UNL     1      46.957   8.202  14.462  0.00  0.00    +0.000 HD
BRANCH  18  21
ATOM     21  C   UNL     1      47.961   9.489  12.465  0.00  0.00    +0.000 A 
ATOM     22  C   UNL     1      48.930  10.484  12.425  0.00  0.00    +0.000 A 
ATOM     23  N   UNL     1      48.327  11.665  12.065  0.00  0.00    +0.000 N 
ATOM     24  C   UNL     1      46.987  11.469  11.894  0.00  0.00    +0.000 A 
ATOM     25  N   UNL     1      46.119  12.436  11.540  0.00  0.00    +0.000 NA
ATOM     26  C   UNL     1      44.847  11.985  11.434  0.00  0.00    +0.000 A 
ATOM     27  C   UNL     1      44.428  10.680  11.656  0.00  0.00    +0.000 A 
ATOM     28  C   UNL     1      45.374   9.721  12.017  0.00  0.00    +0.000 A 
ATOM     29  C   UNL     1      46.715  10.129  12.141  0.00  0.00    +0.000 A 
ATOM     30  H   UNL     1      48.779  12.556  11.932  0.00  0.00    +0.000 HD
ENDBRANCH  18  21
ENDBRANCH   1  19
TORSDOF 7
ENDMDL
MODEL 8
REMARK VINA RESULT:    -6.940      5.010      6.116
REMARK INTER + INTRA:         -10.573
REMARK INTER:                  -9.781
REMARK INTRA:                  -0.792
REMARK UNBOUND:                -0.794
REMARK  Name = 
REMARK  7 active torsions:
REMARK  status: ('A' for Active; 'I' for Inactive)
REMARK    1  A    between atoms: C_2  and  C_20
REMARK    2  A    between atoms: N_3  and  C_4
REMARK    3  A    between atoms: C_4  and  C_5
REMARK    4  A    between atoms: C_8  and  C_9
REMARK    5  A    between atoms: C_9  and  C_10
REMARK    6  A    between atoms: C_10  and  O_11
REMARK    7  A    between atoms: O_11  and  C_12
REMARK                            x       y       z     vdW  Elec       q    Type
REMARK                         _______ _______ _______ _____ _____    ______ ____
ROOT
ATOM      1  C   UNL     1      47.294   4.011  14.822  0.00  0.00    +0.000 C 
ENDROOT
BRANCH   1   2
ATOM      2  C   UNL     1      46.362   4.259  13.670  0.00  0.00    +0.000 A 
ATOM      3  C   UNL     1      46.000   5.566  13.333  0.00  0.00    +0.000 A 
ATOM      4  C   UNL     1      45.181   5.817  12.229  0.00  0.00    +0.000 A 
ATOM      5  C   UNL     1      44.690   4.767  11.441  0.00  0.00    +0.000 A 
ATOM      6  C   UNL     1      45.042   3.456  11.792  0.00  0.00    +0.000 A 
ATOM      7  C   UNL     1      45.863   3.203  12.898  0.00  0.00    +0.000 A 
BRANCH   5   8
ATOM      8  C   UNL     1      43.799   4.983  10.232  0.00  0.00    +0.000 C 
BRANCH   8   9
ATOM      9  C   UNL     1      44.090   4.077   9.035  0.00  0.00    +0.000 C 
BRANCH   9  10
ATOM     10  O   UNL     1      45.248   4.539   8.338  0.00  0.00    +0.000 OA
BRANCH  10  11
ATOM     11  C   UNL     1      45.945   3.470   7.809  0.00  0.00    +0.000 A 
ATOM     12  N   UNL     1      46.642   3.727   6.695  0.00  0.00    +0.000 NA
ATOM     13  C   UNL     1      47.299   2.680   6.162  0.00  0.00    +0.000 A 
ATOM     14  C   UNL     1      47.293   1.415   6.707  0.00  0.00    +0.000 A 
ATOM     15  C   UNL     1      46.559   1.270   7.859  0.00  0.00    +0.000 A 
ATOM     16  N   UNL     1      45.876   2.275   8.427  0.00  0.00    +0.000 NA
ENDBRANCH  10  11
ENDBRANCH   9  10
ENDBRANCH   8   9
ENDBRANCH   5   8
ENDBRANCH   1   2
BRANCH   1  19
ATOM     17  O   UNL     1      48.556   3.998  17.252  0.00  0.00    +0.000 OA
ATOM     18  C   UNL     1      48.204   5.085  16.804  0.00  0.00    +0.000 C 
ATOM     19  N   UNL     1      47.565   5.200  15.589  0.00  0.00    +0.000 N 
ATOM     20  H   UNL     1      47.359   6.104  15.195  0.00  0.00    +0.000 HD
BRANCH  18  21
ATOM     21  C   UNL     1      48.433   6.334  17.529  0.00  0.00    +0.000 A 
ATOM     22  C   UNL     1      49.010   7.505  17.054  0.00  0.00    +0.000 A 
ATOM     23  N   UNL     1      48.981   8.443  18.057  0.00  0.00    +0.000 N 
ATOM     24  C   UNL     1      48.422   7.907  19.180  0.00  0.00    +0.000 A 
ATOM     25  N   UNL     1      48.251   8.575  20.336  0.00  0.00    +0.000 NA
ATOM     26  C   UNL     1      47.671   7.820  21.298  0.00  0.00    +0.000 A 
ATOM     27  C   UNL     1      47.276   6.497  21.161  0.00  0.00    +0.000 A 
ATOM     28  C   UNL     1      47.474   5.857  19.939  0.00  0.00    +0.000 A 
ATOM     29  C   UNL     1      48.072   6.592  18.898  0.00  0.00    +0.000 A 
ATOM     30  H   UNL     1      49.309   9.395  18.001  0.00  0.00    +0.000 HD
ENDBRANCH  18  21
ENDBRANCH   1  19
TORSDOF 7
ENDMDL
MODEL 9
REMARK VINA RESULT:    -6.882      3.999      9.953
REMARK INTER + INTRA:         -10.492
REMARK INTER:                  -9.597
REMARK INTRA:                  -0.895
REMARK UNBOUND:                -0.794
REMARK  Name = 
REMARK  7 active torsions:
REMARK  status: ('A' for Active; 'I' for Inactive)
REMARK    1  A    between atoms: C_2  and  C_20
REMARK    2  A    between atoms: N_3  and  C_4
REMARK    3  A    between atoms: C_4  and  C_5
REMARK    4  A    between atoms: C_8  and  C_9
REMARK    5  A    between atoms: C_9  and  C_10
REMARK    6  A    between atoms: C_10  and  O_11
REMARK    7  A    between atoms: O_11  and  C_12
REMARK                            x       y       z     vdW  Elec       q    Type
REMARK                         _______ _______ _______ _____ _____    ______ ____
ROOT
ATOM      1  C   UNL     1      45.268   6.930  11.865  0.00  0.00    +0.000 C 
ENDROOT
BRANCH   1   2
ATOM      2  C   UNL     1      46.331   7.202  12.891  0.00  0.00    +0.000 A 
ATOM      3  C   UNL     1      47.089   6.147  13.407  0.00  0.00    +0.000 A 
ATOM      4  C   UNL     1      48.122   6.390  14.317  0.00  0.00    +0.000 A 
ATOM      5  C   UNL     1      48.414   7.692  14.748  0.00  0.00    +0.000 A 
ATOM      6  C   UNL     1      47.639   8.745  14.241  0.00  0.00    +0.000 A 
ATOM      7  C   UNL     1      46.605   8.503  13.328  0.00  0.00    +0.000 A 
BRANCH   5   8
ATOM      8  C   UNL     1      49.522   8.011  15.733  0.00  0.00    +0.000 C 
BRANCH   8   9
ATOM      9  C   UNL     1      50.375   6.818  16.166  0.00  0.00    +0.000 C 
BRANCH   9  10
ATOM     10  O   UNL     1      50.027   6.419  17.492  0.00  0.00    +0.000 OA
BRANCH  10  11
ATOM     11  C   UNL     1      49.227   5.294  17.458  0.00  0.00    +0.000 A 
ATOM     12  N   UNL     1      49.839   4.158  17.103  0.00  0.00    +0.000 NA
ATOM     13  C   UNL     1      49.055   3.065  17.042  0.00  0.00    +0.000 A 
ATOM     14  C   UNL     1      47.709   3.072  17.335  0.00  0.00    +0.000 A 
ATOM     15  C   UNL     1      47.190   4.289  17.704  0.00  0.00    +0.000 A 
ATOM     16  N   UNL     1      47.921   5.411  17.771  0.00  0.00    +0.000 NA
ENDBRANCH  10  11
ENDBRANCH   9  10
ENDBRANCH   8   9
ENDBRANCH   5   8
ENDBRANCH   1   2
BRANCH   1  19
ATOM     17  O   UNL     1      43.227   5.465  10.777  0.00  0.00    +0.000 OA
ATOM     18  C   UNL     1      44.364   5.019  10.667  0.00  0.00    +0.000 C 
ATOM     19  N   UNL     1      45.460   5.680  11.177  0.00  0.00    +0.000 N 
ATOM     20  H   UNL     1      46.394   5.345  11.005  0.00  0.00    +0.000 HD
BRANCH  18  21
ATOM     21  C   UNL     1      44.637   3.750   9.993  0.00  0.00    +0.000 A 
ATOM     22  C   UNL     1      44.141   2.491  10.306  0.00  0.00    +0.000 A 
ATOM     23  N   UNL     1      44.617   1.592   9.383  0.00  0.00    +0.000 N 
ATOM     24  C   UNL     1      45.431   2.228   8.491  0.00  0.00    +0.000 A 
ATOM     25  N   UNL     1      46.054   1.620   7.465  0.00  0.00    +0.000 NA
ATOM     26  C   UNL     1      46.802   2.472   6.725  0.00  0.00    +0.000 A 
ATOM     27  C   UNL     1      46.947   3.833   6.957  0.00  0.00    +0.000 A 
ATOM     28  C   UNL     1      46.274   4.409   8.033  0.00  0.00    +0.000 A 
ATOM     29  C   UNL     1      45.478   3.573   8.839  0.00  0.00    +0.000 A 
ATOM     30  H   UNL     1      44.410   0.606   9.339  0.00  0.00    +0.000 HD
ENDBRANCH  18  21
ENDBRANCH   1  19
TORSDOF 7
ENDMDL
