MODEL 1
REMARK VINA RESULT:    -7.605      0.000      0.000
REMARK INTER + INTRA:         -10.645
REMARK INTER:                 -10.050
REMARK INTRA:                  -0.595
REMARK UNBOUND:                -0.595
REMARK  Name = 
REMARK  6 active torsions:
REMARK  status: ('A' for Active; 'I' for Inactive)
REMARK    1  A    between atoms: N_1  and  C_2
REMARK    2  A    between atoms: C_2  and  C_3
REMARK    3  A    between atoms: C_7  and  C_8
REMARK    4  A    between atoms: C_8  and  C_9
REMARK    5  A    between atoms: C_9  and  N_10
REMARK    6  A    between atoms: C_14  and  C_15
REMARK                            x       y       z     vdW  Elec       q    Type
REMARK                         _______ _______ _______ _____ _____    ______ ____
ROOT
ATOM      1  N   UNL     1      43.897   3.519  10.348  0.00  0.00    +0.000 N 
ATOM      2  C   UNL     1      44.798   3.270   9.293  0.00  0.00    +0.000 A 
ATOM      3  C   UNL     1      45.256   1.971   9.090  0.00  0.00    +0.000 A 
ATOM      4  C   UNL     1      46.140   1.708   8.038  0.00  0.00    +0.000 A 
ATOM      5  C   UNL     1      46.557   2.749   7.205  0.00  0.00    +0.000 A 
ATOM      6  C   UNL     1      46.076   4.011   7.497  0.00  0.00    +0.000 A 
ATOM      7  N   UNL     1      45.222   4.287   8.513  0.00  0.00    +0.000 NA
ATOM      8  H   UNL     1      43.100   2.896  10.239  0.00  0.00    +0.000 HD
ENDROOT
BRANCH   5   9
ATOM      9  C   UNL     1      47.467   2.463   6.071  0.00  0.00    +0.000 C 
ATOM     10  N   UNL     1      48.818   2.433   6.291  0.00  0.00    +0.000 N 
ATOM     11  O   UNL     1      47.029   2.265   4.944  0.00  0.00    +0.000 OA
ATOM     12  H   UNL     1      49.284   2.591   7.169  0.00  0.00    +0.000 HD
ATOM     13  H   UNL     1      49.401   2.251   5.482  0.00  0.00    +0.000 HD
ENDBRANCH   5   9
BRANCH   1  14
ATOM     14  C   UNL     1      43.492   4.929  10.419  0.00  0.00    +0.000 C 
BRANCH  14  15
ATOM     15  C   UNL     1      43.519   5.448  11.861  0.00  0.00    +0.000 C 
BRANCH  15  20
ATOM     16  C   UNL     1      46.833   5.295  13.762  0.00  0.00    +0.000 A 
ATOM     17  C   UNL     1      47.641   6.099  12.946  0.00  0.00    +0.000 A 
ATOM     18  C   UNL     1      47.110   6.731  11.822  0.00  0.00    +0.000 A 
ATOM     19  C   UNL     1      45.767   6.553  11.489  0.00  0.00    +0.000 A 
ATOM     20  C   UNL     1      44.942   5.747  12.282  0.00  0.00    +0.000 A 
ATOM     21  C   UNL     1      45.482   5.131  13.423  0.00  0.00    +0.000 A 
BRANCH  16  22
ATOM     22  C   UNL     1      47.421   4.562  14.943  0.00  0.00    +0.000 C 
BRANCH  22  23
ATOM     23  N   UNL     1      47.522   3.127  14.703  0.00  0.00    +0.000 NA
ATOM     24  H   UNL     1      47.593   2.964  13.701  0.00  0.00    +0.000 HD
ATOM     25  H   UNL     1      46.655   2.686  15.006  0.00  0.00    +0.000 HD
ENDBRANCH  22  23
ENDBRANCH  16  22
ENDBRANCH  15  20
ENDBRANCH  14  15
ENDBRANCH   1  14
TORSDOF 6
ENDMDL
MODEL 2
REMARK VINA RESULT:    -7.546      1.881      2.456
REMARK INTER + INTRA:         -10.567
REMARK INTER:                 -10.004
REMARK INTRA:                  -0.563
REMARK UNBOUND:                -0.595
REMARK  Name = 
REMARK  6 active torsions:
REMARK  status: ('A' for Active; 'I' for Inactive)
REMARK    1  A    between atoms: N_1  and  C_2
REMARK    2  A    between atoms: C_2  and  C_3
REMARK    3  A    between atoms: C_7  and  C_8
REMARK    4  A    between atoms: C_8  and  C_9
REMARK    5  A    between atoms: C_9  and  N_10
REMARK    6  A    between atoms: C_14  and  C_15
REMARK                            x       y       z     vdW  Elec       q    Type
REMARK                         _______ _______ _______ _____ _____    ______ ____
ROOT
ATOM      1  N   UNL     1      43.936   5.111   9.951  0.00  0.00    +0.000 N 
ATOM      2  C   UNL     1      44.667   4.083   9.322  0.00  0.00    +0.000 A 
ATOM      3  C   UNL     1      45.535   4.411   8.284  0.00  0.00    +0.000 A 
ATOM      4  C   UNL     1      46.277   3.402   7.660  0.00  0.00    +0.000 A 
ATOM      5  C   UNL     1      46.137   2.077   8.081  0.00  0.00    +0.000 A 
ATOM      6  C   UNL     1      45.234   1.839   9.099  0.00  0.00    +0.000 A 
ATOM      7  N   UNL     1      44.503   2.802   9.713  0.00  0.00    +0.000 NA
ATOM      8  H   UNL     1      44.594   5.817  10.274  0.00  0.00    +0.000 HD
ENDROOT
BRANCH   5   9
ATOM      9  C   UNL     1      46.949   1.014   7.442  0.00  0.00    +0.000 C 
ATOM     10  N   UNL     1      47.847   1.356   6.467  0.00  0.00    +0.000 N 
ATOM     11  O   UNL     1      46.819  -0.160   7.767  0.00  0.00    +0.000 OA
ATOM     12  H   UNL     1      48.026   2.283   6.118  0.00  0.00    +0.000 HD
ATOM     13  H   UNL     1      48.366   0.594   6.048  0.00  0.00    +0.000 HD
ENDBRANCH   5   9
BRANCH   1  14
ATOM     14  C   UNL     1      43.084   4.610  11.037  0.00  0.00    +0.000 C 
BRANCH  14  15
ATOM     15  C   UNL     1      43.262   5.436  12.316  0.00  0.00    +0.000 C 
BRANCH  15  20
ATOM     16  C   UNL     1      46.716   6.828  13.183  0.00  0.00    +0.000 A 
ATOM     17  C   UNL     1      47.364   5.667  13.628  0.00  0.00    +0.000 A 
ATOM     18  C   UNL     1      46.712   4.434  13.596  0.00  0.00    +0.000 A 
ATOM     19  C   UNL     1      45.397   4.349  13.138  0.00  0.00    +0.000 A 
ATOM     20  C   UNL     1      44.726   5.496  12.698  0.00  0.00    +0.000 A 
ATOM     21  C   UNL     1      45.398   6.729  12.714  0.00  0.00    +0.000 A 
BRANCH  16  22
ATOM     22  C   UNL     1      47.399   8.171  13.272  0.00  0.00    +0.000 C 
BRANCH  22  23
ATOM     23  N   UNL     1      46.980   8.922  14.450  0.00  0.00    +0.000 NA
ATOM     24  H   UNL     1      47.724   9.566  14.713  0.00  0.00    +0.000 HD
ATOM     25  H   UNL     1      46.873   8.273  15.227  0.00  0.00    +0.000 HD
ENDBRANCH  22  23
ENDBRANCH  16  22
ENDBRANCH  15  20
ENDBRANCH  14  15
ENDBRANCH   1  14
TORSDOF 6
ENDMDL
MODEL 3
REMARK VINA RESULT:    -7.276      2.941      6.498
REMARK INTER + INTRA:         -10.210
REMARK INTER:                  -9.691
REMARK INTRA:                  -0.519
REMARK UNBOUND:                -0.595
REMARK  Name = 
REMARK  6 active torsions:
REMARK  status: ('A' for Active; 'I' for Inactive)
REMARK    1  A    between atoms: N_1  and  C_2
REMARK    2  A    between atoms: C_2  and  C_3
REMARK    3  A    between atoms: C_7  and  C_8
REMARK    4  A    between atoms: C_8  and  C_9
REMARK    5  A    between atoms: C_9  and  N_10
REMARK    6  A    between atoms: C_14  and  C_15
REMARK                            x       y       z     vdW  Elec       q    Type
REMARK                         _______ _______ _______ _____ _____    ______ ____
ROOT
ATOM      1  N   UNL     1      44.975   3.000  12.454  0.00  0.00    +0.000 N 
ATOM      2  C   UNL     1      45.616   4.219  12.754  0.00  0.00    +0.000 A 
ATOM      3  C   UNL     1      46.694   4.216  13.634  0.00  0.00    +0.000 A 
ATOM      4  C   UNL     1      47.348   5.417  13.928  0.00  0.00    +0.000 A 
ATOM      5  C   UNL     1      46.912   6.607  13.342  0.00  0.00    +0.000 A 
ATOM      6  C   UNL     1      45.817   6.522  12.502  0.00  0.00    +0.000 A 
ATOM      7  N   UNL     1      45.168   5.369  12.207  0.00  0.00    +0.000 NA
ATOM      8  H   UNL     1      45.678   2.345  12.121  0.00  0.00    +0.000 HD
ENDROOT
BRANCH   5   9
ATOM      9  C   UNL     1      47.626   7.873  13.628  0.00  0.00    +0.000 C 
ATOM     10  N   UNL     1      47.012   8.826  14.396  0.00  0.00    +0.000 N 
ATOM     11  O   UNL     1      48.747   8.081  13.180  0.00  0.00    +0.000 OA
ATOM     12  H   UNL     1      46.093   8.765  14.803  0.00  0.00    +0.000 HD
ATOM     13  H   UNL     1      47.531   9.682  14.550  0.00  0.00    +0.000 HD
ENDBRANCH   5   9
BRANCH   1  14
ATOM     14  C   UNL     1      43.873   3.165  11.497  0.00  0.00    +0.000 C 
BRANCH  14  15
ATOM     15  C   UNL     1      43.995   2.185  10.326  0.00  0.00    +0.000 C 
BRANCH  15  20
ATOM     16  C   UNL     1      46.622   2.238   7.548  0.00  0.00    +0.000 A 
ATOM     17  C   UNL     1      46.701   3.613   7.288  0.00  0.00    +0.000 A 
ATOM     18  C   UNL     1      45.958   4.522   8.039  0.00  0.00    +0.000 A 
ATOM     19  C   UNL     1      45.108   4.067   9.048  0.00  0.00    +0.000 A 
ATOM     20  C   UNL     1      45.003   2.697   9.320  0.00  0.00    +0.000 A 
ATOM     21  C   UNL     1      45.773   1.792   8.572  0.00  0.00    +0.000 A 
BRANCH  16  22
ATOM     22  C   UNL     1      47.380   1.249   6.696  0.00  0.00    +0.000 C 
BRANCH  22  23
ATOM     23  N   UNL     1      48.511   1.866   6.013  0.00  0.00    +0.000 NA
ATOM     24  H   UNL     1      49.133   1.134   5.677  0.00  0.00    +0.000 HD
ATOM     25  H   UNL     1      49.043   2.407   6.692  0.00  0.00    +0.000 HD
ENDBRANCH  22  23
ENDBRANCH  16  22
ENDBRANCH  15  20
ENDBRANCH  14  15
ENDBRANCH   1  14
TORSDOF 6
ENDMDL
MODEL 4
REMARK VINA RESULT:    -6.347      3.639      6.267
REMARK INTER + INTRA:          -8.982
REMARK INTER:                  -8.642
REMARK INTRA:                  -0.340
REMARK UNBOUND:                -0.595
REMARK  Name = 
REMARK  6 active torsions:
REMARK  status: ('A' for Active; 'I' for Inactive)
REMARK    1  A    between atoms: N_1  and  C_2
REMARK    2  A    between atoms: C_2  and  C_3
REMARK    3  A    between atoms: C_7  and  C_8
REMARK    4  A    between atoms: C_8  and  C_9
REMARK    5  A    between atoms: C_9  and  N_10
REMARK    6  A    between atoms: C_14  and  C_15
REMARK                            x       y       z     vdW  Elec       q    Type
REMARK                         _______ _______ _______ _____ _____    ______ ____
ROOT
ATOM      1  N   UNL     1      47.346   5.021  15.192  0.00  0.00    +0.000 N 
ATOM      2  C   UNL     1      46.645   4.978  13.970  0.00  0.00    +0.000 A 
ATOM      3  C   UNL     1      46.550   6.138  13.206  0.00  0.00    +0.000 A 
ATOM      4  C   UNL     1      45.869   6.105  11.984  0.00  0.00    +0.000 A 
ATOM      5  C   UNL     1      45.289   4.913  11.545  0.00  0.00    +0.000 A 
ATOM      6  C   UNL     1      45.408   3.818  12.379  0.00  0.00    +0.000 A 
ATOM      7  N   UNL     1      46.061   3.830  13.567  0.00  0.00    +0.000 NA
ATOM      8  H   UNL     1      48.280   5.381  15.011  0.00  0.00    +0.000 HD
ENDROOT
BRANCH   5   9
ATOM      9  C   UNL     1      44.598   4.872  10.235  0.00  0.00    +0.000 C 
ATOM     10  N   UNL     1      45.335   4.995   9.088  0.00  0.00    +0.000 N 
ATOM     11  O   UNL     1      43.381   4.740  10.166  0.00  0.00    +0.000 OA
ATOM     12  H   UNL     1      46.332   5.119   9.028  0.00  0.00    +0.000 HD
ATOM     13  H   UNL     1      44.817   4.979   8.217  0.00  0.00    +0.000 HD
ENDBRANCH   5   9
BRANCH   1  14
ATOM     14  C   UNL     1      47.376   3.717  15.868  0.00  0.00    +0.000 C 
BRANCH  14  15
ATOM     15  C   UNL     1      47.686   3.867  17.361  0.00  0.00    +0.000 C 
BRANCH  15  20
ATOM     16  C   UNL     1      51.284   2.588  17.553  0.00  0.00    +0.000 A 
ATOM     17  C   UNL     1      51.978   3.786  17.772  0.00  0.00    +0.000 A 
ATOM     18  C   UNL     1      51.289   4.990  17.913  0.00  0.00    +0.000 A 
ATOM     19  C   UNL     1      49.897   5.015  17.817  0.00  0.00    +0.000 A 
ATOM     20  C   UNL     1      49.182   3.833  17.589  0.00  0.00    +0.000 A 
ATOM     21  C   UNL     1      49.885   2.623  17.470  0.00  0.00    +0.000 A 
BRANCH  16  22
ATOM     22  C   UNL     1      52.032   1.294  17.341  0.00  0.00    +0.000 C 
BRANCH  22  23
ATOM     23  N   UNL     1      51.503   0.212  18.163  0.00  0.00    +0.000 NA
ATOM     24  H   UNL     1      52.273  -0.379  18.467  0.00  0.00    +0.000 HD
ATOM     25  H   UNL     1      50.903  -0.372  17.582  0.00  0.00    +0.000 HD
ENDBRANCH  22  23
ENDBRANCH  16  22
ENDBRANCH  15  20
ENDBRANCH  14  15
ENDBRANCH   1  14
TORSDOF 6
ENDMDL
MODEL 5
REMARK VINA RESULT:    -6.104      3.522      7.537
REMARK INTER + INTRA:          -8.661
REMARK INTER:                  -8.186
REMARK INTRA:                  -0.475
REMARK UNBOUND:                -0.595
REMARK  Name = 
REMARK  6 active torsions:
REMARK  status: ('A' for Active; 'I' for Inactive)
REMARK    1  A    between atoms: N_1  and  C_2
REMARK    2  A    between atoms: C_2  and  C_3
REMARK    3  A    between atoms: C_7  and  C_8
REMARK    4  A    between atoms: C_8  and  C_9
REMARK    5  A    between atoms: C_9  and  N_10
REMARK    6  A    between atoms: C_14  and  C_15
REMARK                            x       y       z     vdW  Elec       q    Type
REMARK                         _______ _______ _______ _____ _____    ______ ____
ROOT
ATOM      1  N   UNL     1      48.289   7.064  13.736  0.00  0.00    +0.000 N 
ATOM      2  C   UNL     1      48.114   6.091  14.742  0.00  0.00    +0.000 A 
ATOM      3  C   UNL     1      48.625   6.336  16.013  0.00  0.00    +0.000 A 
ATOM      4  C   UNL     1      48.446   5.386  17.024  0.00  0.00    +0.000 A 
ATOM      5  C   UNL     1      47.760   4.201  16.748  0.00  0.00    +0.000 A 
ATOM      6  C   UNL     1      47.311   4.028  15.453  0.00  0.00    +0.000 A 
ATOM      7  N   UNL     1      47.477   4.935  14.459  0.00  0.00    +0.000 NA
ATOM      8  H   UNL     1      47.922   7.947  14.081  0.00  0.00    +0.000 HD
ENDROOT
BRANCH   5   9
ATOM      9  C   UNL     1      47.541   3.210  17.828  0.00  0.00    +0.000 C 
ATOM     10  N   UNL     1      48.414   3.168  18.882  0.00  0.00    +0.000 N 
ATOM     11  O   UNL     1      46.601   2.425  17.784  0.00  0.00    +0.000 OA
ATOM     12  H   UNL     1      49.222   3.755  19.012  0.00  0.00    +0.000 HD
ATOM     13  H   UNL     1      48.235   2.463  19.587  0.00  0.00    +0.000 HD
ENDBRANCH   5   9
BRANCH   1  14
ATOM     14  C   UNL     1      47.676   6.669  12.461  0.00  0.00    +0.000 C 
BRANCH  14  15
ATOM     15  C   UNL     1      46.299   7.315  12.277  0.00  0.00    +0.000 C 
BRANCH  15  20
ATOM     16  C   UNL     1      44.529   4.629  10.209  0.00  0.00    +0.000 A 
ATOM     17  C   UNL     1      43.575   4.175  11.129  0.00  0.00    +0.000 A 
ATOM     18  C   UNL     1      43.463   4.767  12.387  0.00  0.00    +0.000 A 
ATOM     19  C   UNL     1      44.318   5.808  12.749  0.00  0.00    +0.000 A 
ATOM     20  C   UNL     1      45.287   6.272  11.851  0.00  0.00    +0.000 A 
ATOM     21  C   UNL     1      45.377   5.684  10.579  0.00  0.00    +0.000 A 
BRANCH  16  22
ATOM     22  C   UNL     1      44.691   3.951   8.870  0.00  0.00    +0.000 C 
BRANCH  22  23
ATOM     23  N   UNL     1      45.738   4.568   8.064  0.00  0.00    +0.000 NA
ATOM     24  H   UNL     1      46.498   4.857   8.676  0.00  0.00    +0.000 HD
ATOM     25  H   UNL     1      45.365   5.419   7.647  0.00  0.00    +0.000 HD
ENDBRANCH  22  23
ENDBRANCH  16  22
ENDBRANCH  15  20
ENDBRANCH  14  15
ENDBRANCH   1  14
TORSDOF 6
ENDMDL
MODEL 6
REMARK VINA RESULT:    -6.043      3.750      6.258
REMARK INTER + INTRA:          -8.580
REMARK INTER:                  -8.285
REMARK INTRA:                  -0.295
REMARK UNBOUND:                -0.595
REMARK  Name = 
REMARK  6 active torsions:
REMARK  status: ('A' for Active; 'I' for Inactive)
REMARK    1  A    between atoms: N_1  and  C_2
REMARK    2  A    between atoms: C_2  and  C_3
REMARK    3  A    between atoms: C_7  and  C_8
REMARK    4  A    between atoms: C_8  and  C_9
REMARK    5  A    between atoms: C_9  and  N_10
REMARK    6  A    between atoms: C_14  and  C_15
REMARK                            x       y       z     vdW  Elec       q    Type
REMARK                         _______ _______ _______ _____ _____    ______ ____
ROOT
ATOM      1  N   UNL     1      47.077   5.354  14.821  0.00  0.00    +0.000 N 
ATOM      2  C   UNL     1      46.381   4.940  13.666  0.00  0.00    +0.000 A 
ATOM      3  C   UNL     1      46.148   5.864  12.652  0.00  0.00    +0.000 A 
ATOM      4  C   UNL     1      45.471   5.462  11.495  0.00  0.00    +0.000 A 
ATOM      5  C   UNL     1      45.034   4.142  11.370  0.00  0.00    +0.000 A 
ATOM      6  C   UNL     1      45.284   3.300  12.437  0.00  0.00    +0.000 A 
ATOM      7  N   UNL     1      45.934   3.670  13.567  0.00  0.00    +0.000 NA
ATOM      8  H   UNL     1      47.961   5.763  14.529  0.00  0.00    +0.000 HD
ENDROOT
BRANCH   5   9
ATOM      9  C   UNL     1      44.347   3.709  10.130  0.00  0.00    +0.000 C 
ATOM     10  N   UNL     1      44.165   4.614   9.119  0.00  0.00    +0.000 N 
ATOM     11  O   UNL     1      43.934   2.563  10.004  0.00  0.00    +0.000 OA
ATOM     12  H   UNL     1      44.452   5.579   9.121  0.00  0.00    +0.000 HD
ATOM     13  H   UNL     1      43.675   4.277   8.298  0.00  0.00    +0.000 HD
ENDBRANCH   5   9
BRANCH   1  14
ATOM     14  C   UNL     1      47.262   4.263  15.786  0.00  0.00    +0.000 C 
BRANCH  14  15
ATOM     15  C   UNL     1      48.074   4.722  17.002  0.00  0.00    +0.000 C 
BRANCH  15  20
ATOM     16  C   UNL     1      51.594   3.610  18.000  0.00  0.00    +0.000 A 
ATOM     17  C   UNL     1      51.552   2.255  17.646  0.00  0.00    +0.000 A 
ATOM     18  C   UNL     1      50.419   1.714  17.039  0.00  0.00    +0.000 A 
ATOM     19  C   UNL     1      49.305   2.518  16.795  0.00  0.00    +0.000 A 
ATOM     20  C   UNL     1      49.318   3.872  17.149  0.00  0.00    +0.000 A 
ATOM     21  C   UNL     1      50.472   4.411  17.741  0.00  0.00    +0.000 A 
BRANCH  16  22
ATOM     22  C   UNL     1      52.795   4.182  18.712  0.00  0.00    +0.000 C 
BRANCH  22  23
ATOM     23  N   UNL     1      53.013   3.557  20.012  0.00  0.00    +0.000 NA
ATOM     24  H   UNL     1      52.332   3.925  20.673  0.00  0.00    +0.000 HD
ATOM     25  H   UNL     1      53.929   3.837  20.356  0.00  0.00    +0.000 HD
ENDBRANCH  22  23
ENDBRANCH  16  22
ENDBRANCH  15  20
ENDBRANCH  14  15
ENDBRANCH   1  14
TORSDOF 6
ENDMDL
MODEL 7
REMARK VINA RESULT:    -5.998      4.123      6.121
REMARK INTER + INTRA:          -8.521
REMARK INTER:                  -7.989
REMARK INTRA:                  -0.532
REMARK UNBOUND:                -0.595
REMARK  Name = 
REMARK  6 active torsions:
REMARK  status: ('A' for Active; 'I' for Inactive)
REMARK    1  A    between atoms: N_1  and  C_2
REMARK    2  A    between atoms: C_2  and  C_3
REMARK    3  A    between atoms: C_7  and  C_8
REMARK    4  A    between atoms: C_8  and  C_9
REMARK    5  A    between atoms: C_9  and  N_10
REMARK    6  A    between atoms: C_14  and  C_15
REMARK                            x       y       z     vdW  Elec       q    Type
REMARK                         _______ _______ _______ _____ _____    ______ ____
ROOT
ATOM      1  N   UNL     1      47.533   7.617  13.594  0.00  0.00    +0.000 N 
ATOM      2  C   UNL     1      46.577   6.644  13.237  0.00  0.00    +0.000 A 
ATOM      3  C   UNL     1      45.380   7.055  12.658  0.00  0.00    +0.000 A 
ATOM      4  C   UNL     1      44.429   6.098  12.286  0.00  0.00    +0.000 A 
ATOM      5  C   UNL     1      44.688   4.742  12.501  0.00  0.00    +0.000 A 
ATOM      6  C   UNL     1      45.890   4.426  13.105  0.00  0.00    +0.000 A 
ATOM      7  N   UNL     1      46.822   5.338  13.476  0.00  0.00    +0.000 NA
ATOM      8  H   UNL     1      47.733   8.182  12.773  0.00  0.00    +0.000 HD
ENDROOT
BRANCH   5   9
ATOM      9  C   UNL     1      43.696   3.728  12.075  0.00  0.00    +0.000 C 
ATOM     10  N   UNL     1      43.836   2.436  12.506  0.00  0.00    +0.000 N 
ATOM     11  O   UNL     1      42.763   4.026  11.338  0.00  0.00    +0.000 OA
ATOM     12  H   UNL     1      44.567   2.080  13.100  0.00  0.00    +0.000 HD
ATOM     13  H   UNL     1      43.144   1.774  12.175  0.00  0.00    +0.000 HD
ENDBRANCH   5   9
BRANCH   1  14
ATOM     14  C   UNL     1      48.747   7.026  14.171  0.00  0.00    +0.000 C 
BRANCH  14  15
ATOM     15  C   UNL     1      48.901   7.392  15.651  0.00  0.00    +0.000 C 
BRANCH  15  20
ATOM     16  C   UNL     1      48.912   3.946  17.307  0.00  0.00    +0.000 A 
ATOM     17  C   UNL     1      50.255   3.845  17.694  0.00  0.00    +0.000 A 
ATOM     18  C   UNL     1      51.139   4.901  17.475  0.00  0.00    +0.000 A 
ATOM     19  C   UNL     1      50.696   6.065  16.847  0.00  0.00    +0.000 A 
ATOM     20  C   UNL     1      49.361   6.186  16.441  0.00  0.00    +0.000 A 
ATOM     21  C   UNL     1      48.475   5.125  16.686  0.00  0.00    +0.000 A 
BRANCH  16  22
ATOM     22  C   UNL     1      47.969   2.781  17.489  0.00  0.00    +0.000 C 
BRANCH  22  23
ATOM     23  N   UNL     1      46.578   3.209  17.571  0.00  0.00    +0.000 NA
ATOM     24  H   UNL     1      46.549   4.218  17.694  0.00  0.00    +0.000 HD
ATOM     25  H   UNL     1      46.164   2.805  18.410  0.00  0.00    +0.000 HD
ENDBRANCH  22  23
ENDBRANCH  16  22
ENDBRANCH  15  20
ENDBRANCH  14  15
ENDBRANCH   1  14
TORSDOF 6
ENDMDL
MODEL 8
REMARK VINA RESULT:    -5.997      4.132      8.205
REMARK INTER + INTRA:          -8.520
REMARK INTER:                  -8.186
REMARK INTRA:                  -0.334
REMARK UNBOUND:                -0.595
REMARK  Name = 
REMARK  6 active torsions:
REMARK  status: ('A' for Active; 'I' for Inactive)
REMARK    1  A    between atoms: N_1  and  C_2
REMARK    2  A    between atoms: C_2  and  C_3
REMARK    3  A    between atoms: C_7  and  C_8
REMARK    4  A    between atoms: C_8  and  C_9
REMARK    5  A    between atoms: C_9  and  N_10
REMARK    6  A    between atoms: C_14  and  C_15
REMARK                            x       y       z     vdW  Elec       q    Type
REMARK                         _______ _______ _______ _____ _____    ______ ____
ROOT
ATOM      1  N   UNL     1      46.905   4.673  14.235  0.00  0.00    +0.000 N 
ATOM      2  C   UNL     1      47.476   4.630  15.523  0.00  0.00    +0.000 A 
ATOM      3  C   UNL     1      47.092   3.616  16.397  0.00  0.00    +0.000 A 
ATOM      4  C   UNL     1      47.662   3.554  17.674  0.00  0.00    +0.000 A 
ATOM      5  C   UNL     1      48.606   4.508  18.060  0.00  0.00    +0.000 A 
ATOM      6  C   UNL     1      48.907   5.494  17.139  0.00  0.00    +0.000 A 
ATOM      7  N   UNL     1      48.364   5.574  15.900  0.00  0.00    +0.000 NA
ATOM      8  H   UNL     1      47.055   3.771  13.790  0.00  0.00    +0.000 HD
ENDROOT
BRANCH   5   9
ATOM      9  C   UNL     1      49.233   4.420  19.399  0.00  0.00    +0.000 C 
ATOM     10  N   UNL     1      48.550   3.810  20.417  0.00  0.00    +0.000 N 
ATOM     11  O   UNL     1      50.344   4.893  19.609  0.00  0.00    +0.000 OA
ATOM     12  H   UNL     1      47.633   3.400  20.360  0.00  0.00    +0.000 HD
ATOM     13  H   UNL     1      49.012   3.790  21.319  0.00  0.00    +0.000 HD
ENDBRANCH   5   9
BRANCH   1  14
ATOM     14  C   UNL     1      47.426   5.784  13.427  0.00  0.00    +0.000 C 
BRANCH  14  15
ATOM     15  C   UNL     1      46.309   6.747  13.012  0.00  0.00    +0.000 C 
BRANCH  15  20
ATOM     16  C   UNL     1      44.488   4.629  10.402  0.00  0.00    +0.000 A 
ATOM     17  C   UNL     1      43.271   4.394  11.056  0.00  0.00    +0.000 A 
ATOM     18  C   UNL     1      43.015   4.960  12.304  0.00  0.00    +0.000 A 
ATOM     19  C   UNL     1      43.981   5.753  12.924  0.00  0.00    +0.000 A 
ATOM     20  C   UNL     1      45.209   5.993  12.296  0.00  0.00    +0.000 A 
ATOM     21  C   UNL     1      45.448   5.436  11.030  0.00  0.00    +0.000 A 
BRANCH  16  22
ATOM     22  C   UNL     1      44.789   3.968   9.078  0.00  0.00    +0.000 C 
BRANCH  22  23
ATOM     23  N   UNL     1      45.570   4.831   8.199  0.00  0.00    +0.000 NA
ATOM     24  H   UNL     1      45.576   5.773   8.582  0.00  0.00    +0.000 HD
ATOM     25  H   UNL     1      45.097   4.888   7.299  0.00  0.00    +0.000 HD
ENDBRANCH  22  23
ENDBRANCH  16  22
ENDBRANCH  15  20
ENDBRANCH  14  15
ENDBRANCH   1  14
TORSDOF 6
ENDMDL
MODEL 9
REMARK VINA RESULT:    -5.681      3.880      6.818
REMARK INTER + INTRA:          -8.102
REMARK INTER:                  -7.761
REMARK INTRA:                  -0.341
REMARK UNBOUND:                -0.595
REMARK  Name = 
REMARK  6 active torsions:
REMARK  status: ('A' for Active; 'I' for Inactive)
REMARK    1  A    between atoms: N_1  and  C_2
REMARK    2  A    between atoms: C_2  and  C_3
REMARK    3  A    between atoms: C_7  and  C_8
REMARK    4  A    between atoms: C_8  and  C_9
REMARK    5  A    between atoms: C_9  and  N_10
REMARK    6  A    between atoms: C_14  and  C_15
REMARK                            x       y       z     vdW  Elec       q    Type
REMARK                         _______ _______ _______ _____ _____    ______ ____
ROOT
ATOM      1  N   UNL     1      44.457   5.629  12.249  0.00  0.00    +0.000 N 
ATOM      2  C   UNL     1      44.697   7.008  12.082  0.00  0.00    +0.000 A 
ATOM      3  C   UNL     1      45.635   7.633  12.900  0.00  0.00    +0.000 A 
ATOM      4  C   UNL     1      45.893   8.998  12.735  0.00  0.00    +0.000 A 
ATOM      5  C   UNL     1      45.207   9.720  11.756  0.00  0.00    +0.000 A 
ATOM      6  C   UNL     1      44.274   9.027  11.009  0.00  0.00    +0.000 A 
ATOM      7  N   UNL     1      44.007   7.706  11.155  0.00  0.00    +0.000 NA
ATOM      8  H   UNL     1      45.345   5.140  12.175  0.00  0.00    +0.000 HD
ENDROOT
BRANCH   5   9
ATOM      9  C   UNL     1      45.506  11.159  11.560  0.00  0.00    +0.000 C 
ATOM     10  N   UNL     1      46.584  11.517  10.797  0.00  0.00    +0.000 N 
ATOM     11  O   UNL     1      44.811  12.025  12.077  0.00  0.00    +0.000 OA
ATOM     12  H   UNL     1      47.226  10.892  10.337  0.00  0.00    +0.000 HD
ATOM     13  H   UNL     1      46.760  12.511  10.705  0.00  0.00    +0.000 HD
ENDBRANCH   5   9
BRANCH   1  14
ATOM     14  C   UNL     1      43.460   5.114  11.301  0.00  0.00    +0.000 C 
BRANCH  14  15
ATOM     15  C   UNL     1      43.741   3.654  10.929  0.00  0.00    +0.000 C 
BRANCH  15  20
ATOM     16  C   UNL     1      46.072   2.251   8.243  0.00  0.00    +0.000 A 
ATOM     17  C   UNL     1      46.463   3.429   7.592  0.00  0.00    +0.000 A 
ATOM     18  C   UNL     1      46.024   4.672   8.049  0.00  0.00    +0.000 A 
ATOM     19  C   UNL     1      45.173   4.751   9.151  0.00  0.00    +0.000 A 
ATOM     20  C   UNL     1      44.760   3.588   9.812  0.00  0.00    +0.000 A 
ATOM     21  C   UNL     1      45.225   2.343   9.357  0.00  0.00    +0.000 A 
BRANCH  16  22
ATOM     22  C   UNL     1      46.497   0.903   7.713  0.00  0.00    +0.000 C 
BRANCH  22  23
ATOM     23  N   UNL     1      47.755   0.973   6.978  0.00  0.00    +0.000 NA
ATOM     24  H   UNL     1      48.001   1.950   6.838  0.00  0.00    +0.000 HD
ATOM     25  H   UNL     1      47.611   0.576   6.052  0.00  0.00    +0.000 HD
ENDBRANCH  22  23
ENDBRANCH  16  22
ENDBRANCH  15  20
ENDBRANCH  14  15
ENDBRANCH   1  14
TORSDOF 6
ENDMDL
