MODEL 1
REMARK VINA RESULT:    -7.792      0.000      0.000
REMARK INTER + INTRA:         -12.014
REMARK INTER:                 -10.981
REMARK INTRA:                  -1.033
REMARK UNBOUND:                -1.033
REMARK  Name = 
REMARK  8 active torsions:
REMARK  status: ('A' for Active; 'I' for Inactive)
REMARK    1  A    between atoms: C_1  and  C_2
REMARK    2  A    between atoms: C_2  and  C_3
REMARK    3  A    between atoms: C_3  and  N_4
REMARK    4  A    between atoms: N_4  and  C_5
REMARK    5  A    between atoms: C_5  and  C_6
REMARK    6  A    between atoms: C_6  and  C_7
REMARK    7  A    between atoms: C_11  and  C_12
REMARK    8  A    between atoms: C_22  and  C_23
REMARK                            x       y       z     vdW  Elec       q    Type
REMARK                         _______ _______ _______ _____ _____    ______ ____
ROOT
ATOM      1  N   UNL     1      48.002   7.460  13.335  0.00  0.00    +0.000 N 
ATOM      2  C   UNL     1      47.961   6.441  14.304  0.00  0.00    +0.000 A 
ATOM      3  C   UNL     1      48.650   6.526  15.515  0.00  0.00    +0.000 A 
ATOM      4  C   UNL     1      48.521   5.529  16.493  0.00  0.00    +0.000 A 
ATOM      5  C   UNL     1      47.690   4.439  16.263  0.00  0.00    +0.000 A 
ATOM      6  C   UNL     1      47.058   4.399  15.037  0.00  0.00    +0.000 A 
ATOM      7  N   UNL     1      47.189   5.352  14.074  0.00  0.00    +0.000 NA
ENDROOT
BRANCH   5   8
ATOM      8  C   UNL     1      47.534   3.416  17.326  0.00  0.00    +0.000 C 
ATOM      9  N   UNL     1      48.589   3.140  18.150  0.00  0.00    +0.000 N 
ATOM     10  O   UNL     1      46.475   2.817  17.468  0.00  0.00    +0.000 OA
ATOM     11  H   UNL     1      49.508   3.552  18.091  0.00  0.00    +0.000 HD
ATOM     12  H   UNL     1      48.447   2.417  18.839  0.00  0.00    +0.000 HD
ENDBRANCH   5   8
BRANCH   1  13
ATOM     13  C   UNL     1      48.915   8.589  13.557  0.00  0.00    +0.000 C 
BRANCH  13  15
ATOM     14  C   UNL     1      48.543  10.572  11.965  0.00  0.00    +0.000 C 
ATOM     15  C   UNL     1      49.405   9.378  12.342  0.00  0.00    +0.000 C 
ENDBRANCH  13  15
ENDBRANCH   1  13
BRANCH   1  16
ATOM     16  C   UNL     1      47.558   7.059  11.982  0.00  0.00    +0.000 C 
BRANCH  16  17
ATOM     17  C   UNL     1      46.077   7.432  11.765  0.00  0.00    +0.000 C 
BRANCH  17  18
ATOM     18  C   UNL     1      45.132   6.381  11.223  0.00  0.00    +0.000 A 
ATOM     19  C   UNL     1      43.790   6.266  11.581  0.00  0.00    +0.000 A 
ATOM     20  C   UNL     1      43.030   5.195  11.099  0.00  0.00    +0.000 A 
ATOM     21  C   UNL     1      43.599   4.244  10.243  0.00  0.00    +0.000 A 
ATOM     22  C   UNL     1      44.933   4.350   9.822  0.00  0.00    +0.000 A 
ATOM     23  C   UNL     1      45.681   5.414  10.357  0.00  0.00    +0.000 A 
BRANCH  22  24
ATOM     24  C   UNL     1      45.519   3.454   8.794  0.00  0.00    +0.000 A 
ATOM     25  C   UNL     1      46.178   3.983   7.668  0.00  0.00    +0.000 A 
ATOM     26  C   UNL     1      46.853   3.161   6.761  0.00  0.00    +0.000 A 
ATOM     27  C   UNL     1      46.891   1.786   6.959  0.00  0.00    +0.000 A 
ATOM     28  C   UNL     1      46.226   1.230   8.047  0.00  0.00    +0.000 A 
ATOM     29  C   UNL     1      45.538   2.054   8.944  0.00  0.00    +0.000 A 
ENDBRANCH  22  24
ENDBRANCH  17  18
ENDBRANCH  16  17
ENDBRANCH   1  16
TORSDOF 7
ENDMDL
MODEL 2
REMARK VINA RESULT:    -7.491      3.116      5.099
REMARK INTER + INTRA:         -11.589
REMARK INTER:                  -9.821
REMARK INTRA:                  -1.768
REMARK UNBOUND:                -1.033
REMARK  Name = 
REMARK  8 active torsions:
REMARK  status: ('A' for Active; 'I' for Inactive)
REMARK    1  A    between atoms: C_1  and  C_2
REMARK    2  A    between atoms: C_2  and  C_3
REMARK    3  A    between atoms: C_3  and  N_4
REMARK    4  A    between atoms: N_4  and  C_5
REMARK    5  A    between atoms: C_5  and  C_6
REMARK    6  A    between atoms: C_6  and  C_7
REMARK    7  A    between atoms: C_11  and  C_12
REMARK    8  A    between atoms: C_22  and  C_23
REMARK                            x       y       z     vdW  Elec       q    Type
REMARK                         _______ _______ _______ _____ _____    ______ ____
ROOT
ATOM      1  N   UNL     1      47.026   7.079  12.471  0.00  0.00    +0.000 N 
ATOM      2  C   UNL     1      47.840   8.193  12.194  0.00  0.00    +0.000 A 
ATOM      3  C   UNL     1      49.234   8.133  12.228  0.00  0.00    +0.000 A 
ATOM      4  C   UNL     1      50.015   9.240  11.867  0.00  0.00    +0.000 A 
ATOM      5  C   UNL     1      49.399  10.417  11.460  0.00  0.00    +0.000 A 
ATOM      6  C   UNL     1      48.020  10.422  11.474  0.00  0.00    +0.000 A 
ATOM      7  N   UNL     1      47.251   9.359  11.839  0.00  0.00    +0.000 NA
ENDROOT
BRANCH   5   8
ATOM      8  C   UNL     1      50.243  11.564  11.042  0.00  0.00    +0.000 C 
ATOM      9  N   UNL     1      50.126  12.756  11.699  0.00  0.00    +0.000 N 
ATOM     10  O   UNL     1      51.037  11.451  10.117  0.00  0.00    +0.000 OA
ATOM     11  H   UNL     1      49.479  12.958  12.448  0.00  0.00    +0.000 HD
ATOM     12  H   UNL     1      50.698  13.516  11.362  0.00  0.00    +0.000 HD
ENDBRANCH   5   8
BRANCH   1  13
ATOM     13  C   UNL     1      47.674   5.850  12.945  0.00  0.00    +0.000 C 
BRANCH  13  15
ATOM     14  C   UNL     1      46.586   3.556  13.351  0.00  0.00    +0.000 C 
ATOM     15  C   UNL     1      46.899   4.939  13.898  0.00  0.00    +0.000 C 
ENDBRANCH  13  15
ENDBRANCH   1  13
BRANCH   1  16
ATOM     16  C   UNL     1      45.612   7.394  12.775  0.00  0.00    +0.000 C 
BRANCH  16  17
ATOM     17  C   UNL     1      44.718   7.104  11.553  0.00  0.00    +0.000 C 
BRANCH  17  18
ATOM     18  C   UNL     1      44.343   5.668  11.248  0.00  0.00    +0.000 A 
ATOM     19  C   UNL     1      43.392   4.935  11.955  0.00  0.00    +0.000 A 
ATOM     20  C   UNL     1      43.194   3.582  11.657  0.00  0.00    +0.000 A 
ATOM     21  C   UNL     1      43.930   2.961  10.640  0.00  0.00    +0.000 A 
ATOM     22  C   UNL     1      44.862   3.676   9.875  0.00  0.00    +0.000 A 
ATOM     23  C   UNL     1      45.068   5.022  10.228  0.00  0.00    +0.000 A 
BRANCH  22  24
ATOM     24  C   UNL     1      45.540   3.092   8.691  0.00  0.00    +0.000 A 
ATOM     25  C   UNL     1      45.966   3.911   7.627  0.00  0.00    +0.000 A 
ATOM     26  C   UNL     1      46.725   3.401   6.570  0.00  0.00    +0.000 A 
ATOM     27  C   UNL     1      47.081   2.058   6.549  0.00  0.00    +0.000 A 
ATOM     28  C   UNL     1      46.651   1.217   7.570  0.00  0.00    +0.000 A 
ATOM     29  C   UNL     1      45.878   1.727   8.620  0.00  0.00    +0.000 A 
ENDBRANCH  22  24
ENDBRANCH  17  18
ENDBRANCH  16  17
ENDBRANCH   1  16
TORSDOF 7
ENDMDL
MODEL 3
REMARK VINA RESULT:    -7.043      3.382      4.295
REMARK INTER + INTRA:         -10.958
REMARK INTER:                 -10.275
REMARK INTRA:                  -0.683
REMARK UNBOUND:                -1.033
REMARK  Name = 
REMARK  8 active torsions:
REMARK  status: ('A' for Active; 'I' for Inactive)
REMARK    1  A    between atoms: C_1  and  C_2
REMARK    2  A    between atoms: C_2  and  C_3
REMARK    3  A    between atoms: C_3  and  N_4
REMARK    4  A    between atoms: N_4  and  C_5
REMARK    5  A    between atoms: C_5  and  C_6
REMARK    6  A    between atoms: C_6  and  C_7
REMARK    7  A    between atoms: C_11  and  C_12
REMARK    8  A    between atoms: C_22  and  C_23
REMARK                            x       y       z     vdW  Elec       q    Type
REMARK                         _______ _______ _______ _____ _____    ______ ____
ROOT
ATOM      1  N   UNL     1      45.902   8.465  12.694  0.00  0.00    +0.000 N 
ATOM      2  C   UNL     1      47.259   8.420  12.323  0.00  0.00    +0.000 A 
ATOM      3  C   UNL     1      47.950   9.542  11.860  0.00  0.00    +0.000 A 
ATOM      4  C   UNL     1      49.322   9.480  11.577  0.00  0.00    +0.000 A 
ATOM      5  C   UNL     1      50.014   8.290  11.767  0.00  0.00    +0.000 A 
ATOM      6  C   UNL     1      49.270   7.212  12.200  0.00  0.00    +0.000 A 
ATOM      7  N   UNL     1      47.935   7.255  12.461  0.00  0.00    +0.000 NA
ENDROOT
BRANCH   5   8
ATOM      8  C   UNL     1      51.474   8.256  11.502  0.00  0.00    +0.000 C 
ATOM      9  N   UNL     1      52.336   8.012  12.533  0.00  0.00    +0.000 N 
ATOM     10  O   UNL     1      51.909   8.448  10.373  0.00  0.00    +0.000 OA
ATOM     11  H   UNL     1      52.078   7.876  13.500  0.00  0.00    +0.000 HD
ATOM     12  H   UNL     1      53.320   8.027  12.312  0.00  0.00    +0.000 HD
ENDBRANCH   5   8
BRANCH   1  13
ATOM     13  C   UNL     1      45.160   9.709  12.450  0.00  0.00    +0.000 C 
BRANCH  13  15
ATOM     14  C   UNL     1      43.098  10.531  11.154  0.00  0.00    +0.000 C 
ATOM     15  C   UNL     1      44.477   9.895  11.095  0.00  0.00    +0.000 C 
ENDBRANCH  13  15
ENDBRANCH   1  13
BRANCH   1  16
ATOM     16  C   UNL     1      45.231   7.150  12.781  0.00  0.00    +0.000 C 
BRANCH  16  17
ATOM     17  C   UNL     1      44.545   6.801  11.445  0.00  0.00    +0.000 C 
BRANCH  17  18
ATOM     18  C   UNL     1      44.267   5.347  11.126  0.00  0.00    +0.000 A 
ATOM     19  C   UNL     1      43.378   4.540  11.833  0.00  0.00    +0.000 A 
ATOM     20  C   UNL     1      43.272   3.181  11.519  0.00  0.00    +0.000 A 
ATOM     21  C   UNL     1      44.037   2.625  10.487  0.00  0.00    +0.000 A 
ATOM     22  C   UNL     1      44.908   3.413   9.721  0.00  0.00    +0.000 A 
ATOM     23  C   UNL     1      45.024   4.766  10.089  0.00  0.00    +0.000 A 
BRANCH  22  24
ATOM     24  C   UNL     1      45.612   2.892   8.522  0.00  0.00    +0.000 A 
ATOM     25  C   UNL     1      45.957   3.750   7.460  0.00  0.00    +0.000 A 
ATOM     26  C   UNL     1      46.737   3.309   6.387  0.00  0.00    +0.000 A 
ATOM     27  C   UNL     1      47.195   1.997   6.349  0.00  0.00    +0.000 A 
ATOM     28  C   UNL     1      46.847   1.118   7.369  0.00  0.00    +0.000 A 
ATOM     29  C   UNL     1      46.053   1.559   8.434  0.00  0.00    +0.000 A 
ENDBRANCH  22  24
ENDBRANCH  17  18
ENDBRANCH  16  17
ENDBRANCH   1  16
TORSDOF 7
ENDMDL
MODEL 4
REMARK VINA RESULT:    -6.939      2.014      2.708
REMARK INTER + INTRA:         -10.812
REMARK INTER:                  -9.842
REMARK INTRA:                  -0.970
REMARK UNBOUND:                -1.033
REMARK  Name = 
REMARK  8 active torsions:
REMARK  status: ('A' for Active; 'I' for Inactive)
REMARK    1  A    between atoms: C_1  and  C_2
REMARK    2  A    between atoms: C_2  and  C_3
REMARK    3  A    between atoms: C_3  and  N_4
REMARK    4  A    between atoms: N_4  and  C_5
REMARK    5  A    between atoms: C_5  and  C_6
REMARK    6  A    between atoms: C_6  and  C_7
REMARK    7  A    between atoms: C_11  and  C_12
REMARK    8  A    between atoms: C_22  and  C_23
REMARK                            x       y       z     vdW  Elec       q    Type
REMARK                         _______ _______ _______ _____ _____    ______ ____
ROOT
ATOM      1  N   UNL     1      45.725   8.280  12.441  0.00  0.00    +0.000 N 
ATOM      2  C   UNL     1      46.767   7.898  13.307  0.00  0.00    +0.000 A 
ATOM      3  C   UNL     1      47.426   8.807  14.138  0.00  0.00    +0.000 A 
ATOM      4  C   UNL     1      48.403   8.378  15.047  0.00  0.00    +0.000 A 
ATOM      5  C   UNL     1      48.721   7.028  15.134  0.00  0.00    +0.000 A 
ATOM      6  C   UNL     1      48.055   6.185  14.269  0.00  0.00    +0.000 A 
ATOM      7  N   UNL     1      47.117   6.592  13.370  0.00  0.00    +0.000 NA
ENDROOT
BRANCH   5   8
ATOM      8  C   UNL     1      49.728   6.589  16.132  0.00  0.00    +0.000 C 
ATOM      9  N   UNL     1      50.459   7.527  16.804  0.00  0.00    +0.000 N 
ATOM     10  O   UNL     1      49.910   5.398  16.355  0.00  0.00    +0.000 OA
ATOM     11  H   UNL     1      50.407   8.526  16.667  0.00  0.00    +0.000 HD
ATOM     12  H   UNL     1      51.152   7.182  17.451  0.00  0.00    +0.000 HD
ENDBRANCH   5   8
BRANCH   1  13
ATOM     13  C   UNL     1      45.421   9.712  12.315  0.00  0.00    +0.000 C 
BRANCH  13  15
ATOM     14  C   UNL     1      44.371  11.676  11.033  0.00  0.00    +0.000 C 
ATOM     15  C   UNL     1      44.714  10.196  11.049  0.00  0.00    +0.000 C 
ENDBRANCH  13  15
ENDBRANCH   1  13
BRANCH   1  16
ATOM     16  C   UNL     1      45.410   7.309  11.371  0.00  0.00    +0.000 C 
BRANCH  16  17
ATOM     17  C   UNL     1      44.099   6.560  11.688  0.00  0.00    +0.000 C 
BRANCH  17  18
ATOM     18  C   UNL     1      43.988   5.096  11.316  0.00  0.00    +0.000 A 
ATOM     19  C   UNL     1      43.205   4.167  11.998  0.00  0.00    +0.000 A 
ATOM     20  C   UNL     1      43.253   2.817  11.635  0.00  0.00    +0.000 A 
ATOM     21  C   UNL     1      44.066   2.390  10.578  0.00  0.00    +0.000 A 
ATOM     22  C   UNL     1      44.833   3.301   9.837  0.00  0.00    +0.000 A 
ATOM     23  C   UNL     1      44.796   4.644  10.254  0.00  0.00    +0.000 A 
BRANCH  22  24
ATOM     24  C   UNL     1      45.579   2.908   8.615  0.00  0.00    +0.000 A 
ATOM     25  C   UNL     1      45.944   3.870   7.653  0.00  0.00    +0.000 A 
ATOM     26  C   UNL     1      46.762   3.545   6.567  0.00  0.00    +0.000 A 
ATOM     27  C   UNL     1      47.240   2.249   6.416  0.00  0.00    +0.000 A 
ATOM     28  C   UNL     1      46.875   1.270   7.334  0.00  0.00    +0.000 A 
ATOM     29  C   UNL     1      46.043   1.595   8.411  0.00  0.00    +0.000 A 
ENDBRANCH  22  24
ENDBRANCH  17  18
ENDBRANCH  16  17
ENDBRANCH   1  16
TORSDOF 7
ENDMDL
MODEL 5
REMARK VINA RESULT:    -6.780      1.508      2.662
REMARK INTER + INTRA:         -10.588
REMARK INTER:                  -9.258
REMARK INTRA:                  -1.330
REMARK UNBOUND:                -1.033
REMARK  Name = 
REMARK  8 active torsions:
REMARK  status: ('A' for Active; 'I' for Inactive)
REMARK    1  A    between atoms: C_1  and  C_2
REMARK    2  A    between atoms: C_2  and  C_3
REMARK    3  A    between atoms: C_3  and  N_4
REMARK    4  A    between atoms: N_4  and  C_5
REMARK    5  A    between atoms: C_5  and  C_6
REMARK    6  A    between atoms: C_6  and  C_7
REMARK    7  A    between atoms: C_11  and  C_12
REMARK    8  A    between atoms: C_22  and  C_23
REMARK                            x       y       z     vdW  Elec       q    Type
REMARK                         _______ _______ _______ _____ _____    ______ ____
ROOT
ATOM      1  N   UNL     1      49.906   7.634  14.135  0.00  0.00    +0.000 N 
ATOM      2  C   UNL     1      49.356   6.671  15.001  0.00  0.00    +0.000 A 
ATOM      3  C   UNL     1      49.776   6.521  16.325  0.00  0.00    +0.000 A 
ATOM      4  C   UNL     1      49.149   5.607  17.184  0.00  0.00    +0.000 A 
ATOM      5  C   UNL     1      48.088   4.839  16.720  0.00  0.00    +0.000 A 
ATOM      6  C   UNL     1      47.738   5.013  15.397  0.00  0.00    +0.000 A 
ATOM      7  N   UNL     1      48.350   5.885  14.549  0.00  0.00    +0.000 NA
ENDROOT
BRANCH   5   8
ATOM      8  C   UNL     1      47.411   3.908  17.656  0.00  0.00    +0.000 C 
ATOM      9  N   UNL     1      47.822   3.849  18.958  0.00  0.00    +0.000 N 
ATOM     10  O   UNL     1      46.494   3.192  17.272  0.00  0.00    +0.000 OA
ATOM     11  H   UNL     1      48.588   4.370  19.359  0.00  0.00    +0.000 HD
ATOM     12  H   UNL     1      47.353   3.181  19.550  0.00  0.00    +0.000 HD
ENDBRANCH   5   8
BRANCH   1  13
ATOM     13  C   UNL     1      51.058   8.412  14.610  0.00  0.00    +0.000 C 
BRANCH  13  15
ATOM     14  C   UNL     1      50.855  10.153  16.491  0.00  0.00    +0.000 C 
ATOM     15  C   UNL     1      50.836   9.875  14.997  0.00  0.00    +0.000 C 
ENDBRANCH  13  15
ENDBRANCH   1  13
BRANCH   1  16
ATOM     16  C   UNL     1      49.645   7.407  12.697  0.00  0.00    +0.000 C 
BRANCH  16  17
ATOM     17  C   UNL     1      48.684   8.479  12.145  0.00  0.00    +0.000 C 
BRANCH  17  18
ATOM     18  C   UNL     1      47.225   8.121  11.954  0.00  0.00    +0.000 A 
ATOM     19  C   UNL     1      46.157   8.895  12.406  0.00  0.00    +0.000 A 
ATOM     20  C   UNL     1      44.848   8.422  12.267  0.00  0.00    +0.000 A 
ATOM     21  C   UNL     1      44.596   7.185  11.661  0.00  0.00    +0.000 A 
ATOM     22  C   UNL     1      45.640   6.398  11.152  0.00  0.00    +0.000 A 
ATOM     23  C   UNL     1      46.946   6.882  11.345  0.00  0.00    +0.000 A 
BRANCH  22  24
ATOM     24  C   UNL     1      45.398   5.163  10.365  0.00  0.00    +0.000 A 
ATOM     25  C   UNL     1      44.696   4.078  10.925  0.00  0.00    +0.000 A 
ATOM     26  C   UNL     1      44.341   2.963  10.160  0.00  0.00    +0.000 A 
ATOM     27  C   UNL     1      44.675   2.906   8.812  0.00  0.00    +0.000 A 
ATOM     28  C   UNL     1      45.393   3.949   8.237  0.00  0.00    +0.000 A 
ATOM     29  C   UNL     1      45.761   5.056   9.010  0.00  0.00    +0.000 A 
ENDBRANCH  22  24
ENDBRANCH  17  18
ENDBRANCH  16  17
ENDBRANCH   1  16
TORSDOF 7
ENDMDL
MODEL 6
REMARK VINA RESULT:    -6.574      3.731      8.349
REMARK INTER + INTRA:         -10.297
REMARK INTER:                  -8.770
REMARK INTRA:                  -1.527
REMARK UNBOUND:                -1.033
REMARK  Name = 
REMARK  8 active torsions:
REMARK  status: ('A' for Active; 'I' for Inactive)
REMARK    1  A    between atoms: C_1  and  C_2
REMARK    2  A    between atoms: C_2  and  C_3
REMARK    3  A    between atoms: C_3  and  N_4
REMARK    4  A    between atoms: N_4  and  C_5
REMARK    5  A    between atoms: C_5  and  C_6
REMARK    6  A    between atoms: C_6  and  C_7
REMARK    7  A    between atoms: C_11  and  C_12
REMARK    8  A    between atoms: C_22  and  C_23
REMARK                            x       y       z     vdW  Elec       q    Type
REMARK                         _______ _______ _______ _____ _____    ______ ____
ROOT
ATOM      1  N   UNL     1      47.404   5.039  14.585  0.00  0.00    +0.000 N 
ATOM      2  C   UNL     1      46.563   4.726  13.502  0.00  0.00    +0.000 A 
ATOM      3  C   UNL     1      46.157   5.678  12.564  0.00  0.00    +0.000 A 
ATOM      4  C   UNL     1      45.385   5.315  11.451  0.00  0.00    +0.000 A 
ATOM      5  C   UNL     1      45.021   3.987  11.266  0.00  0.00    +0.000 A 
ATOM      6  C   UNL     1      45.429   3.099  12.240  0.00  0.00    +0.000 A 
ATOM      7  N   UNL     1      46.164   3.443  13.334  0.00  0.00    +0.000 NA
ENDROOT
BRANCH   5   8
ATOM      8  C   UNL     1      44.240   3.616  10.060  0.00  0.00    +0.000 C 
ATOM      9  N   UNL     1      43.990   4.563   9.107  0.00  0.00    +0.000 N 
ATOM     10  O   UNL     1      43.817   2.476   9.915  0.00  0.00    +0.000 OA
ATOM     11  H   UNL     1      44.265   5.533   9.151  0.00  0.00    +0.000 HD
ATOM     12  H   UNL     1      43.431   4.273   8.319  0.00  0.00    +0.000 HD
ENDBRANCH   5   8
BRANCH   1  13
ATOM     13  C   UNL     1      47.750   6.449  14.806  0.00  0.00    +0.000 C 
BRANCH  13  15
ATOM     14  C   UNL     1      50.159   7.052  15.470  0.00  0.00    +0.000 C 
ATOM     15  C   UNL     1      49.128   6.937  14.359  0.00  0.00    +0.000 C 
ENDBRANCH  13  15
ENDBRANCH   1  13
BRANCH   1  16
ATOM     16  C   UNL     1      47.418   4.041  15.677  0.00  0.00    +0.000 C 
BRANCH  16  17
ATOM     17  C   UNL     1      47.354   4.740  17.050  0.00  0.00    +0.000 C 
BRANCH  17  18
ATOM     18  C   UNL     1      48.618   4.832  17.881  0.00  0.00    +0.000 A 
ATOM     19  C   UNL     1      48.813   5.738  18.922  0.00  0.00    +0.000 A 
ATOM     20  C   UNL     1      50.056   5.809  19.558  0.00  0.00    +0.000 A 
ATOM     21  C   UNL     1      51.105   4.964  19.173  0.00  0.00    +0.000 A 
ATOM     22  C   UNL     1      50.934   4.007  18.162  0.00  0.00    +0.000 A 
ATOM     23  C   UNL     1      49.686   3.990  17.513  0.00  0.00    +0.000 A 
BRANCH  22  24
ATOM     24  C   UNL     1      51.968   2.993  17.839  0.00  0.00    +0.000 A 
ATOM     25  C   UNL     1      53.338   3.298  17.954  0.00  0.00    +0.000 A 
ATOM     26  C   UNL     1      54.323   2.321  17.787  0.00  0.00    +0.000 A 
ATOM     27  C   UNL     1      53.963   1.009  17.503  0.00  0.00    +0.000 A 
ATOM     28  C   UNL     1      52.620   0.681  17.355  0.00  0.00    +0.000 A 
ATOM     29  C   UNL     1      51.637   1.665  17.507  0.00  0.00    +0.000 A 
ENDBRANCH  22  24
ENDBRANCH  17  18
ENDBRANCH  16  17
ENDBRANCH   1  16
TORSDOF 7
ENDMDL
MODEL 7
REMARK VINA RESULT:    -6.355      3.136      7.436
REMARK INTER + INTRA:          -9.989
REMARK INTER:                  -8.875
REMARK INTRA:                  -1.114
REMARK UNBOUND:                -1.033
REMARK  Name = 
REMARK  8 active torsions:
REMARK  status: ('A' for Active; 'I' for Inactive)
REMARK    1  A    between atoms: C_1  and  C_2
REMARK    2  A    between atoms: C_2  and  C_3
REMARK    3  A    between atoms: C_3  and  N_4
REMARK    4  A    between atoms: N_4  and  C_5
REMARK    5  A    between atoms: C_5  and  C_6
REMARK    6  A    between atoms: C_6  and  C_7
REMARK    7  A    between atoms: C_11  and  C_12
REMARK    8  A    between atoms: C_22  and  C_23
REMARK                            x       y       z     vdW  Elec       q    Type
REMARK                         _______ _______ _______ _____ _____    ______ ____
ROOT
ATOM      1  N   UNL     1      48.510   7.562  13.605  0.00  0.00    +0.000 N 
ATOM      2  C   UNL     1      47.513   6.598  13.373  0.00  0.00    +0.000 A 
ATOM      3  C   UNL     1      46.330   6.887  12.689  0.00  0.00    +0.000 A 
ATOM      4  C   UNL     1      45.395   5.883  12.404  0.00  0.00    +0.000 A 
ATOM      5  C   UNL     1      45.645   4.574  12.796  0.00  0.00    +0.000 A 
ATOM      6  C   UNL     1      46.817   4.356  13.491  0.00  0.00    +0.000 A 
ATOM      7  N   UNL     1      47.725   5.327  13.789  0.00  0.00    +0.000 NA
ENDROOT
BRANCH   5   8
ATOM      8  C   UNL     1      44.663   3.517  12.448  0.00  0.00    +0.000 C 
ATOM      9  N   UNL     1      44.873   2.746  11.340  0.00  0.00    +0.000 N 
ATOM     10  O   UNL     1      43.669   3.335  13.140  0.00  0.00    +0.000 OA
ATOM     11  H   UNL     1      45.639   2.842  10.690  0.00  0.00    +0.000 HD
ATOM     12  H   UNL     1      44.164   2.061  11.126  0.00  0.00    +0.000 HD
ENDBRANCH   5   8
BRANCH   1  13
ATOM     13  C   UNL     1      48.226   8.954  13.232  0.00  0.00    +0.000 C 
BRANCH  13  15
ATOM     14  C   UNL     1      50.081   8.835  11.456  0.00  0.00    +0.000 C 
ATOM     15  C   UNL     1      48.780   9.478  11.907  0.00  0.00    +0.000 C 
ENDBRANCH  13  15
ENDBRANCH   1  13
BRANCH   1  16
ATOM     16  C   UNL     1      49.491   7.211  14.656  0.00  0.00    +0.000 C 
BRANCH  16  17
ATOM     17  C   UNL     1      48.941   7.566  16.052  0.00  0.00    +0.000 C 
BRANCH  17  18
ATOM     18  C   UNL     1      48.890   6.486  17.112  0.00  0.00    +0.000 A 
ATOM     19  C   UNL     1      47.955   6.437  18.144  0.00  0.00    +0.000 A 
ATOM     20  C   UNL     1      48.059   5.452  19.131  0.00  0.00    +0.000 A 
ATOM     21  C   UNL     1      49.085   4.499  19.084  0.00  0.00    +0.000 A 
ATOM     22  C   UNL     1      50.017   4.485  18.036  0.00  0.00    +0.000 A 
ATOM     23  C   UNL     1      49.910   5.515  17.083  0.00  0.00    +0.000 A 
BRANCH  22  24
ATOM     24  C   UNL     1      51.015   3.400  17.869  0.00  0.00    +0.000 A 
ATOM     25  C   UNL     1      52.346   3.572  18.294  0.00  0.00    +0.000 A 
ATOM     26  C   UNL     1      53.265   2.519  18.270  0.00  0.00    +0.000 A 
ATOM     27  C   UNL     1      52.875   1.262  17.823  0.00  0.00    +0.000 A 
ATOM     28  C   UNL     1      51.575   1.067  17.370  0.00  0.00    +0.000 A 
ATOM     29  C   UNL     1      50.662   2.128  17.380  0.00  0.00    +0.000 A 
ENDBRANCH  22  24
ENDBRANCH  17  18
ENDBRANCH  16  17
ENDBRANCH   1  16
TORSDOF 7
ENDMDL
MODEL 8
REMARK VINA RESULT:    -6.212      3.277      6.744
REMARK INTER + INTRA:          -9.787
REMARK INTER:                  -8.336
REMARK INTRA:                  -1.451
REMARK UNBOUND:                -1.033
REMARK  Name = 
REMARK  8 active torsions:
REMARK  status: ('A' for Active; 'I' for Inactive)
REMARK    1  A    between atoms: C_1  and  C_2
REMARK    2  A    between atoms: C_2  and  C_3
REMARK    3  A    between atoms: C_3  and  N_4
REMARK    4  A    between atoms: N_4  and  C_5
REMARK    5  A    between atoms: C_5  and  C_6
REMARK    6  A    between atoms: C_6  and  C_7
REMARK    7  A    between atoms: C_11  and  C_12
REMARK    8  A    between atoms: C_22  and  C_23
REMARK                            x       y       z     vdW  Elec       q    Type
REMARK                         _______ _______ _______ _____ _____    ______ ____
ROOT
ATOM      1  N   UNL     1      47.612   8.712  12.540  0.00  0.00    +0.000 N 
ATOM      2  C   UNL     1      46.840   7.540  12.642  0.00  0.00    +0.000 A 
ATOM      3  C   UNL     1      45.487   7.497  12.297  0.00  0.00    +0.000 A 
ATOM      4  C   UNL     1      44.769   6.294  12.334  0.00  0.00    +0.000 A 
ATOM      5  C   UNL     1      45.408   5.119  12.710  0.00  0.00    +0.000 A 
ATOM      6  C   UNL     1      46.736   5.231  13.065  0.00  0.00    +0.000 A 
ATOM      7  N   UNL     1      47.439   6.397  13.050  0.00  0.00    +0.000 NA
ENDROOT
BRANCH   5   8
ATOM      8  C   UNL     1      44.641   3.848  12.702  0.00  0.00    +0.000 C 
ATOM      9  N   UNL     1      45.099   2.794  11.963  0.00  0.00    +0.000 N 
ATOM     10  O   UNL     1      43.605   3.739  13.347  0.00  0.00    +0.000 OA
ATOM     11  H   UNL     1      45.919   2.797  11.374  0.00  0.00    +0.000 HD
ATOM     12  H   UNL     1      44.530   1.961  11.965  0.00  0.00    +0.000 HD
ENDBRANCH   5   8
BRANCH   1  13
ATOM     13  C   UNL     1      46.927   9.962  12.187  0.00  0.00    +0.000 C 
BRANCH  13  15
ATOM     14  C   UNL     1      47.870  12.346  12.000  0.00  0.00    +0.000 C 
ATOM     15  C   UNL     1      47.680  10.990  11.341  0.00  0.00    +0.000 C 
ENDBRANCH  13  15
ENDBRANCH   1  13
BRANCH   1  16
ATOM     16  C   UNL     1      48.883   8.695  13.296  0.00  0.00    +0.000 C 
BRANCH  16  17
ATOM     17  C   UNL     1      48.751   9.511  14.598  0.00  0.00    +0.000 C 
BRANCH  17  18
ATOM     18  C   UNL     1      48.524   8.773  15.901  0.00  0.00    +0.000 A 
ATOM     19  C   UNL     1      48.042   9.364  17.068  0.00  0.00    +0.000 A 
ATOM     20  C   UNL     1      47.966   8.614  18.246  0.00  0.00    +0.000 A 
ATOM     21  C   UNL     1      48.353   7.268  18.263  0.00  0.00    +0.000 A 
ATOM     22  C   UNL     1      48.799   6.625  17.099  0.00  0.00    +0.000 A 
ATOM     23  C   UNL     1      48.904   7.417  15.941  0.00  0.00    +0.000 A 
BRANCH  22  24
ATOM     24  C   UNL     1      49.064   5.166  17.044  0.00  0.00    +0.000 A 
ATOM     25  C   UNL     1      50.311   4.644  17.439  0.00  0.00    +0.000 A 
ATOM     26  C   UNL     1      50.535   3.267  17.524  0.00  0.00    +0.000 A 
ATOM     27  C   UNL     1      49.515   2.374  17.219  0.00  0.00    +0.000 A 
ATOM     28  C   UNL     1      48.280   2.857  16.799  0.00  0.00    +0.000 A 
ATOM     29  C   UNL     1      48.064   4.236  16.700  0.00  0.00    +0.000 A 
ENDBRANCH  22  24
ENDBRANCH  17  18
ENDBRANCH  16  17
ENDBRANCH   1  16
TORSDOF 7
ENDMDL
MODEL 9
REMARK VINA RESULT:    -6.173      3.522      8.659
REMARK INTER + INTRA:          -9.732
REMARK INTER:                  -8.648
REMARK INTRA:                  -1.084
REMARK UNBOUND:                -1.033
REMARK  Name = 
REMARK  8 active torsions:
REMARK  status: ('A' for Active; 'I' for Inactive)
REMARK    1  A    between atoms: C_1  and  C_2
REMARK    2  A    between atoms: C_2  and  C_3
REMARK    3  A    between atoms: C_3  and  N_4
REMARK    4  A    between atoms: N_4  and  C_5
REMARK    5  A    between atoms: C_5  and  C_6
REMARK    6  A    between atoms: C_6  and  C_7
REMARK    7  A    between atoms: C_11  and  C_12
REMARK    8  A    between atoms: C_22  and  C_23
REMARK                            x       y       z     vdW  Elec       q    Type
REMARK                         _______ _______ _______ _____ _____    ______ ____
ROOT
ATOM      1  N   UNL     1      47.938   7.264  13.038  0.00  0.00    +0.000 N 
ATOM      2  C   UNL     1      46.899   6.381  12.695  0.00  0.00    +0.000 A 
ATOM      3  C   UNL     1      46.447   6.223  11.383  0.00  0.00    +0.000 A 
ATOM      4  C   UNL     1      45.465   5.274  11.065  0.00  0.00    +0.000 A 
ATOM      5  C   UNL     1      44.934   4.468  12.065  0.00  0.00    +0.000 A 
ATOM      6  C   UNL     1      45.400   4.691  13.344  0.00  0.00    +0.000 A 
ATOM      7  N   UNL     1      46.341   5.621  13.667  0.00  0.00    +0.000 NA
ENDROOT
BRANCH   5   8
ATOM      8  C   UNL     1      43.925   3.441  11.701  0.00  0.00    +0.000 C 
ATOM      9  N   UNL     1      43.722   2.378  12.535  0.00  0.00    +0.000 N 
ATOM     10  O   UNL     1      43.280   3.538  10.665  0.00  0.00    +0.000 OA
ATOM     11  H   UNL     1      44.226   2.192  13.390  0.00  0.00    +0.000 HD
ATOM     12  H   UNL     1      43.049   1.690  12.233  0.00  0.00    +0.000 HD
ENDBRANCH   5   8
BRANCH   1  13
ATOM     13  C   UNL     1      48.468   8.148  11.991  0.00  0.00    +0.000 C 
BRANCH  13  15
ATOM     14  C   UNL     1      51.005   8.475  12.243  0.00  0.00    +0.000 C 
ATOM     15  C   UNL     1      49.867   7.866  11.441  0.00  0.00    +0.000 C 
ENDBRANCH  13  15
ENDBRANCH   1  13
BRANCH   1  16
ATOM     16  C   UNL     1      48.027   7.602  14.475  0.00  0.00    +0.000 C 
BRANCH  16  17
ATOM     17  C   UNL     1      49.238   6.901  15.123  0.00  0.00    +0.000 C 
BRANCH  17  18
ATOM     18  C   UNL     1      49.143   6.472  16.573  0.00  0.00    +0.000 A 
ATOM     19  C   UNL     1      49.579   5.242  17.061  0.00  0.00    +0.000 A 
ATOM     20  C   UNL     1      49.351   4.905  18.400  0.00  0.00    +0.000 A 
ATOM     21  C   UNL     1      48.704   5.799  19.261  0.00  0.00    +0.000 A 
ATOM     22  C   UNL     1      48.292   7.065  18.820  0.00  0.00    +0.000 A 
ATOM     23  C   UNL     1      48.498   7.357  17.459  0.00  0.00    +0.000 A 
BRANCH  22  24
ATOM     24  C   UNL     1      47.750   8.095  19.741  0.00  0.00    +0.000 A 
ATOM     25  C   UNL     1      47.265   9.321  19.246  0.00  0.00    +0.000 A 
ATOM     26  C   UNL     1      46.627  10.246  20.078  0.00  0.00    +0.000 A 
ATOM     27  C   UNL     1      46.455   9.967  21.429  0.00  0.00    +0.000 A 
ATOM     28  C   UNL     1      46.948   8.777  21.954  0.00  0.00    +0.000 A 
ATOM     29  C   UNL     1      47.600   7.860  21.120  0.00  0.00    +0.000 A 
ENDBRANCH  22  24
ENDBRANCH  17  18
ENDBRANCH  16  17
ENDBRANCH   1  16
TORSDOF 7
ENDMDL
