MODEL 1
REMARK VINA RESULT:    -6.830      0.000      0.000
REMARK INTER + INTRA:          -8.277
REMARK INTER:                  -8.028
REMARK INTRA:                  -0.249
REMARK UNBOUND:                -0.249
REMARK  Name = 
REMARK  3 active torsions:
REMARK  status: ('A' for Active; 'I' for Inactive)
REMARK    1  A    between atoms: C_2  and  C_4
REMARK    2  A    between atoms: C_8  and  C_9
REMARK    3  A    between atoms: C_10  and  C_11
REMARK                            x       y       z     vdW  Elec       q    Type
REMARK                         _______ _______ _______ _____ _____    ______ ____
ROOT
ATOM      1  C   UNL     1      45.976   4.532  13.860  0.00  0.00    +0.000 C 
ATOM      2  C   UNL     1      46.715   4.340  14.801  0.00  0.00    +0.000 C 
ENDROOT
BRANCH   2   3
ATOM      3  C   UNL     1      47.575   4.044  15.920  0.00  0.00    +0.000 A 
ATOM      4  C   UNL     1      48.142   2.788  16.068  0.00  0.00    +0.000 A 
ATOM      5  C   UNL     1      48.948   2.567  17.173  0.00  0.00    +0.000 A 
ATOM      6  N   UNL     1      49.206   3.492  18.129  0.00  0.00    +0.000 NA
ATOM      7  C   UNL     1      48.620   4.703  18.020  0.00  0.00    +0.000 A 
ATOM      8  N   UNL     1      48.795   5.636  19.026  0.00  0.00    +0.000 N 
ATOM      9  C   UNL     1      50.018   5.661  19.823  0.00  0.00    +0.000 C 
ATOM     10  C   UNL     1      49.740   5.411  21.305  0.00  0.00    +0.000 C 
ATOM     11  C   UNL     1      48.611   6.294  21.832  0.00  0.00    +0.000 C 
ATOM     12  C   UNL     1      47.367   6.148  20.964  0.00  0.00    +0.000 C 
ATOM     13  C   UNL     1      47.664   6.431  19.490  0.00  0.00    +0.000 C 
ATOM     14  C   UNL     1      47.828   5.005  16.902  0.00  0.00    +0.000 A 
ENDBRANCH   2   3
BRANCH   1  19
ATOM     15  C   UNL     1      44.576   4.646  10.417  0.00  0.00    +0.000 A 
ATOM     16  C   UNL     1      43.324   5.191  10.692  0.00  0.00    +0.000 A 
ATOM     17  C   UNL     1      43.015   5.435  12.016  0.00  0.00    +0.000 A 
ATOM     18  N   UNL     1      43.865   5.208  13.046  0.00  0.00    +0.000 NA
ATOM     19  C   UNL     1      45.073   4.672  12.750  0.00  0.00    +0.000 A 
ATOM     20  C   UNL     1      45.458   4.349  11.461  0.00  0.00    +0.000 A 
BRANCH  15  22
ATOM     21  N   UNL     1      44.331   3.371   8.363  0.00  0.00    +0.000 N 
ATOM     22  C   UNL     1      44.992   4.369   9.022  0.00  0.00    +0.000 C 
ATOM     23  O   UNL     1      45.859   5.033   8.473  0.00  0.00    +0.000 OA
ATOM     24  H   UNL     1      44.541   3.264   7.378  0.00  0.00    +0.000 HD
ATOM     25  H   UNL     1      43.457   2.984   8.693  0.00  0.00    +0.000 HD
ENDBRANCH  15  22
ENDBRANCH   1  19
TORSDOF 3
ENDMDL
MODEL 2
REMARK VINA RESULT:    -6.160      6.140      7.637
REMARK INTER + INTRA:          -7.489
REMARK INTER:                  -7.234
REMARK INTRA:                  -0.256
REMARK UNBOUND:                -0.249
REMARK  Name = 
REMARK  3 active torsions:
REMARK  status: ('A' for Active; 'I' for Inactive)
REMARK    1  A    between atoms: C_2  and  C_4
REMARK    2  A    between atoms: C_8  and  C_9
REMARK    3  A    between atoms: C_10  and  C_11
REMARK                            x       y       z     vdW  Elec       q    Type
REMARK                         _______ _______ _______ _____ _____    ______ ____
ROOT
ATOM      1  C   UNL     1      46.776   6.837  11.672  0.00  0.00    +0.000 C 
ATOM      2  C   UNL     1      47.847   7.402  11.710  0.00  0.00    +0.000 C 
ENDROOT
BRANCH   2   3
ATOM      3  C   UNL     1      49.092   8.130  11.721  0.00  0.00    +0.000 A 
ATOM      4  C   UNL     1      49.146   9.442  12.166  0.00  0.00    +0.000 A 
ATOM      5  C   UNL     1      50.372  10.086  12.137  0.00  0.00    +0.000 A 
ATOM      6  N   UNL     1      51.520   9.526  11.687  0.00  0.00    +0.000 NA
ATOM      7  C   UNL     1      51.469   8.266  11.205  0.00  0.00    +0.000 A 
ATOM      8  N   UNL     1      52.608   7.701  10.658  0.00  0.00    +0.000 N 
ATOM      9  C   UNL     1      53.936   8.081  11.128  0.00  0.00    +0.000 C 
ATOM     10  C   UNL     1      54.778   8.710  10.018  0.00  0.00    +0.000 C 
ATOM     11  C   UNL     1      54.763   7.870   8.744  0.00  0.00    +0.000 C 
ATOM     12  C   UNL     1      53.331   7.579   8.309  0.00  0.00    +0.000 C 
ATOM     13  C   UNL     1      52.518   6.924   9.427  0.00  0.00    +0.000 C 
ATOM     14  C   UNL     1      50.268   7.542  11.247  0.00  0.00    +0.000 A 
ENDBRANCH   2   3
BRANCH   1  19
ATOM     15  C   UNL     1      44.030   4.372  11.213  0.00  0.00    +0.000 A 
ATOM     16  C   UNL     1      42.939   5.238  11.194  0.00  0.00    +0.000 A 
ATOM     17  C   UNL     1      43.193   6.582  11.388  0.00  0.00    +0.000 A 
ATOM     18  N   UNL     1      44.433   7.102  11.559  0.00  0.00    +0.000 NA
ATOM     19  C   UNL     1      45.473   6.236  11.579  0.00  0.00    +0.000 A 
ATOM     20  C   UNL     1      45.318   4.868  11.441  0.00  0.00    +0.000 A 
BRANCH  15  22
ATOM     21  N   UNL     1      44.698   2.307  10.120  0.00  0.00    +0.000 N 
ATOM     22  C   UNL     1      43.846   2.918  10.997  0.00  0.00    +0.000 C 
ATOM     23  O   UNL     1      42.997   2.285  11.610  0.00  0.00    +0.000 OA
ATOM     24  H   UNL     1      44.641   1.297  10.064  0.00  0.00    +0.000 HD
ATOM     25  H   UNL     1      45.554   2.739   9.800  0.00  0.00    +0.000 HD
ENDBRANCH  15  22
ENDBRANCH   1  19
TORSDOF 3
ENDMDL
MODEL 3
REMARK VINA RESULT:    -6.121      2.572      3.280
REMARK INTER + INTRA:          -7.443
REMARK INTER:                  -7.193
REMARK INTRA:                  -0.250
REMARK UNBOUND:                -0.249
REMARK  Name = 
REMARK  3 active torsions:
REMARK  status: ('A' for Active; 'I' for Inactive)
REMARK    1  A    between atoms: C_2  and  C_4
REMARK    2  A    between atoms: C_8  and  C_9
REMARK    3  A    between atoms: C_10  and  C_11
REMARK                            x       y       z     vdW  Elec       q    Type
REMARK                         _______ _______ _______ _____ _____    ______ ____
ROOT
ATOM      1  C   UNL     1      46.417   5.932  13.238  0.00  0.00    +0.000 C 
ATOM      2  C   UNL     1      47.432   6.335  13.761  0.00  0.00    +0.000 C 
ENDROOT
BRANCH   2   3
ATOM      3  C   UNL     1      48.655   6.749  14.405  0.00  0.00    +0.000 A 
ATOM      4  C   UNL     1      49.530   7.621  13.776  0.00  0.00    +0.000 A 
ATOM      5  C   UNL     1      50.692   7.967  14.446  0.00  0.00    +0.000 A 
ATOM      6  N   UNL     1      51.040   7.497  15.668  0.00  0.00    +0.000 NA
ATOM      7  C   UNL     1      50.219   6.609  16.267  0.00  0.00    +0.000 A 
ATOM      8  N   UNL     1      50.592   6.046  17.475  0.00  0.00    +0.000 N 
ATOM      9  C   UNL     1      51.431   6.779  18.418  0.00  0.00    +0.000 C 
ATOM     10  C   UNL     1      52.758   6.065  18.678  0.00  0.00    +0.000 C 
ATOM     11  C   UNL     1      52.558   4.588  19.007  0.00  0.00    +0.000 C 
ATOM     12  C   UNL     1      51.720   3.907  17.932  0.00  0.00    +0.000 C 
ATOM     13  C   UNL     1      50.386   4.622  17.711  0.00  0.00    +0.000 C 
ATOM     14  C   UNL     1      49.005   6.251  15.663  0.00  0.00    +0.000 A 
ENDBRANCH   2   3
BRANCH   1  19
ATOM     15  C   UNL     1      44.079   4.227  10.902  0.00  0.00    +0.000 A 
ATOM     16  C   UNL     1      42.868   4.540  11.514  0.00  0.00    +0.000 A 
ATOM     17  C   UNL     1      42.920   5.256  12.694  0.00  0.00    +0.000 A 
ATOM     18  N   UNL     1      44.068   5.695  13.264  0.00  0.00    +0.000 NA
ATOM     19  C   UNL     1      45.231   5.371  12.650  0.00  0.00    +0.000 A 
ATOM     20  C   UNL     1      45.286   4.619  11.490  0.00  0.00    +0.000 A 
BRANCH  15  22
ATOM     21  N   UNL     1      44.196   4.209   8.475  0.00  0.00    +0.000 N 
ATOM     22  C   UNL     1      44.111   3.476   9.625  0.00  0.00    +0.000 C 
ATOM     23  O   UNL     1      44.104   2.253   9.605  0.00  0.00    +0.000 OA
ATOM     24  H   UNL     1      44.332   3.689   7.616  0.00  0.00    +0.000 HD
ATOM     25  H   UNL     1      44.456   5.186   8.468  0.00  0.00    +0.000 HD
ENDBRANCH  15  22
ENDBRANCH   1  19
TORSDOF 3
ENDMDL
MODEL 4
REMARK VINA RESULT:    -5.859      4.405      5.091
REMARK INTER + INTRA:          -7.136
REMARK INTER:                  -6.895
REMARK INTRA:                  -0.240
REMARK UNBOUND:                -0.249
REMARK  Name = 
REMARK  3 active torsions:
REMARK  status: ('A' for Active; 'I' for Inactive)
REMARK    1  A    between atoms: C_2  and  C_4
REMARK    2  A    between atoms: C_8  and  C_9
REMARK    3  A    between atoms: C_10  and  C_11
REMARK                            x       y       z     vdW  Elec       q    Type
REMARK                         _______ _______ _______ _____ _____    ______ ____
ROOT
ATOM      1  C   UNL     1      46.888   6.440  12.083  0.00  0.00    +0.000 C 
ATOM      2  C   UNL     1      47.982   6.922  12.278  0.00  0.00    +0.000 C 
ENDROOT
BRANCH   2   3
ATOM      3  C   UNL     1      49.257   7.560  12.496  0.00  0.00    +0.000 A 
ATOM      4  C   UNL     1      49.980   8.085  11.436  0.00  0.00    +0.000 A 
ATOM      5  C   UNL     1      51.204   8.672  11.715  0.00  0.00    +0.000 A 
ATOM      6  N   UNL     1      51.751   8.751  12.952  0.00  0.00    +0.000 NA
ATOM      7  C   UNL     1      51.078   8.198  13.983  0.00  0.00    +0.000 A 
ATOM      8  N   UNL     1      51.653   8.187  15.241  0.00  0.00    +0.000 N 
ATOM      9  C   UNL     1      52.574   9.241  15.656  0.00  0.00    +0.000 C 
ATOM     10  C   UNL     1      53.964   8.693  15.978  0.00  0.00    +0.000 C 
ATOM     11  C   UNL     1      53.901   7.488  16.914  0.00  0.00    +0.000 C 
ATOM     12  C   UNL     1      52.959   6.426  16.359  0.00  0.00    +0.000 C 
ATOM     13  C   UNL     1      51.567   6.992  16.073  0.00  0.00    +0.000 C 
ATOM     14  C   UNL     1      49.813   7.629  13.776  0.00  0.00    +0.000 A 
ENDBRANCH   2   3
BRANCH   1  19
ATOM     15  C   UNL     1      44.022   4.222  11.248  0.00  0.00    +0.000 A 
ATOM     16  C   UNL     1      43.013   5.175  11.137  0.00  0.00    +0.000 A 
ATOM     17  C   UNL     1      43.350   6.489  11.399  0.00  0.00    +0.000 A 
ATOM     18  N   UNL     1      44.600   6.901  11.721  0.00  0.00    +0.000 NA
ATOM     19  C   UNL     1      45.560   5.951  11.828  0.00  0.00    +0.000 A 
ATOM     20  C   UNL     1      45.312   4.604  11.631  0.00  0.00    +0.000 A 
BRANCH  15  22
ATOM     21  N   UNL     1      44.506   2.193  10.001  0.00  0.00    +0.000 N 
ATOM     22  C   UNL     1      43.748   2.792  10.968  0.00  0.00    +0.000 C 
ATOM     23  O   UNL     1      42.912   2.168  11.605  0.00  0.00    +0.000 OA
ATOM     24  H   UNL     1      44.392   1.192   9.894  0.00  0.00    +0.000 HD
ATOM     25  H   UNL     1      45.358   2.601   9.644  0.00  0.00    +0.000 HD
ENDBRANCH  15  22
ENDBRANCH   1  19
TORSDOF 3
ENDMDL
MODEL 5
REMARK VINA RESULT:    -5.837      6.292      8.333
REMARK INTER + INTRA:          -7.109
REMARK INTER:                  -6.867
REMARK INTRA:                  -0.242
REMARK UNBOUND:                -0.249
REMARK  Name = 
REMARK  3 active torsions:
REMARK  status: ('A' for Active; 'I' for Inactive)
REMARK    1  A    between atoms: C_2  and  C_4
REMARK    2  A    between atoms: C_8  and  C_9
REMARK    3  A    between atoms: C_10  and  C_11
REMARK                            x       y       z     vdW  Elec       q    Type
REMARK                         _______ _______ _______ _____ _____    ______ ____
ROOT
ATOM      1  C   UNL     1      45.063   5.256  10.203  0.00  0.00    +0.000 C 
ATOM      2  C   UNL     1      44.941   6.348  10.713  0.00  0.00    +0.000 C 
ENDROOT
BRANCH   2   3
ATOM      3  C   UNL     1      44.849   7.671  11.281  0.00  0.00    +0.000 A 
ATOM      4  C   UNL     1      45.672   8.053  12.330  0.00  0.00    +0.000 A 
ATOM      5  C   UNL     1      45.522   9.334  12.837  0.00  0.00    +0.000 A 
ATOM      6  N   UNL     1      44.614  10.233  12.388  0.00  0.00    +0.000 NA
ATOM      7  C   UNL     1      43.775   9.854  11.401  0.00  0.00    +0.000 A 
ATOM      8  N   UNL     1      42.780  10.721  10.984  0.00  0.00    +0.000 N 
ATOM      9  C   UNL     1      42.965  12.167  11.056  0.00  0.00    +0.000 C 
ATOM     10  C   UNL     1      41.941  12.830  11.976  0.00  0.00    +0.000 C 
ATOM     11  C   UNL     1      40.516  12.379  11.665  0.00  0.00    +0.000 C 
ATOM     12  C   UNL     1      40.421  10.857  11.673  0.00  0.00    +0.000 C 
ATOM     13  C   UNL     1      41.436  10.219  10.723  0.00  0.00    +0.000 C 
ATOM     14  C   UNL     1      43.903   8.586  10.813  0.00  0.00    +0.000 A 
ENDBRANCH   2   3
BRANCH   1  19
ATOM     15  C   UNL     1      46.189   2.646   7.806  0.00  0.00    +0.000 A 
ATOM     16  C   UNL     1      45.440   1.566   8.267  0.00  0.00    +0.000 A 
ATOM     17  C   UNL     1      44.648   1.773   9.380  0.00  0.00    +0.000 A 
ATOM     18  N   UNL     1      44.535   2.962  10.020  0.00  0.00    +0.000 NA
ATOM     19  C   UNL     1      45.280   3.993   9.553  0.00  0.00    +0.000 A 
ATOM     20  C   UNL     1      46.138   3.874   8.474  0.00  0.00    +0.000 A 
BRANCH  15  22
ATOM     21  N   UNL     1      48.248   1.873   6.772  0.00  0.00    +0.000 N 
ATOM     22  C   UNL     1      47.052   2.513   6.608  0.00  0.00    +0.000 C 
ATOM     23  O   UNL     1      46.689   2.921   5.514  0.00  0.00    +0.000 OA
ATOM     24  H   UNL     1      48.779   1.687   5.930  0.00  0.00    +0.000 HD
ATOM     25  H   UNL     1      48.461   1.313   7.585  0.00  0.00    +0.000 HD
ENDBRANCH  15  22
ENDBRANCH   1  19
TORSDOF 3
ENDMDL
MODEL 6
REMARK VINA RESULT:    -5.768      2.486      3.552
REMARK INTER + INTRA:          -7.029
REMARK INTER:                  -6.781
REMARK INTRA:                  -0.248
REMARK UNBOUND:                -0.249
REMARK  Name = 
REMARK  3 active torsions:
REMARK  status: ('A' for Active; 'I' for Inactive)
REMARK    1  A    between atoms: C_2  and  C_4
REMARK    2  A    between atoms: C_8  and  C_9
REMARK    3  A    between atoms: C_10  and  C_11
REMARK                            x       y       z     vdW  Elec       q    Type
REMARK                         _______ _______ _______ _____ _____    ______ ____
ROOT
ATOM      1  C   UNL     1      47.025   4.693  15.029  0.00  0.00    +0.000 C 
ATOM      2  C   UNL     1      47.673   4.695  16.053  0.00  0.00    +0.000 C 
ENDROOT
BRANCH   2   3
ATOM      3  C   UNL     1      48.468   4.633  17.255  0.00  0.00    +0.000 A 
ATOM      4  C   UNL     1      47.875   4.727  18.505  0.00  0.00    +0.000 A 
ATOM      5  C   UNL     1      48.699   4.673  19.618  0.00  0.00    +0.000 A 
ATOM      6  N   UNL     1      50.047   4.553  19.566  0.00  0.00    +0.000 NA
ATOM      7  C   UNL     1      50.638   4.510  18.354  0.00  0.00    +0.000 A 
ATOM      8  N   UNL     1      52.019   4.476  18.272  0.00  0.00    +0.000 N 
ATOM      9  C   UNL     1      52.819   3.853  19.321  0.00  0.00    +0.000 C 
ATOM     10  C   UNL     1      53.760   4.853  19.994  0.00  0.00    +0.000 C 
ATOM     11  C   UNL     1      54.556   5.662  18.973  0.00  0.00    +0.000 C 
ATOM     12  C   UNL     1      53.623   6.316  17.960  0.00  0.00    +0.000 C 
ATOM     13  C   UNL     1      52.712   5.292  17.282  0.00  0.00    +0.000 C 
ATOM     14  C   UNL     1      49.858   4.515  17.188  0.00  0.00    +0.000 A 
ENDBRANCH   2   3
BRANCH   1  19
ATOM     15  C   UNL     1      44.881   5.536  12.110  0.00  0.00    +0.000 A 
ATOM     16  C   UNL     1      44.718   4.265  11.565  0.00  0.00    +0.000 A 
ATOM     17  C   UNL     1      45.379   3.220  12.182  0.00  0.00    +0.000 A 
ATOM     18  N   UNL     1      46.140   3.357  13.295  0.00  0.00    +0.000 NA
ATOM     19  C   UNL     1      46.285   4.606  13.800  0.00  0.00    +0.000 A 
ATOM     20  C   UNL     1      45.702   5.722  13.227  0.00  0.00    +0.000 A 
BRANCH  15  22
ATOM     21  N   UNL     1      42.893   6.535  11.132  0.00  0.00    +0.000 N 
ATOM     22  C   UNL     1      44.193   6.708  11.519  0.00  0.00    +0.000 C 
ATOM     23  O   UNL     1      44.751   7.791  11.422  0.00  0.00    +0.000 OA
ATOM     24  H   UNL     1      42.397   7.367  10.835  0.00  0.00    +0.000 HD
ATOM     25  H   UNL     1      42.336   5.745  11.426  0.00  0.00    +0.000 HD
ENDBRANCH  15  22
ENDBRANCH   1  19
TORSDOF 3
ENDMDL
MODEL 7
REMARK VINA RESULT:    -5.619      3.823      4.287
REMARK INTER + INTRA:          -6.853
REMARK INTER:                  -6.607
REMARK INTRA:                  -0.246
REMARK UNBOUND:                -0.249
REMARK  Name = 
REMARK  3 active torsions:
REMARK  status: ('A' for Active; 'I' for Inactive)
REMARK    1  A    between atoms: C_2  and  C_4
REMARK    2  A    between atoms: C_8  and  C_9
REMARK    3  A    between atoms: C_10  and  C_11
REMARK                            x       y       z     vdW  Elec       q    Type
REMARK                         _______ _______ _______ _____ _____    ______ ____
ROOT
ATOM      1  C   UNL     1      46.456   6.302  13.045  0.00  0.00    +0.000 C 
ATOM      2  C   UNL     1      47.371   6.971  13.474  0.00  0.00    +0.000 C 
ENDROOT
BRANCH   2   3
ATOM      3  C   UNL     1      48.412   7.811  14.013  0.00  0.00    +0.000 A 
ATOM      4  C   UNL     1      49.733   7.643  13.626  0.00  0.00    +0.000 A 
ATOM      5  C   UNL     1      50.684   8.476  14.193  0.00  0.00    +0.000 A 
ATOM      6  N   UNL     1      50.414   9.432  15.113  0.00  0.00    +0.000 NA
ATOM      7  C   UNL     1      49.138   9.571  15.533  0.00  0.00    +0.000 A 
ATOM      8  N   UNL     1      48.848  10.479  16.535  0.00  0.00    +0.000 N 
ATOM      9  C   UNL     1      49.641  11.692  16.703  0.00  0.00    +0.000 C 
ATOM     10  C   UNL     1      50.332  11.741  18.066  0.00  0.00    +0.000 C 
ATOM     11  C   UNL     1      49.363  11.443  19.208  0.00  0.00    +0.000 C 
ATOM     12  C   UNL     1      48.630  10.129  18.962  0.00  0.00    +0.000 C 
ATOM     13  C   UNL     1      47.925  10.116  17.605  0.00  0.00    +0.000 C 
ATOM     14  C   UNL     1      48.120   8.789  14.966  0.00  0.00    +0.000 A 
ENDBRANCH   2   3
BRANCH   1  19
ATOM     15  C   UNL     1      44.186   4.245  10.937  0.00  0.00    +0.000 A 
ATOM     16  C   UNL     1      43.001   4.398  11.652  0.00  0.00    +0.000 A 
ATOM     17  C   UNL     1      43.054   5.136  12.818  0.00  0.00    +0.000 A 
ATOM     18  N   UNL     1      44.175   5.741  13.281  0.00  0.00    +0.000 NA
ATOM     19  C   UNL     1      45.314   5.571  12.569  0.00  0.00    +0.000 A 
ATOM     20  C   UNL     1      45.373   4.812  11.413  0.00  0.00    +0.000 A 
BRANCH  15  22
ATOM     21  N   UNL     1      44.185   4.205   8.507  0.00  0.00    +0.000 N 
ATOM     22  C   UNL     1      44.211   3.482   9.667  0.00  0.00    +0.000 C 
ATOM     23  O   UNL     1      44.295   2.262   9.658  0.00  0.00    +0.000 OA
ATOM     24  H   UNL     1      44.317   3.685   7.648  0.00  0.00    +0.000 HD
ATOM     25  H   UNL     1      44.370   5.198   8.478  0.00  0.00    +0.000 HD
ENDBRANCH  15  22
ENDBRANCH   1  19
TORSDOF 3
ENDMDL
MODEL 8
REMARK VINA RESULT:    -5.522      2.440      2.983
REMARK INTER + INTRA:          -6.739
REMARK INTER:                  -6.479
REMARK INTRA:                  -0.260
REMARK UNBOUND:                -0.249
REMARK  Name = 
REMARK  3 active torsions:
REMARK  status: ('A' for Active; 'I' for Inactive)
REMARK    1  A    between atoms: C_2  and  C_4
REMARK    2  A    between atoms: C_8  and  C_9
REMARK    3  A    between atoms: C_10  and  C_11
REMARK                            x       y       z     vdW  Elec       q    Type
REMARK                         _______ _______ _______ _____ _____    ______ ____
ROOT
ATOM      1  C   UNL     1      47.584   6.333  13.976  0.00  0.00    +0.000 C 
ATOM      2  C   UNL     1      48.342   6.532  14.900  0.00  0.00    +0.000 C 
ENDROOT
BRANCH   2   3
ATOM      3  C   UNL     1      49.238   6.702  16.018  0.00  0.00    +0.000 A 
ATOM      4  C   UNL     1      50.599   6.872  15.818  0.00  0.00    +0.000 A 
ATOM      5  C   UNL     1      51.404   7.016  16.937  0.00  0.00    +0.000 A 
ATOM      6  N   UNL     1      50.954   6.983  18.213  0.00  0.00    +0.000 NA
ATOM      7  C   UNL     1      49.637   6.768  18.420  0.00  0.00    +0.000 A 
ATOM      8  N   UNL     1      49.164   6.642  19.714  0.00  0.00    +0.000 N 
ATOM      9  C   UNL     1      49.812   7.337  20.821  0.00  0.00    +0.000 C 
ATOM     10  C   UNL     1      50.363   6.364  21.864  0.00  0.00    +0.000 C 
ATOM     11  C   UNL     1      49.327   5.322  22.276  0.00  0.00    +0.000 C 
ATOM     12  C   UNL     1      48.757   4.617  21.051  0.00  0.00    +0.000 C 
ATOM     13  C   UNL     1      48.187   5.609  20.037  0.00  0.00    +0.000 C 
ATOM     14  C   UNL     1      48.760   6.659  17.330  0.00  0.00    +0.000 A 
ENDBRANCH   2   3
BRANCH   1  19
ATOM     15  C   UNL     1      44.833   4.802  11.997  0.00  0.00    +0.000 A 
ATOM     16  C   UNL     1      45.148   5.301  10.735  0.00  0.00    +0.000 A 
ATOM     17  C   UNL     1      46.228   6.156  10.642  0.00  0.00    +0.000 A 
ATOM     18  N   UNL     1      47.010   6.506  11.692  0.00  0.00    +0.000 NA
ATOM     19  C   UNL     1      46.678   6.010  12.908  0.00  0.00    +0.000 A 
ATOM     20  C   UNL     1      45.587   5.183  13.112  0.00  0.00    +0.000 A 
BRANCH  15  22
ATOM     21  N   UNL     1      42.497   4.232  11.644  0.00  0.00    +0.000 N 
ATOM     22  C   UNL     1      43.700   3.865  12.181  0.00  0.00    +0.000 C 
ATOM     23  O   UNL     1      43.846   2.793  12.749  0.00  0.00    +0.000 OA
ATOM     24  H   UNL     1      41.759   3.539  11.675  0.00  0.00    +0.000 HD
ATOM     25  H   UNL     1      42.407   4.974  10.964  0.00  0.00    +0.000 HD
ENDBRANCH  15  22
ENDBRANCH   1  19
TORSDOF 3
ENDMDL
MODEL 9
REMARK VINA RESULT:    -5.506      5.050      5.996
REMARK INTER + INTRA:          -6.720
REMARK INTER:                  -6.473
REMARK INTRA:                  -0.247
REMARK UNBOUND:                -0.249
REMARK  Name = 
REMARK  3 active torsions:
REMARK  status: ('A' for Active; 'I' for Inactive)
REMARK    1  A    between atoms: C_2  and  C_4
REMARK    2  A    between atoms: C_8  and  C_9
REMARK    3  A    between atoms: C_10  and  C_11
REMARK                            x       y       z     vdW  Elec       q    Type
REMARK                         _______ _______ _______ _____ _____    ______ ____
ROOT
ATOM      1  C   UNL     1      46.536   6.187  12.964  0.00  0.00    +0.000 C 
ATOM      2  C   UNL     1      47.438   6.893  13.357  0.00  0.00    +0.000 C 
ENDROOT
BRANCH   2   3
ATOM      3  C   UNL     1      48.465   7.780  13.846  0.00  0.00    +0.000 A 
ATOM      4  C   UNL     1      48.172   8.757  14.785  0.00  0.00    +0.000 A 
ATOM      5  C   UNL     1      49.203   9.584  15.201  0.00  0.00    +0.000 A 
ATOM      6  N   UNL     1      50.474   9.514  14.740  0.00  0.00    +0.000 NA
ATOM      7  C   UNL     1      50.759   8.599  13.790  0.00  0.00    +0.000 A 
ATOM      8  N   UNL     1      52.027   8.564  13.238  0.00  0.00    +0.000 N 
ATOM      9  C   UNL     1      53.195   8.966  14.014  0.00  0.00    +0.000 C 
ATOM     10  C   UNL     1      53.912  10.164  13.391  0.00  0.00    +0.000 C 
ATOM     11  C   UNL     1      54.168   9.964  11.899  0.00  0.00    +0.000 C 
ATOM     12  C   UNL     1      52.875   9.605  11.175  0.00  0.00    +0.000 C 
ATOM     13  C   UNL     1      52.193   8.387  11.800  0.00  0.00    +0.000 C 
ATOM     14  C   UNL     1      49.771   7.701  13.356  0.00  0.00    +0.000 A 
ENDBRANCH   2   3
BRANCH   1  19
ATOM     15  C   UNL     1      44.250   4.107  10.895  0.00  0.00    +0.000 A 
ATOM     16  C   UNL     1      43.107   4.157  11.688  0.00  0.00    +0.000 A 
ATOM     17  C   UNL     1      43.195   4.840  12.885  0.00  0.00    +0.000 A 
ATOM     18  N   UNL     1      44.308   5.486  13.310  0.00  0.00    +0.000 NA
ATOM     19  C   UNL     1      45.406   5.415  12.521  0.00  0.00    +0.000 A 
ATOM     20  C   UNL     1      45.433   4.717  11.326  0.00  0.00    +0.000 A 
BRANCH  15  22
ATOM     21  N   UNL     1      44.222   4.191   8.466  0.00  0.00    +0.000 N 
ATOM     22  C   UNL     1      44.236   3.409   9.587  0.00  0.00    +0.000 C 
ATOM     23  O   UNL     1      44.278   2.189   9.517  0.00  0.00    +0.000 OA
ATOM     24  H   UNL     1      44.327   3.710   7.580  0.00  0.00    +0.000 HD
ATOM     25  H   UNL     1      44.441   5.177   8.485  0.00  0.00    +0.000 HD
ENDBRANCH  15  22
ENDBRANCH   1  19
TORSDOF 3
ENDMDL
