MODEL 1
REMARK VINA RESULT:    -8.276      0.000      0.000
REMARK INTER + INTRA:         -13.108
REMARK INTER:                 -11.904
REMARK INTRA:                  -1.204
REMARK UNBOUND:                -1.204
REMARK  Name = 
REMARK  9 active torsions:
REMARK  status: ('A' for Active; 'I' for Inactive)
REMARK    1  A    between atoms: C_1  and  N_2
REMARK    2  A    between atoms: C_4  and  C_5
REMARK    3  A    between atoms: N_7  and  C_8
REMARK    4  A    between atoms: C_8  and  C_9
REMARK    5  A    between atoms: C_12  and  N_13
REMARK    6  A    between atoms: N_13  and  C_14
REMARK    7  A    between atoms: C_14  and  C_15
REMARK    8  A    between atoms: C_15  and  C_16
REMARK    9  A    between atoms: C_25  and  O_26
REMARK                            x       y       z     vdW  Elec       q    Type
REMARK                         _______ _______ _______ _____ _____    ______ ____
ROOT
ATOM      1  C   UNL     1      47.313   8.335  13.571  0.00  0.00    +0.000 C 
ENDROOT
BRANCH   1   2
ATOM      2  C   UNL     1      46.448   7.528  12.650  0.00  0.00    +0.000 A 
ATOM      3  C   UNL     1      47.002   6.900  11.530  0.00  0.00    +0.000 A 
ATOM      4  C   UNL     1      46.213   6.087  10.714  0.00  0.00    +0.000 A 
ATOM      5  C   UNL     1      44.864   5.869  11.009  0.00  0.00    +0.000 A 
ATOM      6  C   UNL     1      44.293   6.595  12.061  0.00  0.00    +0.000 A 
ATOM      7  C   UNL     1      45.075   7.404  12.882  0.00  0.00    +0.000 A 
BRANCH   5   8
ATOM      8  N   UNL     1      44.020   5.041  10.265  0.00  0.00    +0.000 N 
ATOM      9  H   UNL     1      43.522   5.582   9.560  0.00  0.00    +0.000 HD
BRANCH   8  10
ATOM     10  C   UNL     1      44.558   3.794   9.734  0.00  0.00    +0.000 C 
BRANCH  10  11
ATOM     11  C   UNL     1      44.849   3.937   8.237  0.00  0.00    +0.000 C 
BRANCH  11  12
ATOM     12  C   UNL     1      46.060   3.090   7.802  0.00  0.00    +0.000 C 
ATOM     13  C   UNL     1      46.383   3.296   6.312  0.00  0.00    +0.000 C 
ATOM     14  C   UNL     1      47.558   2.443   5.860  0.00  0.00    +0.000 C 
ATOM     15  C   UNL     1      47.322   0.969   6.159  0.00  0.00    +0.000 C 
ATOM     16  C   UNL     1      47.013   0.746   7.636  0.00  0.00    +0.000 C 
ATOM     17  C   UNL     1      45.832   1.599   8.103  0.00  0.00    +0.000 C 
ENDBRANCH  11  12
ENDBRANCH  10  11
ENDBRANCH   8  10
ENDBRANCH   5   8
ENDBRANCH   1   2
BRANCH   1  20
ATOM     18  C   UNL     1      48.855   6.909  14.809  0.00  0.00    +0.000 C 
ATOM     19  O   UNL     1      49.664   6.902  13.884  0.00  0.00    +0.000 OA
ATOM     20  N   UNL     1      47.666   7.589  14.751  0.00  0.00    +0.000 N 
ATOM     21  H   UNL     1      47.017   7.563  15.521  0.00  0.00    +0.000 HD
BRANCH  18  25
ATOM     22  C   UNL     1      50.868   5.401  19.135  0.00  0.00    +0.000 C 
ATOM     23  N   UNL     1      50.007   5.497  17.979  0.00  0.00    +0.000 N 
ATOM     24  C   UNL     1      50.134   6.413  16.965  0.00  0.00    +0.000 A 
ATOM     25  C   UNL     1      49.119   6.185  16.045  0.00  0.00    +0.000 A 
ATOM     26  C   UNL     1      48.355   5.076  16.542  0.00  0.00    +0.000 A 
ATOM     27  C   UNL     1      47.236   4.337  16.144  0.00  0.00    +0.000 A 
ATOM     28  N   UNL     1      46.786   3.319  16.898  0.00  0.00    +0.000 NA
ATOM     29  C   UNL     1      47.450   3.049  18.034  0.00  0.00    +0.000 A 
ATOM     30  N   UNL     1      48.531   3.673  18.534  0.00  0.00    +0.000 NA
ATOM     31  C   UNL     1      48.936   4.679  17.739  0.00  0.00    +0.000 A 
BRANCH  27  32
ATOM     32  O   UNL     1      46.524   4.571  14.993  0.00  0.00    +0.000 OA
ATOM     33  H   UNL     1      46.454   5.540  14.875  0.00  0.00    +0.000 HD
ENDBRANCH  27  32
ENDBRANCH  18  25
ENDBRANCH   1  20
TORSDOF 8
ENDMDL
MODEL 2
REMARK VINA RESULT:    -7.821      2.007      3.485
REMARK INTER + INTRA:         -12.454
REMARK INTER:                 -11.184
REMARK INTRA:                  -1.270
REMARK UNBOUND:                -1.204
REMARK  Name = 
REMARK  9 active torsions:
REMARK  status: ('A' for Active; 'I' for Inactive)
REMARK    1  A    between atoms: C_1  and  N_2
REMARK    2  A    between atoms: C_4  and  C_5
REMARK    3  A    between atoms: N_7  and  C_8
REMARK    4  A    between atoms: C_8  and  C_9
REMARK    5  A    between atoms: C_12  and  N_13
REMARK    6  A    between atoms: N_13  and  C_14
REMARK    7  A    between atoms: C_14  and  C_15
REMARK    8  A    between atoms: C_15  and  C_16
REMARK    9  A    between atoms: C_25  and  O_26
REMARK                            x       y       z     vdW  Elec       q    Type
REMARK                         _______ _______ _______ _____ _____    ______ ____
ROOT
ATOM      1  C   UNL     1      46.891   4.191  14.469  0.00  0.00    +0.000 C 
ENDROOT
BRANCH   1   2
ATOM      2  C   UNL     1      46.138   4.389  13.188  0.00  0.00    +0.000 A 
ATOM      3  C   UNL     1      46.232   5.601  12.494  0.00  0.00    +0.000 A 
ATOM      4  C   UNL     1      45.592   5.761  11.264  0.00  0.00    +0.000 A 
ATOM      5  C   UNL     1      44.864   4.713  10.691  0.00  0.00    +0.000 A 
ATOM      6  C   UNL     1      44.679   3.549  11.447  0.00  0.00    +0.000 A 
ATOM      7  C   UNL     1      45.318   3.381  12.674  0.00  0.00    +0.000 A 
BRANCH   5   8
ATOM      8  N   UNL     1      44.229   4.783   9.449  0.00  0.00    +0.000 N 
ATOM      9  H   UNL     1      44.130   5.753   9.155  0.00  0.00    +0.000 HD
BRANCH   8  10
ATOM     10  C   UNL     1      44.702   3.918   8.376  0.00  0.00    +0.000 C 
BRANCH  10  11
ATOM     11  C   UNL     1      46.089   4.365   7.906  0.00  0.00    +0.000 C 
BRANCH  11  12
ATOM     12  C   UNL     1      46.905   3.196   7.321  0.00  0.00    +0.000 C 
ATOM     13  C   UNL     1      46.834   3.176   5.785  0.00  0.00    +0.000 C 
ATOM     14  C   UNL     1      47.610   2.010   5.193  0.00  0.00    +0.000 C 
ATOM     15  C   UNL     1      47.140   0.681   5.769  0.00  0.00    +0.000 C 
ATOM     16  C   UNL     1      47.215   0.680   7.293  0.00  0.00    +0.000 C 
ATOM     17  C   UNL     1      46.439   1.850   7.899  0.00  0.00    +0.000 C 
ENDBRANCH  11  12
ENDBRANCH  10  11
ENDBRANCH   8  10
ENDBRANCH   5   8
ENDBRANCH   1   2
BRANCH   1  20
ATOM     18  C   UNL     1      48.370   5.422  15.965  0.00  0.00    +0.000 C 
ATOM     19  O   UNL     1      48.761   4.390  16.503  0.00  0.00    +0.000 OA
ATOM     20  N   UNL     1      47.449   5.429  14.949  0.00  0.00    +0.000 N 
ATOM     21  H   UNL     1      47.138   6.294  14.537  0.00  0.00    +0.000 HD
BRANCH  18  25
ATOM     22  C   UNL     1      49.561   9.447  18.689  0.00  0.00    +0.000 C 
ATOM     23  N   UNL     1      49.414   8.532  17.582  0.00  0.00    +0.000 N 
ATOM     24  C   UNL     1      48.818   7.297  17.642  0.00  0.00    +0.000 A 
ATOM     25  C   UNL     1      48.875   6.724  16.379  0.00  0.00    +0.000 A 
ATOM     26  C   UNL     1      49.538   7.672  15.528  0.00  0.00    +0.000 A 
ATOM     27  C   UNL     1      49.921   7.756  14.185  0.00  0.00    +0.000 A 
ATOM     28  N   UNL     1      50.552   8.850  13.723  0.00  0.00    +0.000 NA
ATOM     29  C   UNL     1      50.793   9.842  14.595  0.00  0.00    +0.000 A 
ATOM     30  N   UNL     1      50.482   9.893  15.903  0.00  0.00    +0.000 NA
ATOM     31  C   UNL     1      49.854   8.775  16.309  0.00  0.00    +0.000 A 
BRANCH  27  32
ATOM     32  O   UNL     1      49.698   6.772  13.253  0.00  0.00    +0.000 OA
ATOM     33  H   UNL     1      50.494   6.708  12.688  0.00  0.00    +0.000 HD
ENDBRANCH  27  32
ENDBRANCH  18  25
ENDBRANCH   1  20
TORSDOF 8
ENDMDL
MODEL 3
REMARK VINA RESULT:    -7.799      2.544      3.294
REMARK INTER + INTRA:         -12.422
REMARK INTER:                 -11.585
REMARK INTRA:                  -0.837
REMARK UNBOUND:                -1.204
REMARK  Name = 
REMARK  9 active torsions:
REMARK  status: ('A' for Active; 'I' for Inactive)
REMARK    1  A    between atoms: C_1  and  N_2
REMARK    2  A    between atoms: C_4  and  C_5
REMARK    3  A    between atoms: N_7  and  C_8
REMARK    4  A    between atoms: C_8  and  C_9
REMARK    5  A    between atoms: C_12  and  N_13
REMARK    6  A    between atoms: N_13  and  C_14
REMARK    7  A    between atoms: C_14  and  C_15
REMARK    8  A    between atoms: C_15  and  C_16
REMARK    9  A    between atoms: C_25  and  O_26
REMARK                            x       y       z     vdW  Elec       q    Type
REMARK                         _______ _______ _______ _____ _____    ______ ____
ROOT
ATOM      1  C   UNL     1      47.382   3.949  15.320  0.00  0.00    +0.000 C 
ENDROOT
BRANCH   1   2
ATOM      2  C   UNL     1      46.801   4.539  14.071  0.00  0.00    +0.000 A 
ATOM      3  C   UNL     1      47.380   5.673  13.491  0.00  0.00    +0.000 A 
ATOM      4  C   UNL     1      46.886   6.180  12.287  0.00  0.00    +0.000 A 
ATOM      5  C   UNL     1      45.821   5.557  11.629  0.00  0.00    +0.000 A 
ATOM      6  C   UNL     1      45.176   4.497  12.277  0.00  0.00    +0.000 A 
ATOM      7  C   UNL     1      45.665   3.984  13.476  0.00  0.00    +0.000 A 
BRANCH   5   8
ATOM      8  N   UNL     1      45.297   5.980  10.406  0.00  0.00    +0.000 N 
ATOM      9  H   UNL     1      45.351   6.994  10.328  0.00  0.00    +0.000 HD
BRANCH   8  10
ATOM     10  C   UNL     1      45.730   5.303   9.190  0.00  0.00    +0.000 C 
BRANCH  10  11
ATOM     11  C   UNL     1      44.757   4.173   8.838  0.00  0.00    +0.000 C 
BRANCH  11  12
ATOM     12  C   UNL     1      45.394   3.137   7.891  0.00  0.00    +0.000 C 
ATOM     13  C   UNL     1      45.845   1.881   8.655  0.00  0.00    +0.000 C 
ATOM     14  C   UNL     1      46.503   0.861   7.739  0.00  0.00    +0.000 C 
ATOM     15  C   UNL     1      47.670   1.473   6.976  0.00  0.00    +0.000 C 
ATOM     16  C   UNL     1      47.238   2.714   6.202  0.00  0.00    +0.000 C 
ATOM     17  C   UNL     1      46.573   3.747   7.115  0.00  0.00    +0.000 C 
ENDBRANCH  11  12
ENDBRANCH  10  11
ENDBRANCH   8  10
ENDBRANCH   5   8
ENDBRANCH   1   2
BRANCH   1  20
ATOM     18  C   UNL     1      48.503   5.132  17.133  0.00  0.00    +0.000 C 
ATOM     19  O   UNL     1      49.571   4.572  16.901  0.00  0.00    +0.000 OA
ATOM     20  N   UNL     1      47.364   4.893  16.408  0.00  0.00    +0.000 N 
ATOM     21  H   UNL     1      46.500   5.358  16.633  0.00  0.00    +0.000 HD
BRANCH  18  25
ATOM     22  C   UNL     1      48.064   9.408  19.695  0.00  0.00    +0.000 C 
ATOM     23  N   UNL     1      48.187   8.006  19.373  0.00  0.00    +0.000 N 
ATOM     24  C   UNL     1      48.283   7.484  18.107  0.00  0.00    +0.000 A 
ATOM     25  C   UNL     1      48.382   6.104  18.212  0.00  0.00    +0.000 A 
ATOM     26  C   UNL     1      48.345   5.795  19.613  0.00  0.00    +0.000 A 
ATOM     27  C   UNL     1      48.397   4.650  20.416  0.00  0.00    +0.000 A 
ATOM     28  N   UNL     1      48.332   4.752  21.755  0.00  0.00    +0.000 NA
ATOM     29  C   UNL     1      48.216   5.983  22.278  0.00  0.00    +0.000 A 
ATOM     30  N   UNL     1      48.154   7.160  21.630  0.00  0.00    +0.000 NA
ATOM     31  C   UNL     1      48.224   6.997  20.297  0.00  0.00    +0.000 A 
BRANCH  27  32
ATOM     32  O   UNL     1      48.516   3.370  19.932  0.00  0.00    +0.000 OA
ATOM     33  H   UNL     1      48.980   2.836  20.607  0.00  0.00    +0.000 HD
ENDBRANCH  27  32
ENDBRANCH  18  25
ENDBRANCH   1  20
TORSDOF 8
ENDMDL
MODEL 4
REMARK VINA RESULT:    -7.534      1.901      2.133
REMARK INTER + INTRA:         -12.041
REMARK INTER:                 -10.860
REMARK INTRA:                  -1.181
REMARK UNBOUND:                -1.204
REMARK  Name = 
REMARK  9 active torsions:
REMARK  status: ('A' for Active; 'I' for Inactive)
REMARK    1  A    between atoms: C_1  and  N_2
REMARK    2  A    between atoms: C_4  and  C_5
REMARK    3  A    between atoms: N_7  and  C_8
REMARK    4  A    between atoms: C_8  and  C_9
REMARK    5  A    between atoms: C_12  and  N_13
REMARK    6  A    between atoms: N_13  and  C_14
REMARK    7  A    between atoms: C_14  and  C_15
REMARK    8  A    between atoms: C_15  and  C_16
REMARK    9  A    between atoms: C_25  and  O_26
REMARK                            x       y       z     vdW  Elec       q    Type
REMARK                         _______ _______ _______ _____ _____    ______ ____
ROOT
ATOM      1  C   UNL     1      48.328   6.605  13.557  0.00  0.00    +0.000 C 
ENDROOT
BRANCH   1   2
ATOM      2  C   UNL     1      47.112   6.086  12.849  0.00  0.00    +0.000 A 
ATOM      3  C   UNL     1      46.712   6.645  11.631  0.00  0.00    +0.000 A 
ATOM      4  C   UNL     1      45.625   6.113  10.934  0.00  0.00    +0.000 A 
ATOM      5  C   UNL     1      44.930   5.005  11.427  0.00  0.00    +0.000 A 
ATOM      6  C   UNL     1      45.264   4.530  12.700  0.00  0.00    +0.000 A 
ATOM      7  C   UNL     1      46.349   5.053  13.399  0.00  0.00    +0.000 A 
BRANCH   5   8
ATOM      8  N   UNL     1      43.858   4.394  10.771  0.00  0.00    +0.000 N 
ATOM      9  H   UNL     1      43.025   4.977  10.831  0.00  0.00    +0.000 HD
BRANCH   8  10
ATOM     10  C   UNL     1      44.073   3.863   9.430  0.00  0.00    +0.000 C 
BRANCH  10  11
ATOM     11  C   UNL     1      44.886   2.567   9.497  0.00  0.00    +0.000 C 
BRANCH  11  12
ATOM     12  C   UNL     1      46.039   2.555   8.475  0.00  0.00    +0.000 C 
ATOM     13  C   UNL     1      45.732   3.463   7.272  0.00  0.00    +0.000 C 
ATOM     14  C   UNL     1      46.848   3.439   6.240  0.00  0.00    +0.000 C 
ATOM     15  C   UNL     1      47.146   2.019   5.778  0.00  0.00    +0.000 C 
ATOM     16  C   UNL     1      47.465   1.107   6.959  0.00  0.00    +0.000 C 
ATOM     17  C   UNL     1      46.349   1.124   8.004  0.00  0.00    +0.000 C 
ENDBRANCH  11  12
ENDBRANCH  10  11
ENDBRANCH   8  10
ENDBRANCH   5   8
ENDBRANCH   1   2
BRANCH   1  20
ATOM     18  C   UNL     1      48.993   7.356  15.779  0.00  0.00    +0.000 C 
ATOM     19  O   UNL     1      49.953   7.977  15.332  0.00  0.00    +0.000 OA
ATOM     20  N   UNL     1      48.130   6.647  14.983  0.00  0.00    +0.000 N 
ATOM     21  H   UNL     1      47.359   6.135  15.381  0.00  0.00    +0.000 HD
BRANCH  18  25
ATOM     22  C   UNL     1      47.780   8.729  20.435  0.00  0.00    +0.000 C 
ATOM     23  N   UNL     1      48.168   7.933  19.295  0.00  0.00    +0.000 N 
ATOM     24  C   UNL     1      48.337   8.402  18.016  0.00  0.00    +0.000 A 
ATOM     25  C   UNL     1      48.707   7.336  17.207  0.00  0.00    +0.000 A 
ATOM     26  C   UNL     1      48.762   6.178  18.054  0.00  0.00    +0.000 A 
ATOM     27  C   UNL     1      49.056   4.817  17.917  0.00  0.00    +0.000 A 
ATOM     28  N   UNL     1      49.002   3.997  18.982  0.00  0.00    +0.000 NA
ATOM     29  C   UNL     1      48.658   4.535  20.162  0.00  0.00    +0.000 A 
ATOM     30  N   UNL     1      48.352   5.817  20.435  0.00  0.00    +0.000 NA
ATOM     31  C   UNL     1      48.423   6.589  19.336  0.00  0.00    +0.000 A 
BRANCH  27  32
ATOM     32  O   UNL     1      49.414   4.218  16.735  0.00  0.00    +0.000 OA
ATOM     33  H   UNL     1      48.671   4.327  16.107  0.00  0.00    +0.000 HD
ENDBRANCH  27  32
ENDBRANCH  18  25
ENDBRANCH   1  20
TORSDOF 8
ENDMDL
MODEL 5
REMARK VINA RESULT:    -7.331      2.382      8.045
REMARK INTER + INTRA:         -11.749
REMARK INTER:                 -10.067
REMARK INTRA:                  -1.682
REMARK UNBOUND:                -1.204
REMARK  Name = 
REMARK  9 active torsions:
REMARK  status: ('A' for Active; 'I' for Inactive)
REMARK    1  A    between atoms: C_1  and  N_2
REMARK    2  A    between atoms: C_4  and  C_5
REMARK    3  A    between atoms: N_7  and  C_8
REMARK    4  A    between atoms: C_8  and  C_9
REMARK    5  A    between atoms: C_12  and  N_13
REMARK    6  A    between atoms: N_13  and  C_14
REMARK    7  A    between atoms: C_14  and  C_15
REMARK    8  A    between atoms: C_15  and  C_16
REMARK    9  A    between atoms: C_25  and  O_26
REMARK                            x       y       z     vdW  Elec       q    Type
REMARK                         _______ _______ _______ _____ _____    ______ ____
ROOT
ATOM      1  C   UNL     1      48.302   8.174  12.108  0.00  0.00    +0.000 C 
ENDROOT
BRANCH   1   2
ATOM      2  C   UNL     1      48.415   8.018  13.595  0.00  0.00    +0.000 A 
ATOM      3  C   UNL     1      48.687   6.766  14.155  0.00  0.00    +0.000 A 
ATOM      4  C   UNL     1      48.868   6.633  15.532  0.00  0.00    +0.000 A 
ATOM      5  C   UNL     1      48.801   7.746  16.376  0.00  0.00    +0.000 A 
ATOM      6  C   UNL     1      48.412   8.971  15.820  0.00  0.00    +0.000 A 
ATOM      7  C   UNL     1      48.234   9.111  14.446  0.00  0.00    +0.000 A 
BRANCH   5   8
ATOM      8  N   UNL     1      49.007   7.700  17.756  0.00  0.00    +0.000 N 
ATOM      9  H   UNL     1      49.072   8.643  18.137  0.00  0.00    +0.000 HD
BRANCH   8  10
ATOM     10  C   UNL     1      48.157   6.831  18.560  0.00  0.00    +0.000 C 
BRANCH  10  11
ATOM     11  C   UNL     1      49.010   5.812  19.322  0.00  0.00    +0.000 C 
BRANCH  11  12
ATOM     12  C   UNL     1      48.836   4.385  18.769  0.00  0.00    +0.000 C 
ATOM     13  C   UNL     1      50.051   3.956  17.929  0.00  0.00    +0.000 C 
ATOM     14  C   UNL     1      49.881   2.559  17.352  0.00  0.00    +0.000 C 
ATOM     15  C   UNL     1      48.599   2.448  16.536  0.00  0.00    +0.000 C 
ATOM     16  C   UNL     1      47.382   2.859  17.359  0.00  0.00    +0.000 C 
ATOM     17  C   UNL     1      47.542   4.262  17.946  0.00  0.00    +0.000 C 
ENDBRANCH  11  12
ENDBRANCH  10  11
ENDBRANCH   8  10
ENDBRANCH   5   8
ENDBRANCH   1   2
BRANCH   1  20
ATOM     18  C   UNL     1      46.274   7.025  11.392  0.00  0.00    +0.000 C 
ATOM     19  O   UNL     1      45.560   7.947  11.779  0.00  0.00    +0.000 OA
ATOM     20  N   UNL     1      47.640   7.044  11.509  0.00  0.00    +0.000 N 
ATOM     21  H   UNL     1      48.197   6.265  11.195  0.00  0.00    +0.000 HD
BRANCH  18  25
ATOM     22  C   UNL     1      45.001   3.496   8.082  0.00  0.00    +0.000 C 
ATOM     23  N   UNL     1      45.121   4.252   9.306  0.00  0.00    +0.000 N 
ATOM     24  C   UNL     1      45.821   5.423   9.454  0.00  0.00    +0.000 A 
ATOM     25  C   UNL     1      45.701   5.838  10.773  0.00  0.00    +0.000 A 
ATOM     26  C   UNL     1      44.886   4.861  11.438  0.00  0.00    +0.000 A 
ATOM     27  C   UNL     1      44.375   4.650  12.724  0.00  0.00    +0.000 A 
ATOM     28  N   UNL     1      43.613   3.574  12.988  0.00  0.00    +0.000 NA
ATOM     29  C   UNL     1      43.369   2.725  11.977  0.00  0.00    +0.000 A 
ATOM     30  N   UNL     1      43.792   2.804  10.703  0.00  0.00    +0.000 NA
ATOM     31  C   UNL     1      44.547   3.898  10.497  0.00  0.00    +0.000 A 
BRANCH  27  32
ATOM     32  O   UNL     1      44.595   5.487  13.790  0.00  0.00    +0.000 OA
ATOM     33  H   UNL     1      44.596   6.406  13.455  0.00  0.00    +0.000 HD
ENDBRANCH  27  32
ENDBRANCH  18  25
ENDBRANCH   1  20
TORSDOF 8
ENDMDL
MODEL 6
REMARK VINA RESULT:    -7.164      3.387      9.853
REMARK INTER + INTRA:         -11.509
REMARK INTER:                  -9.663
REMARK INTRA:                  -1.846
REMARK UNBOUND:                -1.204
REMARK  Name = 
REMARK  9 active torsions:
REMARK  status: ('A' for Active; 'I' for Inactive)
REMARK    1  A    between atoms: C_1  and  N_2
REMARK    2  A    between atoms: C_4  and  C_5
REMARK    3  A    between atoms: N_7  and  C_8
REMARK    4  A    between atoms: C_8  and  C_9
REMARK    5  A    between atoms: C_12  and  N_13
REMARK    6  A    between atoms: N_13  and  C_14
REMARK    7  A    between atoms: C_14  and  C_15
REMARK    8  A    between atoms: C_15  and  C_16
REMARK    9  A    between atoms: C_25  and  O_26
REMARK                            x       y       z     vdW  Elec       q    Type
REMARK                         _______ _______ _______ _____ _____    ______ ____
ROOT
ATOM      1  C   UNL     1      47.517   3.424  16.514  0.00  0.00    +0.000 C 
ENDROOT
BRANCH   1   2
ATOM      2  C   UNL     1      48.724   4.043  17.153  0.00  0.00    +0.000 A 
ATOM      3  C   UNL     1      49.788   3.240  17.578  0.00  0.00    +0.000 A 
ATOM      4  C   UNL     1      50.944   3.819  18.104  0.00  0.00    +0.000 A 
ATOM      5  C   UNL     1      51.071   5.208  18.198  0.00  0.00    +0.000 A 
ATOM      6  C   UNL     1      49.958   5.995  17.880  0.00  0.00    +0.000 A 
ATOM      7  C   UNL     1      48.802   5.424  17.351  0.00  0.00    +0.000 A 
BRANCH   5   8
ATOM      8  N   UNL     1      52.208   5.863  18.676  0.00  0.00    +0.000 N 
ATOM      9  H   UNL     1      52.667   6.374  17.924  0.00  0.00    +0.000 HD
BRANCH   8  10
ATOM     10  C   UNL     1      52.097   6.650  19.898  0.00  0.00    +0.000 C 
BRANCH  10  11
ATOM     11  C   UNL     1      51.737   5.745  21.080  0.00  0.00    +0.000 C 
BRANCH  11  12
ATOM     12  C   UNL     1      50.337   6.058  21.642  0.00  0.00    +0.000 C 
ATOM     13  C   UNL     1      49.347   4.919  21.346  0.00  0.00    +0.000 C 
ATOM     14  C   UNL     1      47.952   5.227  21.868  0.00  0.00    +0.000 C 
ATOM     15  C   UNL     1      47.431   6.547  21.316  0.00  0.00    +0.000 C 
ATOM     16  C   UNL     1      48.397   7.691  21.611  0.00  0.00    +0.000 C 
ATOM     17  C   UNL     1      49.805   7.392  21.092  0.00  0.00    +0.000 C 
ENDBRANCH  11  12
ENDBRANCH  10  11
ENDBRANCH   8  10
ENDBRANCH   5   8
ENDBRANCH   1   2
BRANCH   1  20
ATOM     18  C   UNL     1      46.873   4.202  14.295  0.00  0.00    +0.000 C 
ATOM     19  O   UNL     1      47.469   3.278  13.748  0.00  0.00    +0.000 OA
ATOM     20  N   UNL     1      46.837   4.361  15.657  0.00  0.00    +0.000 N 
ATOM     21  H   UNL     1      46.352   5.138  16.075  0.00  0.00    +0.000 HD
BRANCH  18  25
ATOM     22  C   UNL     1      45.422   8.521  12.226  0.00  0.00    +0.000 C 
ATOM     23  N   UNL     1      45.492   7.123  12.582  0.00  0.00    +0.000 N 
ATOM     24  C   UNL     1      46.414   6.562  13.430  0.00  0.00    +0.000 A 
ATOM     25  C   UNL     1      46.155   5.201  13.516  0.00  0.00    +0.000 A 
ATOM     26  C   UNL     1      45.019   4.946  12.676  0.00  0.00    +0.000 A 
ATOM     27  C   UNL     1      44.243   3.844  12.301  0.00  0.00    +0.000 A 
ATOM     28  N   UNL     1      43.208   3.992  11.455  0.00  0.00    +0.000 NA
ATOM     29  C   UNL     1      42.958   5.228  10.994  0.00  0.00    +0.000 A 
ATOM     30  N   UNL     1      43.617   6.368  11.269  0.00  0.00    +0.000 NA
ATOM     31  C   UNL     1      44.639   6.159  12.118  0.00  0.00    +0.000 A 
BRANCH  27  32
ATOM     32  O   UNL     1      44.457   2.561  12.745  0.00  0.00    +0.000 OA
ATOM     33  H   UNL     1      45.390   2.332  12.561  0.00  0.00    +0.000 HD
ENDBRANCH  27  32
ENDBRANCH  18  25
ENDBRANCH   1  20
TORSDOF 8
ENDMDL
MODEL 7
REMARK VINA RESULT:    -7.129      3.454      9.276
REMARK INTER + INTRA:         -11.460
REMARK INTER:                  -9.453
REMARK INTRA:                  -2.007
REMARK UNBOUND:                -1.204
REMARK  Name = 
REMARK  9 active torsions:
REMARK  status: ('A' for Active; 'I' for Inactive)
REMARK    1  A    between atoms: C_1  and  N_2
REMARK    2  A    between atoms: C_4  and  C_5
REMARK    3  A    between atoms: N_7  and  C_8
REMARK    4  A    between atoms: C_8  and  C_9
REMARK    5  A    between atoms: C_12  and  N_13
REMARK    6  A    between atoms: N_13  and  C_14
REMARK    7  A    between atoms: C_14  and  C_15
REMARK    8  A    between atoms: C_15  and  C_16
REMARK    9  A    between atoms: C_25  and  O_26
REMARK                            x       y       z     vdW  Elec       q    Type
REMARK                         _______ _______ _______ _____ _____    ______ ____
ROOT
ATOM      1  C   UNL     1      47.612   3.669  16.604  0.00  0.00    +0.000 C 
ENDROOT
BRANCH   1   2
ATOM      2  C   UNL     1      47.831   4.309  17.942  0.00  0.00    +0.000 A 
ATOM      3  C   UNL     1      48.889   3.896  18.758  0.00  0.00    +0.000 A 
ATOM      4  C   UNL     1      49.140   4.541  19.970  0.00  0.00    +0.000 A 
ATOM      5  C   UNL     1      48.356   5.622  20.383  0.00  0.00    +0.000 A 
ATOM      6  C   UNL     1      47.230   5.950  19.618  0.00  0.00    +0.000 A 
ATOM      7  C   UNL     1      46.976   5.312  18.405  0.00  0.00    +0.000 A 
BRANCH   5   8
ATOM      8  N   UNL     1      48.567   6.342  21.561  0.00  0.00    +0.000 N 
ATOM      9  H   UNL     1      49.247   5.867  22.151  0.00  0.00    +0.000 HD
BRANCH   8  10
ATOM     10  C   UNL     1      48.813   7.776  21.467  0.00  0.00    +0.000 C 
BRANCH  10  11
ATOM     11  C   UNL     1      50.053   8.046  20.608  0.00  0.00    +0.000 C 
BRANCH  11  12
ATOM     12  C   UNL     1      49.702   8.790  19.306  0.00  0.00    +0.000 C 
ATOM     13  C   UNL     1      48.253   9.305  19.327  0.00  0.00    +0.000 C 
ATOM     14  C   UNL     1      47.882  10.017  18.035  0.00  0.00    +0.000 C 
ATOM     15  C   UNL     1      48.117   9.126  16.823  0.00  0.00    +0.000 C 
ATOM     16  C   UNL     1      49.555   8.615  16.781  0.00  0.00    +0.000 C 
ATOM     17  C   UNL     1      49.939   7.898  18.076  0.00  0.00    +0.000 C 
ENDBRANCH  11  12
ENDBRANCH  10  11
ENDBRANCH   8  10
ENDBRANCH   5   8
ENDBRANCH   1   2
BRANCH   1  20
ATOM     18  C   UNL     1      46.837   4.248  14.366  0.00  0.00    +0.000 C 
ATOM     19  O   UNL     1      47.305   3.218  13.888  0.00  0.00    +0.000 OA
ATOM     20  N   UNL     1      46.935   4.561  15.698  0.00  0.00    +0.000 N 
ATOM     21  H   UNL     1      46.554   5.421  16.057  0.00  0.00    +0.000 HD
BRANCH  18  25
ATOM     22  C   UNL     1      45.411   8.484  12.116  0.00  0.00    +0.000 C 
ATOM     23  N   UNL     1      45.484   7.098  12.518  0.00  0.00    +0.000 N 
ATOM     24  C   UNL     1      46.383   6.575  13.414  0.00  0.00    +0.000 A 
ATOM     25  C   UNL     1      46.136   5.214  13.532  0.00  0.00    +0.000 A 
ATOM     26  C   UNL     1      45.032   4.920  12.662  0.00  0.00    +0.000 A 
ATOM     27  C   UNL     1      44.282   3.797  12.296  0.00  0.00    +0.000 A 
ATOM     28  N   UNL     1      43.275   3.907  11.411  0.00  0.00    +0.000 NA
ATOM     29  C   UNL     1      43.027   5.125  10.903  0.00  0.00    +0.000 A 
ATOM     30  N   UNL     1      43.664   6.281  11.165  0.00  0.00    +0.000 NA
ATOM     31  C   UNL     1      44.658   6.111  12.054  0.00  0.00    +0.000 A 
BRANCH  27  32
ATOM     32  O   UNL     1      44.494   2.532  12.785  0.00  0.00    +0.000 OA
ATOM     33  H   UNL     1      45.110   2.074  12.178  0.00  0.00    +0.000 HD
ENDBRANCH  27  32
ENDBRANCH  18  25
ENDBRANCH   1  20
TORSDOF 8
ENDMDL
MODEL 8
REMARK VINA RESULT:    -6.870      3.480      9.837
REMARK INTER + INTRA:         -11.087
REMARK INTER:                  -9.756
REMARK INTRA:                  -1.331
REMARK UNBOUND:                -1.204
REMARK  Name = 
REMARK  9 active torsions:
REMARK  status: ('A' for Active; 'I' for Inactive)
REMARK    1  A    between atoms: C_1  and  N_2
REMARK    2  A    between atoms: C_4  and  C_5
REMARK    3  A    between atoms: N_7  and  C_8
REMARK    4  A    between atoms: C_8  and  C_9
REMARK    5  A    between atoms: C_12  and  N_13
REMARK    6  A    between atoms: N_13  and  C_14
REMARK    7  A    between atoms: C_14  and  C_15
REMARK    8  A    between atoms: C_15  and  C_16
REMARK    9  A    between atoms: C_25  and  O_26
REMARK                            x       y       z     vdW  Elec       q    Type
REMARK                         _______ _______ _______ _____ _____    ______ ____
ROOT
ATOM      1  C   UNL     1      47.777   3.376  16.350  0.00  0.00    +0.000 C 
ENDROOT
BRANCH   1   2
ATOM      2  C   UNL     1      48.495   4.021  17.497  0.00  0.00    +0.000 A 
ATOM      3  C   UNL     1      49.402   5.061  17.267  0.00  0.00    +0.000 A 
ATOM      4  C   UNL     1      50.014   5.713  18.339  0.00  0.00    +0.000 A 
ATOM      5  C   UNL     1      49.721   5.357  19.658  0.00  0.00    +0.000 A 
ATOM      6  C   UNL     1      48.904   4.240  19.873  0.00  0.00    +0.000 A 
ATOM      7  C   UNL     1      48.287   3.587  18.809  0.00  0.00    +0.000 A 
BRANCH   5   8
ATOM      8  N   UNL     1      50.262   5.986  20.782  0.00  0.00    +0.000 N 
ATOM      9  H   UNL     1      51.279   5.962  20.747  0.00  0.00    +0.000 HD
BRANCH   8  10
ATOM     10  C   UNL     1      49.747   7.295  21.163  0.00  0.00    +0.000 C 
BRANCH  10  11
ATOM     11  C   UNL     1      48.253   7.204  21.487  0.00  0.00    +0.000 C 
BRANCH  11  12
ATOM     12  C   UNL     1      47.425   8.226  20.684  0.00  0.00    +0.000 C 
ATOM     13  C   UNL     1      48.202   8.741  19.461  0.00  0.00    +0.000 C 
ATOM     14  C   UNL     1      47.410   9.774  18.675  0.00  0.00    +0.000 C 
ATOM     15  C   UNL     1      46.975  10.933  19.562  0.00  0.00    +0.000 C 
ATOM     16  C   UNL     1      46.192  10.440  20.775  0.00  0.00    +0.000 C 
ATOM     17  C   UNL     1      46.980   9.399  21.573  0.00  0.00    +0.000 C 
ENDBRANCH  11  12
ENDBRANCH  10  11
ENDBRANCH   8  10
ENDBRANCH   5   8
ENDBRANCH   1   2
BRANCH   1  20
ATOM     18  C   UNL     1      46.823   4.107  14.229  0.00  0.00    +0.000 C 
ATOM     19  O   UNL     1      47.176   3.076  13.662  0.00  0.00    +0.000 OA
ATOM     20  N   UNL     1      47.071   4.348  15.556  0.00  0.00    +0.000 N 
ATOM     21  H   UNL     1      46.781   5.210  15.989  0.00  0.00    +0.000 HD
BRANCH  18  25
ATOM     22  C   UNL     1      45.409   8.533  12.372  0.00  0.00    +0.000 C 
ATOM     23  N   UNL     1      45.457   7.122  12.675  0.00  0.00    +0.000 N 
ATOM     24  C   UNL     1      46.393   6.508  13.468  0.00  0.00    +0.000 A 
ATOM     25  C   UNL     1      46.103   5.151  13.513  0.00  0.00    +0.000 A 
ATOM     26  C   UNL     1      44.933   4.954  12.704  0.00  0.00    +0.000 A 
ATOM     27  C   UNL     1      44.118   3.885  12.317  0.00  0.00    +0.000 A 
ATOM     28  N   UNL     1      43.059   4.090  11.514  0.00  0.00    +0.000 NA
ATOM     29  C   UNL     1      42.823   5.348  11.108  0.00  0.00    +0.000 A 
ATOM     30  N   UNL     1      43.519   6.461  11.401  0.00  0.00    +0.000 NA
ATOM     31  C   UNL     1      44.564   6.196  12.205  0.00  0.00    +0.000 A 
BRANCH  27  32
ATOM     32  O   UNL     1      44.315   2.583  12.705  0.00  0.00    +0.000 OA
ATOM     33  H   UNL     1      45.183   2.294  12.359  0.00  0.00    +0.000 HD
ENDBRANCH  27  32
ENDBRANCH  18  25
ENDBRANCH   1  20
TORSDOF 8
ENDMDL
MODEL 9
REMARK VINA RESULT:    -6.813      3.036      3.597
REMARK INTER + INTRA:         -11.005
REMARK INTER:                  -9.785
REMARK INTRA:                  -1.220
REMARK UNBOUND:                -1.204
REMARK  Name = 
REMARK  9 active torsions:
REMARK  status: ('A' for Active; 'I' for Inactive)
REMARK    1  A    between atoms: C_1  and  N_2
REMARK    2  A    between atoms: C_4  and  C_5
REMARK    3  A    between atoms: N_7  and  C_8
REMARK    4  A    between atoms: C_8  and  C_9
REMARK    5  A    between atoms: C_12  and  N_13
REMARK    6  A    between atoms: N_13  and  C_14
REMARK    7  A    between atoms: C_14  and  C_15
REMARK    8  A    between atoms: C_15  and  C_16
REMARK    9  A    between atoms: C_25  and  O_26
REMARK                            x       y       z     vdW  Elec       q    Type
REMARK                         _______ _______ _______ _____ _____    ______ ____
ROOT
ATOM      1  C   UNL     1      48.133   7.780  13.903  0.00  0.00    +0.000 C 
ENDROOT
BRANCH   1   2
ATOM      2  C   UNL     1      47.337   6.560  13.547  0.00  0.00    +0.000 A 
ATOM      3  C   UNL     1      46.482   6.573  12.440  0.00  0.00    +0.000 A 
ATOM      4  C   UNL     1      45.798   5.415  12.063  0.00  0.00    +0.000 A 
ATOM      5  C   UNL     1      45.968   4.220  12.768  0.00  0.00    +0.000 A 
ATOM      6  C   UNL     1      46.732   4.249  13.941  0.00  0.00    +0.000 A 
ATOM      7  C   UNL     1      47.420   5.400  14.321  0.00  0.00    +0.000 A 
BRANCH   5   8
ATOM      8  N   UNL     1      45.350   3.014  12.431  0.00  0.00    +0.000 N 
ATOM      9  H   UNL     1      45.517   2.315  13.153  0.00  0.00    +0.000 HD
BRANCH   8  10
ATOM     10  C   UNL     1      43.961   3.041  11.990  0.00  0.00    +0.000 C 
BRANCH  10  11
ATOM     11  C   UNL     1      43.831   2.397  10.607  0.00  0.00    +0.000 C 
BRANCH  11  12
ATOM     12  C   UNL     1      45.022   2.744   9.693  0.00  0.00    +0.000 C 
ATOM     13  C   UNL     1      44.764   4.039   8.904  0.00  0.00    +0.000 C 
ATOM     14  C   UNL     1      45.919   4.380   7.974  0.00  0.00    +0.000 C 
ATOM     15  C   UNL     1      46.229   3.227   7.029  0.00  0.00    +0.000 C 
ATOM     16  C   UNL     1      46.499   1.937   7.797  0.00  0.00    +0.000 C 
ATOM     17  C   UNL     1      45.344   1.585   8.736  0.00  0.00    +0.000 C 
ENDBRANCH  11  12
ENDBRANCH  10  11
ENDBRANCH   8  10
ENDBRANCH   5   8
ENDBRANCH   1   2
BRANCH   1  20
ATOM     18  C   UNL     1      48.752   8.922  15.966  0.00  0.00    +0.000 C 
ATOM     19  O   UNL     1      49.884   9.154  15.552  0.00  0.00    +0.000 OA
ATOM     20  N   UNL     1      47.813   8.250  15.226  0.00  0.00    +0.000 N 
ATOM     21  H   UNL     1      46.897   8.062  15.600  0.00  0.00    +0.000 HD
BRANCH  18  25
ATOM     22  C   UNL     1      47.390  11.739  19.870  0.00  0.00    +0.000 C 
ATOM     23  N   UNL     1      47.722  10.600  19.048  0.00  0.00    +0.000 N 
ATOM     24  C   UNL     1      48.103  10.652  17.730  0.00  0.00    +0.000 A 
ATOM     25  C   UNL     1      48.332   9.355  17.291  0.00  0.00    +0.000 A 
ATOM     26  C   UNL     1      48.075   8.492  18.410  0.00  0.00    +0.000 A 
ATOM     27  C   UNL     1      48.106   7.120  18.678  0.00  0.00    +0.000 A 
ATOM     28  N   UNL     1      47.788   6.655  19.900  0.00  0.00    +0.000 NA
ATOM     29  C   UNL     1      47.445   7.556  20.835  0.00  0.00    +0.000 A 
ATOM     30  N   UNL     1      47.373   8.894  20.715  0.00  0.00    +0.000 NA
ATOM     31  C   UNL     1      47.701   9.300  19.476  0.00  0.00    +0.000 A 
BRANCH  27  32
ATOM     32  O   UNL     1      48.451   6.159  17.759  0.00  0.00    +0.000 OA
ATOM     33  H   UNL     1      47.988   6.365  16.922  0.00  0.00    +0.000 HD
ENDBRANCH  27  32
ENDBRANCH  18  25
ENDBRANCH   1  20
TORSDOF 8
ENDMDL
