MODEL 1
REMARK VINA RESULT:    -8.082      0.000      0.000
REMARK INTER + INTRA:         -11.797
REMARK INTER:                 -10.917
REMARK INTRA:                  -0.881
REMARK UNBOUND:                -0.881
REMARK  Name = 
REMARK  6 active torsions:
REMARK  status: ('A' for Active; 'I' for Inactive)
REMARK    1  A    between atoms: C_2  and  C_3
REMARK    2  A    between atoms: C_3  and  C_4
REMARK    3  A    between atoms: C_8  and  N_9
REMARK    4  A    between atoms: N_9  and  C_10
REMARK    5  A    between atoms: C_10  and  C_11
REMARK    6  A    between atoms: C_15  and  C_16
REMARK                            x       y       z     vdW  Elec       q    Type
REMARK                         _______ _______ _______ _____ _____    ______ ____
ROOT
ATOM      1  C   UNL     1      43.831   4.843  11.640  0.00  0.00    +0.000 C 
ATOM      2  C   UNL     1      42.477   5.248  12.221  0.00  0.00    +0.000 C 
ATOM      3  C   UNL     1      43.065   6.055  11.119  0.00  0.00    +0.000 C 
ENDROOT
BRANCH   1   4
ATOM      4  C   UNL     1      45.117   5.204  12.395  0.00  0.00    +0.000 A 
ATOM      5  C   UNL     1      45.711   4.298  13.286  0.00  0.00    +0.000 A 
ATOM      6  C   UNL     1      46.967   4.547  13.848  0.00  0.00    +0.000 A 
ATOM      7  C   UNL     1      47.672   5.701  13.505  0.00  0.00    +0.000 A 
ATOM      8  C   UNL     1      47.128   6.641  12.624  0.00  0.00    +0.000 A 
ATOM      9  C   UNL     1      45.828   6.389  12.130  0.00  0.00    +0.000 A 
BRANCH   8  10
ATOM     10  C   UNL     1      47.896   7.812  12.147  0.00  0.00    +0.000 A 
ATOM     11  C   UNL     1      47.362   9.103  12.122  0.00  0.00    +0.000 A 
ATOM     12  C   UNL     1      48.158  10.205  11.757  0.00  0.00    +0.000 A 
ATOM     13  C   UNL     1      49.501  10.037  11.422  0.00  0.00    +0.000 A 
ATOM     14  C   UNL     1      50.041   8.763  11.420  0.00  0.00    +0.000 A 
ATOM     15  C   UNL     1      49.225   7.683  11.757  0.00  0.00    +0.000 A 
ENDBRANCH   8  10
ENDBRANCH   1   4
BRANCH   1  16
ATOM     16  N   UNL     1      43.909   3.618  10.808  0.00  0.00    +0.000 N 
ATOM     17  H   UNL     1      43.721   2.727  11.255  0.00  0.00    +0.000 HD
BRANCH  16  22
ATOM     18  C   UNL     1      46.099   2.243   8.115  0.00  0.00    +0.000 A 
ATOM     19  C   UNL     1      46.466   3.431   7.507  0.00  0.00    +0.000 A 
ATOM     20  N   UNL     1      46.024   4.641   7.916  0.00  0.00    +0.000 NA
ATOM     21  C   UNL     1      45.184   4.662   8.988  0.00  0.00    +0.000 A 
ATOM     22  C   UNL     1      44.720   3.534   9.661  0.00  0.00    +0.000 A 
ATOM     23  C   UNL     1      45.219   2.324   9.200  0.00  0.00    +0.000 A 
BRANCH  18  24
ATOM     24  C   UNL     1      46.637   0.897   7.719  0.00  0.00    +0.000 C 
BRANCH  24  26
ATOM     25  N   UNL     1      48.064   1.161   5.347  0.00  0.00    +0.000 NA
ATOM     26  C   UNL     1      47.417   1.041   6.423  0.00  0.00    +0.000 C 
ENDBRANCH  24  26
ENDBRANCH  18  24
ENDBRANCH  16  22
ENDBRANCH   1  16
TORSDOF 6
ENDMDL
MODEL 2
REMARK VINA RESULT:    -7.859      1.779      3.705
REMARK INTER + INTRA:         -11.496
REMARK INTER:                 -10.797
REMARK INTRA:                  -0.699
REMARK UNBOUND:                -0.881
REMARK  Name = 
REMARK  6 active torsions:
REMARK  status: ('A' for Active; 'I' for Inactive)
REMARK    1  A    between atoms: C_2  and  C_3
REMARK    2  A    between atoms: C_3  and  C_4
REMARK    3  A    between atoms: C_8  and  N_9
REMARK    4  A    between atoms: N_9  and  C_10
REMARK    5  A    between atoms: C_10  and  C_11
REMARK    6  A    between atoms: C_15  and  C_16
REMARK                            x       y       z     vdW  Elec       q    Type
REMARK                         _______ _______ _______ _____ _____    ______ ____
ROOT
ATOM      1  C   UNL     1      44.047   4.809  11.307  0.00  0.00    +0.000 C 
ATOM      2  C   UNL     1      43.143   3.981  12.217  0.00  0.00    +0.000 C 
ATOM      3  C   UNL     1      42.859   5.429  12.036  0.00  0.00    +0.000 C 
ENDROOT
BRANCH   1   4
ATOM      4  C   UNL     1      45.408   5.290  11.826  0.00  0.00    +0.000 A 
ATOM      5  C   UNL     1      46.083   6.356  11.211  0.00  0.00    +0.000 A 
ATOM      6  C   UNL     1      47.235   6.910  11.775  0.00  0.00    +0.000 A 
ATOM      7  C   UNL     1      47.725   6.427  12.988  0.00  0.00    +0.000 A 
ATOM      8  C   UNL     1      47.096   5.365  13.646  0.00  0.00    +0.000 A 
ATOM      9  C   UNL     1      45.974   4.784  13.012  0.00  0.00    +0.000 A 
BRANCH   8  10
ATOM     10  C   UNL     1      47.515   4.908  14.989  0.00  0.00    +0.000 A 
ATOM     11  C   UNL     1      47.303   3.603  15.441  0.00  0.00    +0.000 A 
ATOM     12  C   UNL     1      47.807   3.180  16.685  0.00  0.00    +0.000 A 
ATOM     13  C   UNL     1      48.541   4.049  17.492  0.00  0.00    +0.000 A 
ATOM     14  C   UNL     1      48.744   5.351  17.070  0.00  0.00    +0.000 A 
ATOM     15  C   UNL     1      48.209   5.756  15.846  0.00  0.00    +0.000 A 
ENDBRANCH   8  10
ENDBRANCH   1   4
BRANCH   1  16
ATOM     16  N   UNL     1      43.970   4.593   9.842  0.00  0.00    +0.000 N 
ATOM     17  H   UNL     1      43.085   4.774   9.381  0.00  0.00    +0.000 HD
BRANCH  16  22
ATOM     18  C   UNL     1      46.270   3.104   7.306  0.00  0.00    +0.000 A 
ATOM     19  C   UNL     1      46.280   1.798   7.763  0.00  0.00    +0.000 A 
ATOM     20  N   UNL     1      45.595   1.389   8.854  0.00  0.00    +0.000 NA
ATOM     21  C   UNL     1      44.863   2.330   9.513  0.00  0.00    +0.000 A 
ATOM     22  C   UNL     1      44.800   3.678   9.168  0.00  0.00    +0.000 A 
ATOM     23  C   UNL     1      45.515   4.031   8.032  0.00  0.00    +0.000 A 
BRANCH  18  24
ATOM     24  C   UNL     1      46.966   3.560   6.054  0.00  0.00    +0.000 C 
BRANCH  24  26
ATOM     25  N   UNL     1      47.765   1.326   4.604  0.00  0.00    +0.000 NA
ATOM     26  C   UNL     1      47.402   2.339   5.262  0.00  0.00    +0.000 C 
ENDBRANCH  24  26
ENDBRANCH  18  24
ENDBRANCH  16  22
ENDBRANCH   1  16
TORSDOF 6
ENDMDL
MODEL 3
REMARK VINA RESULT:    -7.542      2.790      6.971
REMARK INTER + INTRA:         -11.067
REMARK INTER:                 -10.019
REMARK INTRA:                  -1.049
REMARK UNBOUND:                -0.881
REMARK  Name = 
REMARK  6 active torsions:
REMARK  status: ('A' for Active; 'I' for Inactive)
REMARK    1  A    between atoms: C_2  and  C_3
REMARK    2  A    between atoms: C_3  and  C_4
REMARK    3  A    between atoms: C_8  and  N_9
REMARK    4  A    between atoms: N_9  and  C_10
REMARK    5  A    between atoms: C_10  and  C_11
REMARK    6  A    between atoms: C_15  and  C_16
REMARK                            x       y       z     vdW  Elec       q    Type
REMARK                         _______ _______ _______ _____ _____    ______ ____
ROOT
ATOM      1  C   UNL     1      45.510   6.041  11.878  0.00  0.00    +0.000 C 
ATOM      2  C   UNL     1      44.667   7.270  11.545  0.00  0.00    +0.000 C 
ATOM      3  C   UNL     1      44.494   6.608  12.865  0.00  0.00    +0.000 C 
ENDROOT
BRANCH   1   4
ATOM      4  C   UNL     1      45.114   4.674  11.304  0.00  0.00    +0.000 A 
ATOM      5  C   UNL     1      44.000   3.977  11.797  0.00  0.00    +0.000 A 
ATOM      6  C   UNL     1      43.532   2.818  11.171  0.00  0.00    +0.000 A 
ATOM      7  C   UNL     1      44.154   2.344  10.016  0.00  0.00    +0.000 A 
ATOM      8  C   UNL     1      45.269   2.996   9.481  0.00  0.00    +0.000 A 
ATOM      9  C   UNL     1      45.757   4.125  10.178  0.00  0.00    +0.000 A 
BRANCH   8  10
ATOM     10  C   UNL     1      45.877   2.593   8.194  0.00  0.00    +0.000 A 
ATOM     11  C   UNL     1      46.008   3.471   7.114  0.00  0.00    +0.000 A 
ATOM     12  C   UNL     1      46.684   3.079   5.944  0.00  0.00    +0.000 A 
ATOM     13  C   UNL     1      47.248   1.809   5.836  0.00  0.00    +0.000 A 
ATOM     14  C   UNL     1      47.111   0.918   6.886  0.00  0.00    +0.000 A 
ATOM     15  C   UNL     1      46.412   1.319   8.025  0.00  0.00    +0.000 A 
ENDBRANCH   8  10
ENDBRANCH   1   4
BRANCH   1  16
ATOM     16  N   UNL     1      46.957   6.222  12.139  0.00  0.00    +0.000 N 
ATOM     17  H   UNL     1      47.606   6.017  11.387  0.00  0.00    +0.000 HD
BRANCH  16  22
ATOM     18  C   UNL     1      47.715   4.974  15.576  0.00  0.00    +0.000 A 
ATOM     19  C   UNL     1      48.476   6.037  16.030  0.00  0.00    +0.000 A 
ATOM     20  N   UNL     1      48.765   7.119  15.272  0.00  0.00    +0.000 NA
ATOM     21  C   UNL     1      48.263   7.139  14.006  0.00  0.00    +0.000 A 
ATOM     22  C   UNL     1      47.512   6.117  13.429  0.00  0.00    +0.000 A 
ATOM     23  C   UNL     1      47.241   5.041  14.262  0.00  0.00    +0.000 A 
BRANCH  18  24
ATOM     24  C   UNL     1      47.324   3.799  16.427  0.00  0.00    +0.000 C 
BRANCH  24  26
ATOM     25  N   UNL     1      49.265   1.823  16.182  0.00  0.00    +0.000 NA
ATOM     26  C   UNL     1      48.385   2.720  16.293  0.00  0.00    +0.000 C 
ENDBRANCH  24  26
ENDBRANCH  18  24
ENDBRANCH  16  22
ENDBRANCH   1  16
TORSDOF 6
ENDMDL
MODEL 4
REMARK VINA RESULT:    -7.530      1.836      2.700
REMARK INTER + INTRA:         -11.052
REMARK INTER:                 -10.433
REMARK INTRA:                  -0.618
REMARK UNBOUND:                -0.881
REMARK  Name = 
REMARK  6 active torsions:
REMARK  status: ('A' for Active; 'I' for Inactive)
REMARK    1  A    between atoms: C_2  and  C_3
REMARK    2  A    between atoms: C_3  and  C_4
REMARK    3  A    between atoms: C_8  and  N_9
REMARK    4  A    between atoms: N_9  and  C_10
REMARK    5  A    between atoms: C_10  and  C_11
REMARK    6  A    between atoms: C_15  and  C_16
REMARK                            x       y       z     vdW  Elec       q    Type
REMARK                         _______ _______ _______ _____ _____    ______ ____
ROOT
ATOM      1  C   UNL     1      43.765   5.102  11.110  0.00  0.00    +0.000 C 
ATOM      2  C   UNL     1      43.124   4.061  12.025  0.00  0.00    +0.000 C 
ATOM      3  C   UNL     1      42.407   5.338  11.763  0.00  0.00    +0.000 C 
ENDROOT
BRANCH   1   4
ATOM      4  C   UNL     1      44.877   6.007  11.656  0.00  0.00    +0.000 A 
ATOM      5  C   UNL     1      46.138   5.486  11.985  0.00  0.00    +0.000 A 
ATOM      6  C   UNL     1      47.206   6.323  12.321  0.00  0.00    +0.000 A 
ATOM      7  C   UNL     1      47.044   7.708  12.307  0.00  0.00    +0.000 A 
ATOM      8  C   UNL     1      45.810   8.284  11.989  0.00  0.00    +0.000 A 
ATOM      9  C   UNL     1      44.734   7.406  11.722  0.00  0.00    +0.000 A 
BRANCH   8  10
ATOM     10  C   UNL     1      45.634   9.746  11.846  0.00  0.00    +0.000 A 
ATOM     11  C   UNL     1      46.708  10.640  11.875  0.00  0.00    +0.000 A 
ATOM     12  C   UNL     1      46.510  12.012  11.634  0.00  0.00    +0.000 A 
ATOM     13  C   UNL     1      45.241  12.512  11.350  0.00  0.00    +0.000 A 
ATOM     14  C   UNL     1      44.162  11.645  11.338  0.00  0.00    +0.000 A 
ATOM     15  C   UNL     1      44.378  10.294  11.608  0.00  0.00    +0.000 A 
ENDBRANCH   8  10
ENDBRANCH   1   4
BRANCH   1  16
ATOM     16  N   UNL     1      43.834   4.823   9.655  0.00  0.00    +0.000 N 
ATOM     17  H   UNL     1      43.013   5.019   9.094  0.00  0.00    +0.000 HD
BRANCH  16  22
ATOM     18  C   UNL     1      46.295   3.116   7.426  0.00  0.00    +0.000 A 
ATOM     19  C   UNL     1      46.222   1.841   7.959  0.00  0.00    +0.000 A 
ATOM     20  N   UNL     1      45.432   1.520   9.007  0.00  0.00    +0.000 NA
ATOM     21  C   UNL     1      44.677   2.520   9.542  0.00  0.00    +0.000 A 
ATOM     22  C   UNL     1      44.689   3.846   9.113  0.00  0.00    +0.000 A 
ATOM     23  C   UNL     1      45.512   4.107   8.026  0.00  0.00    +0.000 A 
BRANCH  18  24
ATOM     24  C   UNL     1      47.112   3.474   6.216  0.00  0.00    +0.000 C 
BRANCH  24  26
ATOM     25  N   UNL     1      47.674   1.152   4.792  0.00  0.00    +0.000 NA
ATOM     26  C   UNL     1      47.419   2.205   5.438  0.00  0.00    +0.000 C 
ENDBRANCH  24  26
ENDBRANCH  18  24
ENDBRANCH  16  22
ENDBRANCH   1  16
TORSDOF 6
ENDMDL
MODEL 5
REMARK VINA RESULT:    -7.507      2.916      6.959
REMARK INTER + INTRA:         -11.021
REMARK INTER:                  -9.888
REMARK INTRA:                  -1.133
REMARK UNBOUND:                -0.881
REMARK  Name = 
REMARK  6 active torsions:
REMARK  status: ('A' for Active; 'I' for Inactive)
REMARK    1  A    between atoms: C_2  and  C_3
REMARK    2  A    between atoms: C_3  and  C_4
REMARK    3  A    between atoms: C_8  and  N_9
REMARK    4  A    between atoms: N_9  and  C_10
REMARK    5  A    between atoms: C_10  and  C_11
REMARK    6  A    between atoms: C_15  and  C_16
REMARK                            x       y       z     vdW  Elec       q    Type
REMARK                         _______ _______ _______ _____ _____    ______ ____
ROOT
ATOM      1  C   UNL     1      46.253   7.503  12.127  0.00  0.00    +0.000 C 
ATOM      2  C   UNL     1      45.997   8.959  11.742  0.00  0.00    +0.000 C 
ATOM      3  C   UNL     1      45.537   8.467  13.068  0.00  0.00    +0.000 C 
ENDROOT
BRANCH   1   4
ATOM      4  C   UNL     1      45.345   6.401  11.566  0.00  0.00    +0.000 A 
ATOM      5  C   UNL     1      43.962   6.413  11.803  0.00  0.00    +0.000 A 
ATOM      6  C   UNL     1      43.106   5.514  11.160  0.00  0.00    +0.000 A 
ATOM      7  C   UNL     1      43.613   4.599  10.238  0.00  0.00    +0.000 A 
ATOM      8  C   UNL     1      44.983   4.540   9.963  0.00  0.00    +0.000 A 
ATOM      9  C   UNL     1      45.827   5.416  10.683  0.00  0.00    +0.000 A 
BRANCH   8  10
ATOM     10  C   UNL     1      45.540   3.667   8.906  0.00  0.00    +0.000 A 
ATOM     11  C   UNL     1      46.178   4.172   7.770  0.00  0.00    +0.000 A 
ATOM     12  C   UNL     1      46.783   3.308   6.839  0.00  0.00    +0.000 A 
ATOM     13  C   UNL     1      46.771   1.928   7.032  0.00  0.00    +0.000 A 
ATOM     14  C   UNL     1      46.125   1.408   8.140  0.00  0.00    +0.000 A 
ATOM     15  C   UNL     1      45.507   2.282   9.035  0.00  0.00    +0.000 A 
ENDBRANCH   8  10
ENDBRANCH   1   4
BRANCH   1  16
ATOM     16  N   UNL     1      47.642   7.084  12.433  0.00  0.00    +0.000 N 
ATOM     17  H   UNL     1      48.197   6.691  11.680  0.00  0.00    +0.000 HD
BRANCH  16  22
ATOM     18  C   UNL     1      47.885   5.176  15.633  0.00  0.00    +0.000 A 
ATOM     19  C   UNL     1      48.720   6.031  16.332  0.00  0.00    +0.000 A 
ATOM     20  N   UNL     1      49.215   7.176  15.810  0.00  0.00    +0.000 NA
ATOM     21  C   UNL     1      48.851   7.480  14.533  0.00  0.00    +0.000 A 
ATOM     22  C   UNL     1      48.044   6.685  13.721  0.00  0.00    +0.000 A 
ATOM     23  C   UNL     1      47.560   5.531  14.320  0.00  0.00    +0.000 A 
BRANCH  18  24
ATOM     24  C   UNL     1      47.269   3.940  16.223  0.00  0.00    +0.000 C 
BRANCH  24  26
ATOM     25  N   UNL     1      49.153   1.894  16.195  0.00  0.00    +0.000 NA
ATOM     26  C   UNL     1      48.298   2.822  16.208  0.00  0.00    +0.000 C 
ENDBRANCH  24  26
ENDBRANCH  18  24
ENDBRANCH  16  22
ENDBRANCH   1  16
TORSDOF 6
ENDMDL
MODEL 6
REMARK VINA RESULT:    -7.211      2.618      6.976
REMARK INTER + INTRA:         -10.621
REMARK INTER:                 -10.008
REMARK INTRA:                  -0.613
REMARK UNBOUND:                -0.881
REMARK  Name = 
REMARK  6 active torsions:
REMARK  status: ('A' for Active; 'I' for Inactive)
REMARK    1  A    between atoms: C_2  and  C_3
REMARK    2  A    between atoms: C_3  and  C_4
REMARK    3  A    between atoms: C_8  and  N_9
REMARK    4  A    between atoms: N_9  and  C_10
REMARK    5  A    between atoms: C_10  and  C_11
REMARK    6  A    between atoms: C_15  and  C_16
REMARK                            x       y       z     vdW  Elec       q    Type
REMARK                         _______ _______ _______ _____ _____    ______ ____
ROOT
ATOM      1  C   UNL     1      44.751   3.503  12.275  0.00  0.00    +0.000 C 
ATOM      2  C   UNL     1      43.457   3.929  12.966  0.00  0.00    +0.000 C 
ATOM      3  C   UNL     1      43.519   2.603  12.296  0.00  0.00    +0.000 C 
ENDROOT
BRANCH   1   4
ATOM      4  C   UNL     1      45.084   4.059  10.885  0.00  0.00    +0.000 A 
ATOM      5  C   UNL     1      45.276   5.435  10.683  0.00  0.00    +0.000 A 
ATOM      6  C   UNL     1      45.745   5.933   9.464  0.00  0.00    +0.000 A 
ATOM      7  C   UNL     1      46.061   5.059   8.424  0.00  0.00    +0.000 A 
ATOM      8  C   UNL     1      45.888   3.678   8.568  0.00  0.00    +0.000 A 
ATOM      9  C   UNL     1      45.348   3.216   9.789  0.00  0.00    +0.000 A 
BRANCH   8  10
ATOM     10  C   UNL     1      46.327   2.716   7.533  0.00  0.00    +0.000 A 
ATOM     11  C   UNL     1      46.585   3.095   6.212  0.00  0.00    +0.000 A 
ATOM     12  C   UNL     1      47.097   2.170   5.284  0.00  0.00    +0.000 A 
ATOM     13  C   UNL     1      47.370   0.856   5.660  0.00  0.00    +0.000 A 
ATOM     14  C   UNL     1      47.101   0.457   6.958  0.00  0.00    +0.000 A 
ATOM     15  C   UNL     1      46.566   1.384   7.853  0.00  0.00    +0.000 A 
ENDBRANCH   8  10
ENDBRANCH   1   4
BRANCH   1  16
ATOM     16  N   UNL     1      45.922   3.154  13.115  0.00  0.00    +0.000 N 
ATOM     17  H   UNL     1      45.966   2.218  13.503  0.00  0.00    +0.000 HD
BRANCH  16  22
ATOM     18  C   UNL     1      47.685   6.321  14.009  0.00  0.00    +0.000 A 
ATOM     19  C   UNL     1      48.240   5.927  15.214  0.00  0.00    +0.000 A 
ATOM     20  N   UNL     1      48.055   4.700  15.750  0.00  0.00    +0.000 NA
ATOM     21  C   UNL     1      47.284   3.827  15.044  0.00  0.00    +0.000 A 
ATOM     22  C   UNL     1      46.648   4.118  13.838  0.00  0.00    +0.000 A 
ATOM     23  C   UNL     1      46.888   5.389  13.336  0.00  0.00    +0.000 A 
BRANCH  18  24
ATOM     24  C   UNL     1      47.939   7.654  13.365  0.00  0.00    +0.000 C 
BRANCH  24  26
ATOM     25  N   UNL     1      45.511   8.744  12.558  0.00  0.00    +0.000 NA
ATOM     26  C   UNL     1      46.613   8.249  12.924  0.00  0.00    +0.000 C 
ENDBRANCH  24  26
ENDBRANCH  18  24
ENDBRANCH  16  22
ENDBRANCH   1  16
TORSDOF 6
ENDMDL
MODEL 7
REMARK VINA RESULT:    -6.651      1.456      2.591
REMARK INTER + INTRA:          -9.865
REMARK INTER:                  -9.643
REMARK INTRA:                  -0.222
REMARK UNBOUND:                -0.881
REMARK  Name = 
REMARK  6 active torsions:
REMARK  status: ('A' for Active; 'I' for Inactive)
REMARK    1  A    between atoms: C_2  and  C_3
REMARK    2  A    between atoms: C_3  and  C_4
REMARK    3  A    between atoms: C_8  and  N_9
REMARK    4  A    between atoms: N_9  and  C_10
REMARK    5  A    between atoms: C_10  and  C_11
REMARK    6  A    between atoms: C_15  and  C_16
REMARK                            x       y       z     vdW  Elec       q    Type
REMARK                         _______ _______ _______ _____ _____    ______ ____
ROOT
ATOM      1  C   UNL     1      44.607   5.555  11.632  0.00  0.00    +0.000 C 
ATOM      2  C   UNL     1      44.978   4.470  12.641  0.00  0.00    +0.000 C 
ATOM      3  C   UNL     1      43.751   5.281  12.865  0.00  0.00    +0.000 C 
ENDROOT
BRANCH   1   4
ATOM      4  C   UNL     1      45.332   6.907  11.674  0.00  0.00    +0.000 A 
ATOM      5  C   UNL     1      44.615   8.113  11.648  0.00  0.00    +0.000 A 
ATOM      6  C   UNL     1      45.250   9.341  11.856  0.00  0.00    +0.000 A 
ATOM      7  C   UNL     1      46.617   9.388  12.125  0.00  0.00    +0.000 A 
ATOM      8  C   UNL     1      47.383   8.218  12.162  0.00  0.00    +0.000 A 
ATOM      9  C   UNL     1      46.721   7.001  11.879  0.00  0.00    +0.000 A 
BRANCH   8  10
ATOM     10  C   UNL     1      48.807   8.219  12.563  0.00  0.00    +0.000 A 
ATOM     11  C   UNL     1      49.835   8.581  11.689  0.00  0.00    +0.000 A 
ATOM     12  C   UNL     1      51.166   8.667  12.138  0.00  0.00    +0.000 A 
ATOM     13  C   UNL     1      51.490   8.404  13.468  0.00  0.00    +0.000 A 
ATOM     14  C   UNL     1      50.488   8.023  14.343  0.00  0.00    +0.000 A 
ATOM     15  C   UNL     1      49.181   7.916  13.869  0.00  0.00    +0.000 A 
ENDBRANCH   8  10
ENDBRANCH   1   4
BRANCH   1  16
ATOM     16  N   UNL     1      44.113   5.144  10.296  0.00  0.00    +0.000 N 
ATOM     17  H   UNL     1      43.142   5.329  10.071  0.00  0.00    +0.000 HD
BRANCH  16  22
ATOM     18  C   UNL     1      45.950   3.236   7.664  0.00  0.00    +0.000 A 
ATOM     19  C   UNL     1      45.640   1.951   8.073  0.00  0.00    +0.000 A 
ATOM     20  N   UNL     1      44.885   1.680   9.161  0.00  0.00    +0.000 NA
ATOM     21  C   UNL     1      44.415   2.745   9.867  0.00  0.00    +0.000 A 
ATOM     22  C   UNL     1      44.685   4.080   9.574  0.00  0.00    +0.000 A 
ATOM     23  C   UNL     1      45.455   4.291   8.439  0.00  0.00    +0.000 A 
BRANCH  18  24
ATOM     24  C   UNL     1      46.726   3.556   6.418  0.00  0.00    +0.000 C 
BRANCH  24  26
ATOM     25  N   UNL     1      48.098   1.279   5.603  0.00  0.00    +0.000 NA
ATOM     26  C   UNL     1      47.475   2.312   5.973  0.00  0.00    +0.000 C 
ENDBRANCH  24  26
ENDBRANCH  18  24
ENDBRANCH  16  22
ENDBRANCH   1  16
TORSDOF 6
ENDMDL
MODEL 8
REMARK VINA RESULT:    -6.639      2.986      5.612
REMARK INTER + INTRA:          -9.849
REMARK INTER:                  -8.855
REMARK INTRA:                  -0.994
REMARK UNBOUND:                -0.881
REMARK  Name = 
REMARK  6 active torsions:
REMARK  status: ('A' for Active; 'I' for Inactive)
REMARK    1  A    between atoms: C_2  and  C_3
REMARK    2  A    between atoms: C_3  and  C_4
REMARK    3  A    between atoms: C_8  and  N_9
REMARK    4  A    between atoms: N_9  and  C_10
REMARK    5  A    between atoms: C_10  and  C_11
REMARK    6  A    between atoms: C_15  and  C_16
REMARK                            x       y       z     vdW  Elec       q    Type
REMARK                         _______ _______ _______ _____ _____    ______ ____
ROOT
ATOM      1  C   UNL     1      47.606   7.999  12.794  0.00  0.00    +0.000 C 
ATOM      2  C   UNL     1      48.177   9.027  11.820  0.00  0.00    +0.000 C 
ATOM      3  C   UNL     1      48.632   7.614  11.732  0.00  0.00    +0.000 C 
ENDROOT
BRANCH   1   4
ATOM      4  C   UNL     1      48.149   7.932  14.227  0.00  0.00    +0.000 A 
ATOM      5  C   UNL     1      48.112   9.055  15.068  0.00  0.00    +0.000 A 
ATOM      6  C   UNL     1      48.445   8.961  16.423  0.00  0.00    +0.000 A 
ATOM      7  C   UNL     1      48.797   7.729  16.975  0.00  0.00    +0.000 A 
ATOM      8  C   UNL     1      48.853   6.577  16.185  0.00  0.00    +0.000 A 
ATOM      9  C   UNL     1      48.577   6.722  14.806  0.00  0.00    +0.000 A 
BRANCH   8  10
ATOM     10  C   UNL     1      49.103   5.237  16.760  0.00  0.00    +0.000 A 
ATOM     11  C   UNL     1      48.172   4.197  16.681  0.00  0.00    +0.000 A 
ATOM     12  C   UNL     1      48.488   2.909  17.151  0.00  0.00    +0.000 A 
ATOM     13  C   UNL     1      49.742   2.635  17.695  0.00  0.00    +0.000 A 
ATOM     14  C   UNL     1      50.669   3.656  17.800  0.00  0.00    +0.000 A 
ATOM     15  C   UNL     1      50.323   4.932  17.355  0.00  0.00    +0.000 A 
ENDBRANCH   8  10
ENDBRANCH   1   4
BRANCH   1  16
ATOM     16  N   UNL     1      46.196   7.573  12.632  0.00  0.00    +0.000 N 
ATOM     17  H   UNL     1      45.480   8.104  13.116  0.00  0.00    +0.000 HD
BRANCH  16  22
ATOM     18  C   UNL     1      44.934   4.565  10.815  0.00  0.00    +0.000 A 
ATOM     19  C   UNL     1      44.962   3.655  11.857  0.00  0.00    +0.000 A 
ATOM     20  N   UNL     1      45.384   3.967  13.103  0.00  0.00    +0.000 NA
ATOM     21  C   UNL     1      45.789   5.250  13.315  0.00  0.00    +0.000 A 
ATOM     22  C   UNL     1      45.836   6.244  12.340  0.00  0.00    +0.000 A 
ATOM     23  C   UNL     1      45.379   5.863  11.086  0.00  0.00    +0.000 A 
BRANCH  18  24
ATOM     24  C   UNL     1      44.400   4.255   9.445  0.00  0.00    +0.000 C 
BRANCH  24  26
ATOM     25  N   UNL     1      46.485   4.405   7.611  0.00  0.00    +0.000 NA
ATOM     26  C   UNL     1      45.539   4.337   8.443  0.00  0.00    +0.000 C 
ENDBRANCH  24  26
ENDBRANCH  18  24
ENDBRANCH  16  22
ENDBRANCH   1  16
TORSDOF 6
ENDMDL
MODEL 9
REMARK VINA RESULT:    -6.612      3.383      7.553
REMARK INTER + INTRA:          -9.812
REMARK INTER:                  -8.551
REMARK INTRA:                  -1.261
REMARK UNBOUND:                -0.881
REMARK  Name = 
REMARK  6 active torsions:
REMARK  status: ('A' for Active; 'I' for Inactive)
REMARK    1  A    between atoms: C_2  and  C_3
REMARK    2  A    between atoms: C_3  and  C_4
REMARK    3  A    between atoms: C_8  and  N_9
REMARK    4  A    between atoms: N_9  and  C_10
REMARK    5  A    between atoms: C_10  and  C_11
REMARK    6  A    between atoms: C_15  and  C_16
REMARK                            x       y       z     vdW  Elec       q    Type
REMARK                         _______ _______ _______ _____ _____    ______ ____
ROOT
ATOM      1  C   UNL     1      49.402   8.023  12.697  0.00  0.00    +0.000 C 
ATOM      2  C   UNL     1      50.161   8.375  11.419  0.00  0.00    +0.000 C 
ATOM      3  C   UNL     1      49.804   9.458  12.373  0.00  0.00    +0.000 C 
ENDROOT
BRANCH   1   4
ATOM      4  C   UNL     1      47.889   7.778  12.635  0.00  0.00    +0.000 A 
ATOM      5  C   UNL     1      46.981   8.744  13.096  0.00  0.00    +0.000 A 
ATOM      6  C   UNL     1      45.605   8.605  12.891  0.00  0.00    +0.000 A 
ATOM      7  C   UNL     1      45.107   7.507  12.190  0.00  0.00    +0.000 A 
ATOM      8  C   UNL     1      45.964   6.512  11.710  0.00  0.00    +0.000 A 
ATOM      9  C   UNL     1      47.342   6.650  11.996  0.00  0.00    +0.000 A 
BRANCH   8  10
ATOM     10  C   UNL     1      45.485   5.399  10.861  0.00  0.00    +0.000 A 
ATOM     11  C   UNL     1      45.694   5.361   9.479  0.00  0.00    +0.000 A 
ATOM     12  C   UNL     1      45.312   4.237   8.723  0.00  0.00    +0.000 A 
ATOM     13  C   UNL     1      44.726   3.130   9.335  0.00  0.00    +0.000 A 
ATOM     14  C   UNL     1      44.492   3.158  10.699  0.00  0.00    +0.000 A 
ATOM     15  C   UNL     1      44.852   4.295  11.423  0.00  0.00    +0.000 A 
ENDBRANCH   8  10
ENDBRANCH   1   4
BRANCH   1  16
ATOM     16  N   UNL     1      50.118   7.290  13.768  0.00  0.00    +0.000 N 
ATOM     17  H   UNL     1      50.697   6.502  13.500  0.00  0.00    +0.000 HD
BRANCH  16  22
ATOM     18  C   UNL     1      48.464   6.102  16.898  0.00  0.00    +0.000 A 
ATOM     19  C   UNL     1      48.578   7.255  17.654  0.00  0.00    +0.000 A 
ATOM     20  N   UNL     1      49.175   8.381  17.204  0.00  0.00    +0.000 NA
ATOM     21  C   UNL     1      49.676   8.352  15.938  0.00  0.00    +0.000 A 
ATOM     22  C   UNL     1      49.650   7.243  15.095  0.00  0.00    +0.000 A 
ATOM     23  C   UNL     1      49.013   6.123  15.611  0.00  0.00    +0.000 A 
BRANCH  18  24
ATOM     24  C   UNL     1      47.740   4.868  17.355  0.00  0.00    +0.000 C 
BRANCH  24  26
ATOM     25  N   UNL     1      47.740   3.007  15.288  0.00  0.00    +0.000 NA
ATOM     26  C   UNL     1      47.740   3.851  16.226  0.00  0.00    +0.000 C 
ENDBRANCH  24  26
ENDBRANCH  18  24
ENDBRANCH  16  22
ENDBRANCH   1  16
TORSDOF 6
ENDMDL
