MODEL 1
REMARK VINA RESULT:    -8.278      0.000      0.000
REMARK INTER + INTRA:         -12.378
REMARK INTER:                 -11.181
REMARK INTRA:                  -1.197
REMARK UNBOUND:                -1.197
REMARK  Name = 
REMARK  7 active torsions:
REMARK  status: ('A' for Active; 'I' for Inactive)
REMARK    1  A    between atoms: C_1  and  C_2
REMARK    2  A    between atoms: C_6  and  C_7
REMARK    3  A    between atoms: C_7  and  N_8
REMARK    4  A    between atoms: N_8  and  C_9
REMARK    5  A    between atoms: C_12  and  C_13
REMARK    6  A    between atoms: C_13  and  N_14
REMARK    7  A    between atoms: C_15  and  C_17
REMARK                            x       y       z     vdW  Elec       q    Type
REMARK                         _______ _______ _______ _____ _____    ______ ____
ROOT
ATOM      1  C   UNL     1      44.949   4.780  10.861  0.00  0.00    +0.000 A 
ATOM      2  C   UNL     1      45.827   5.698  10.273  0.00  0.00    +0.000 A 
ATOM      3  C   UNL     1      46.472   6.677  11.038  0.00  0.00    +0.000 A 
ATOM      4  C   UNL     1      46.234   6.772  12.411  0.00  0.00    +0.000 A 
ATOM      5  C   UNL     1      45.303   5.901  12.990  0.00  0.00    +0.000 A 
ATOM      6  C   UNL     1      44.670   4.921  12.224  0.00  0.00    +0.000 A 
ENDROOT
BRANCH   1   7
ATOM      7  N   UNL     1      44.349   3.820  10.037  0.00  0.00    +0.000 N 
ATOM      8  H   UNL     1      44.637   2.885  10.316  0.00  0.00    +0.000 HD
BRANCH   7   9
ATOM      9  C   UNL     1      44.441   3.997   8.591  0.00  0.00    +0.000 C 
BRANCH   9  15
ATOM     10  C   UNL     1      47.675   2.593   5.003  0.00  0.00    +0.000 C 
ATOM     11  C   UNL     1      46.943   2.275   6.272  0.00  0.00    +0.000 A 
ATOM     12  C   UNL     1      47.139   1.061   6.937  0.00  0.00    +0.000 A 
ATOM     13  C   UNL     1      46.448   0.785   8.119  0.00  0.00    +0.000 A 
ATOM     14  C   UNL     1      45.558   1.721   8.649  0.00  0.00    +0.000 A 
ATOM     15  C   UNL     1      45.348   2.944   8.000  0.00  0.00    +0.000 A 
ATOM     16  C   UNL     1      46.052   3.210   6.814  0.00  0.00    +0.000 A 
ENDBRANCH   9  15
ENDBRANCH   7   9
ENDBRANCH   1   7
BRANCH   4  17
ATOM     17  C   UNL     1      46.921   7.813  13.252  0.00  0.00    +0.000 C 
BRANCH  17  18
ATOM     18  N   UNL     1      47.344   7.265  14.515  0.00  0.00    +0.000 N 
ATOM     19  C   UNL     1      48.616   6.778  14.674  0.00  0.00    +0.000 C 
ATOM     20  O   UNL     1      49.448   6.833  13.770  0.00  0.00    +0.000 OA
ATOM     21  H   UNL     1      46.625   7.028  15.192  0.00  0.00    +0.000 HD
BRANCH  19  22
ATOM     22  C   UNL     1      48.962   6.234  15.993  0.00  0.00    +0.000 A 
ATOM     23  C   UNL     1      49.912   6.885  16.767  0.00  0.00    +0.000 A 
ATOM     24  S   UNL     1      50.193   6.143  18.277  0.00  0.00    +0.000 S 
ATOM     25  C   UNL     1      49.084   4.900  17.931  0.00  0.00    +0.000 A 
ATOM     26  N   UNL     1      48.870   3.890  18.817  0.00  0.00    +0.000 NA
ATOM     27  C   UNL     1      48.026   3.000  18.416  0.00  0.00    +0.000 A 
ATOM     28  N   UNL     1      47.368   3.033  17.214  0.00  0.00    +0.000 N 
ATOM     29  C   UNL     1      47.528   4.049  16.301  0.00  0.00    +0.000 A 
ATOM     30  O   UNL     1      46.886   4.074  15.256  0.00  0.00    +0.000 OA
ATOM     31  C   UNL     1      48.486   5.065  16.693  0.00  0.00    +0.000 A 
ATOM     32  H   UNL     1      46.708   2.311  16.968  0.00  0.00    +0.000 HD
ENDBRANCH  19  22
ENDBRANCH  17  18
ENDBRANCH   4  17
TORSDOF 6
ENDMDL
MODEL 2
REMARK VINA RESULT:    -8.250      3.189      5.736
REMARK INTER + INTRA:         -12.340
REMARK INTER:                 -11.307
REMARK INTRA:                  -1.033
REMARK UNBOUND:                -1.197
REMARK  Name = 
REMARK  7 active torsions:
REMARK  status: ('A' for Active; 'I' for Inactive)
REMARK    1  A    between atoms: C_1  and  C_2
REMARK    2  A    between atoms: C_6  and  C_7
REMARK    3  A    between atoms: C_7  and  N_8
REMARK    4  A    between atoms: N_8  and  C_9
REMARK    5  A    between atoms: C_12  and  C_13
REMARK    6  A    between atoms: C_13  and  N_14
REMARK    7  A    between atoms: C_15  and  C_17
REMARK                            x       y       z     vdW  Elec       q    Type
REMARK                         _______ _______ _______ _____ _____    ______ ____
ROOT
ATOM      1  C   UNL     1      46.704   1.939   6.961  0.00  0.00    +0.000 A 
ATOM      2  C   UNL     1      46.176   1.190   8.020  0.00  0.00    +0.000 A 
ATOM      3  C   UNL     1      45.350   1.779   8.984  0.00  0.00    +0.000 A 
ATOM      4  C   UNL     1      45.052   3.143   8.922  0.00  0.00    +0.000 A 
ATOM      5  C   UNL     1      45.635   3.908   7.905  0.00  0.00    +0.000 A 
ATOM      6  C   UNL     1      46.450   3.314   6.940  0.00  0.00    +0.000 A 
ENDROOT
BRANCH   1   7
ATOM      7  N   UNL     1      47.511   1.281   6.026  0.00  0.00    +0.000 N 
ATOM      8  H   UNL     1      48.475   1.249   6.350  0.00  0.00    +0.000 HD
BRANCH   7   9
ATOM      9  C   UNL     1      47.431   1.699   4.629  0.00  0.00    +0.000 C 
BRANCH   9  15
ATOM     10  C   UNL     1      46.715  -3.205   3.763  0.00  0.00    +0.000 C 
ATOM     11  C   UNL     1      46.428  -1.779   3.401  0.00  0.00    +0.000 A 
ATOM     12  C   UNL     1      45.547  -1.457   2.364  0.00  0.00    +0.000 A 
ATOM     13  C   UNL     1      45.293  -0.122   2.043  0.00  0.00    +0.000 A 
ATOM     14  C   UNL     1      45.915   0.904   2.758  0.00  0.00    +0.000 A 
ATOM     15  C   UNL     1      46.799   0.605   3.800  0.00  0.00    +0.000 A 
ATOM     16  C   UNL     1      47.044  -0.743   4.115  0.00  0.00    +0.000 A 
ENDBRANCH   9  15
ENDBRANCH   7   9
ENDBRANCH   1   7
BRANCH   4  17
ATOM     17  C   UNL     1      44.163   3.795   9.945  0.00  0.00    +0.000 C 
BRANCH  17  18
ATOM     18  N   UNL     1      44.808   4.936  10.542  0.00  0.00    +0.000 N 
ATOM     19  C   UNL     1      44.083   5.852  11.259  0.00  0.00    +0.000 C 
ATOM     20  O   UNL     1      42.877   5.713  11.455  0.00  0.00    +0.000 OA
ATOM     21  H   UNL     1      45.743   5.170  10.222  0.00  0.00    +0.000 HD
BRANCH  19  22
ATOM     22  C   UNL     1      44.820   6.987  11.829  0.00  0.00    +0.000 A 
ATOM     23  C   UNL     1      44.484   8.276  11.442  0.00  0.00    +0.000 A 
ATOM     24  S   UNL     1      45.417   9.486  12.202  0.00  0.00    +0.000 S 
ATOM     25  C   UNL     1      46.332   8.324  13.044  0.00  0.00    +0.000 A 
ATOM     26  N   UNL     1      47.348   8.700  13.866  0.00  0.00    +0.000 NA
ATOM     27  C   UNL     1      47.977   7.718  14.418  0.00  0.00    +0.000 A 
ATOM     28  N   UNL     1      47.674   6.394  14.233  0.00  0.00    +0.000 N 
ATOM     29  C   UNL     1      46.637   5.968  13.437  0.00  0.00    +0.000 A 
ATOM     30  O   UNL     1      46.362   4.777  13.332  0.00  0.00    +0.000 OA
ATOM     31  C   UNL     1      45.912   7.033  12.772  0.00  0.00    +0.000 A 
ATOM     32  H   UNL     1      48.198   5.674  14.708  0.00  0.00    +0.000 HD
ENDBRANCH  19  22
ENDBRANCH  17  18
ENDBRANCH   4  17
TORSDOF 6
ENDMDL
MODEL 3
REMARK VINA RESULT:    -7.988      1.581      2.102
REMARK INTER + INTRA:         -11.986
REMARK INTER:                 -11.235
REMARK INTRA:                  -0.751
REMARK UNBOUND:                -1.197
REMARK  Name = 
REMARK  7 active torsions:
REMARK  status: ('A' for Active; 'I' for Inactive)
REMARK    1  A    between atoms: C_1  and  C_2
REMARK    2  A    between atoms: C_6  and  C_7
REMARK    3  A    between atoms: C_7  and  N_8
REMARK    4  A    between atoms: N_8  and  C_9
REMARK    5  A    between atoms: C_12  and  C_13
REMARK    6  A    between atoms: C_13  and  N_14
REMARK    7  A    between atoms: C_15  and  C_17
REMARK                            x       y       z     vdW  Elec       q    Type
REMARK                         _______ _______ _______ _____ _____    ______ ____
ROOT
ATOM      1  C   UNL     1      45.017   4.934  11.428  0.00  0.00    +0.000 A 
ATOM      2  C   UNL     1      45.585   6.155  11.045  0.00  0.00    +0.000 A 
ATOM      3  C   UNL     1      46.673   6.697  11.738  0.00  0.00    +0.000 A 
ATOM      4  C   UNL     1      47.205   6.037  12.848  0.00  0.00    +0.000 A 
ATOM      5  C   UNL     1      46.596   4.852  13.276  0.00  0.00    +0.000 A 
ATOM      6  C   UNL     1      45.516   4.310  12.576  0.00  0.00    +0.000 A 
ENDROOT
BRANCH   1   7
ATOM      7  N   UNL     1      43.939   4.444  10.681  0.00  0.00    +0.000 N 
ATOM      8  H   UNL     1      43.061   4.640  11.156  0.00  0.00    +0.000 HD
BRANCH   7   9
ATOM      9  C   UNL     1      43.995   3.063  10.211  0.00  0.00    +0.000 C 
BRANCH   9  15
ATOM     10  C   UNL     1      47.043   0.165   7.452  0.00  0.00    +0.000 C 
ATOM     11  C   UNL     1      46.477   1.521   7.748  0.00  0.00    +0.000 A 
ATOM     12  C   UNL     1      46.832   2.637   6.985  0.00  0.00    +0.000 A 
ATOM     13  C   UNL     1      46.292   3.891   7.277  0.00  0.00    +0.000 A 
ATOM     14  C   UNL     1      45.389   4.041   8.332  0.00  0.00    +0.000 A 
ATOM     15  C   UNL     1      45.019   2.936   9.108  0.00  0.00    +0.000 A 
ATOM     16  C   UNL     1      45.568   1.680   8.801  0.00  0.00    +0.000 A 
ENDBRANCH   9  15
ENDBRANCH   7   9
ENDBRANCH   1   7
BRANCH   4  17
ATOM     17  C   UNL     1      48.377   6.601  13.604  0.00  0.00    +0.000 C 
BRANCH  17  18
ATOM     18  N   UNL     1      48.091   6.695  15.012  0.00  0.00    +0.000 N 
ATOM     19  C   UNL     1      49.101   6.627  15.937  0.00  0.00    +0.000 C 
ATOM     20  O   UNL     1      50.280   6.529  15.602  0.00  0.00    +0.000 OA
ATOM     21  H   UNL     1      47.127   6.571  15.307  0.00  0.00    +0.000 HD
BRANCH  19  22
ATOM     22  C   UNL     1      48.718   6.728  17.351  0.00  0.00    +0.000 A 
ATOM     23  C   UNL     1      48.384   7.968  17.875  0.00  0.00    +0.000 A 
ATOM     24  S   UNL     1      47.947   7.922  19.523  0.00  0.00    +0.000 S 
ATOM     25  C   UNL     1      48.231   6.246  19.605  0.00  0.00    +0.000 A 
ATOM     26  N   UNL     1      48.075   5.569  20.774  0.00  0.00    +0.000 NA
ATOM     27  C   UNL     1      48.351   4.310  20.702  0.00  0.00    +0.000 A 
ATOM     28  N   UNL     1      48.759   3.665  19.563  0.00  0.00    +0.000 N 
ATOM     29  C   UNL     1      48.901   4.301  18.352  0.00  0.00    +0.000 A 
ATOM     30  O   UNL     1      49.219   3.684  17.341  0.00  0.00    +0.000 OA
ATOM     31  C   UNL     1      48.625   5.725  18.384  0.00  0.00    +0.000 A 
ATOM     32  H   UNL     1      48.945   2.673  19.572  0.00  0.00    +0.000 HD
ENDBRANCH  19  22
ENDBRANCH  17  18
ENDBRANCH   4  17
TORSDOF 6
ENDMDL
MODEL 4
REMARK VINA RESULT:    -7.800      2.110      2.780
REMARK INTER + INTRA:         -11.732
REMARK INTER:                 -10.966
REMARK INTRA:                  -0.766
REMARK UNBOUND:                -1.197
REMARK  Name = 
REMARK  7 active torsions:
REMARK  status: ('A' for Active; 'I' for Inactive)
REMARK    1  A    between atoms: C_1  and  C_2
REMARK    2  A    between atoms: C_6  and  C_7
REMARK    3  A    between atoms: C_7  and  N_8
REMARK    4  A    between atoms: N_8  and  C_9
REMARK    5  A    between atoms: C_12  and  C_13
REMARK    6  A    between atoms: C_13  and  N_14
REMARK    7  A    between atoms: C_15  and  C_17
REMARK                            x       y       z     vdW  Elec       q    Type
REMARK                         _______ _______ _______ _____ _____    ______ ____
ROOT
ATOM      1  C   UNL     1      45.015   5.054  11.452  0.00  0.00    +0.000 A 
ATOM      2  C   UNL     1      45.705   6.202  11.045  0.00  0.00    +0.000 A 
ATOM      3  C   UNL     1      46.739   6.739  11.820  0.00  0.00    +0.000 A 
ATOM      4  C   UNL     1      47.090   6.150  13.037  0.00  0.00    +0.000 A 
ATOM      5  C   UNL     1      46.355   5.044  13.480  0.00  0.00    +0.000 A 
ATOM      6  C   UNL     1      45.331   4.506  12.699  0.00  0.00    +0.000 A 
ENDROOT
BRANCH   1   7
ATOM      7  N   UNL     1      44.001   4.564  10.620  0.00  0.00    +0.000 N 
ATOM      8  H   UNL     1      43.087   4.795  11.001  0.00  0.00    +0.000 HD
BRANCH   7   9
ATOM      9  C   UNL     1      44.066   3.167  10.200  0.00  0.00    +0.000 C 
BRANCH   9  15
ATOM     10  C   UNL     1      47.020   0.176   7.437  0.00  0.00    +0.000 C 
ATOM     11  C   UNL     1      46.496   1.549   7.734  0.00  0.00    +0.000 A 
ATOM     12  C   UNL     1      46.885   2.655   6.971  0.00  0.00    +0.000 A 
ATOM     13  C   UNL     1      46.384   3.925   7.263  0.00  0.00    +0.000 A 
ATOM     14  C   UNL     1      45.488   4.102   8.320  0.00  0.00    +0.000 A 
ATOM     15  C   UNL     1      45.085   3.009   9.096  0.00  0.00    +0.000 A 
ATOM     16  C   UNL     1      45.593   1.736   8.789  0.00  0.00    +0.000 A 
ENDBRANCH   9  15
ENDBRANCH   7   9
ENDBRANCH   1   7
BRANCH   4  17
ATOM     17  C   UNL     1      48.201   6.709  13.883  0.00  0.00    +0.000 C 
BRANCH  17  18
ATOM     18  N   UNL     1      48.026   6.357  15.269  0.00  0.00    +0.000 N 
ATOM     19  C   UNL     1      49.105   6.287  16.113  0.00  0.00    +0.000 C 
ATOM     20  O   UNL     1      50.241   6.564  15.736  0.00  0.00    +0.000 OA
ATOM     21  H   UNL     1      47.144   5.934  15.540  0.00  0.00    +0.000 HD
BRANCH  19  22
ATOM     22  C   UNL     1      48.836   5.917  17.508  0.00  0.00    +0.000 A 
ATOM     23  C   UNL     1      49.044   4.607  17.914  0.00  0.00    +0.000 A 
ATOM     24  S   UNL     1      48.704   4.336  19.564  0.00  0.00    +0.000 S 
ATOM     25  C   UNL     1      48.225   5.954  19.783  0.00  0.00    +0.000 A 
ATOM     26  N   UNL     1      47.774   6.389  20.991  0.00  0.00    +0.000 NA
ATOM     27  C   UNL     1      47.417   7.629  21.010  0.00  0.00    +0.000 A 
ATOM     28  N   UNL     1      47.480   8.477  19.935  0.00  0.00    +0.000 N 
ATOM     29  C   UNL     1      47.958   8.091  18.704  0.00  0.00    +0.000 A 
ATOM     30  O   UNL     1      48.048   8.888  17.777  0.00  0.00    +0.000 OA
ATOM     31  C   UNL     1      48.351   6.697  18.622  0.00  0.00    +0.000 A 
ATOM     32  H   UNL     1      47.198   9.442  20.022  0.00  0.00    +0.000 HD
ENDBRANCH  19  22
ENDBRANCH  17  18
ENDBRANCH   4  17
TORSDOF 6
ENDMDL
MODEL 5
REMARK VINA RESULT:    -7.655      2.652      4.265
REMARK INTER + INTRA:         -11.537
REMARK INTER:                 -10.697
REMARK INTRA:                  -0.841
REMARK UNBOUND:                -1.197
REMARK  Name = 
REMARK  7 active torsions:
REMARK  status: ('A' for Active; 'I' for Inactive)
REMARK    1  A    between atoms: C_1  and  C_2
REMARK    2  A    between atoms: C_6  and  C_7
REMARK    3  A    between atoms: C_7  and  N_8
REMARK    4  A    between atoms: N_8  and  C_9
REMARK    5  A    between atoms: C_12  and  C_13
REMARK    6  A    between atoms: C_13  and  N_14
REMARK    7  A    between atoms: C_15  and  C_17
REMARK                            x       y       z     vdW  Elec       q    Type
REMARK                         _______ _______ _______ _____ _____    ______ ____
ROOT
ATOM      1  C   UNL     1      46.249   2.140   7.745  0.00  0.00    +0.000 A 
ATOM      2  C   UNL     1      45.599   1.752   8.923  0.00  0.00    +0.000 A 
ATOM      3  C   UNL     1      44.985   2.695   9.755  0.00  0.00    +0.000 A 
ATOM      4  C   UNL     1      45.028   4.054   9.437  0.00  0.00    +0.000 A 
ATOM      5  C   UNL     1      45.737   4.452   8.298  0.00  0.00    +0.000 A 
ATOM      6  C   UNL     1      46.340   3.507   7.465  0.00  0.00    +0.000 A 
ENDROOT
BRANCH   1   7
ATOM      7  N   UNL     1      46.830   1.142   6.953  0.00  0.00    +0.000 N 
ATOM      8  H   UNL     1      47.408   0.529   7.524  0.00  0.00    +0.000 HD
BRANCH   7   9
ATOM      9  C   UNL     1      47.523   1.544   5.733  0.00  0.00    +0.000 C 
BRANCH   9  15
ATOM     10  C   UNL     1      46.693  -2.814   3.362  0.00  0.00    +0.000 C 
ATOM     11  C   UNL     1      46.526  -1.325   3.414  0.00  0.00    +0.000 A 
ATOM     12  C   UNL     1      45.806  -0.641   2.429  0.00  0.00    +0.000 A 
ATOM     13  C   UNL     1      45.661   0.745   2.497  0.00  0.00    +0.000 A 
ATOM     14  C   UNL     1      46.231   1.462   3.552  0.00  0.00    +0.000 A 
ATOM     15  C   UNL     1      46.954   0.797   4.549  0.00  0.00    +0.000 A 
ATOM     16  C   UNL     1      47.090  -0.598   4.470  0.00  0.00    +0.000 A 
ENDBRANCH   9  15
ENDBRANCH   7   9
ENDBRANCH   1   7
BRANCH   4  17
ATOM     17  C   UNL     1      44.370   5.083  10.316  0.00  0.00    +0.000 C 
BRANCH  17  18
ATOM     18  N   UNL     1      45.115   5.279  11.533  0.00  0.00    +0.000 N 
ATOM     19  C   UNL     1      46.235   6.071  11.547  0.00  0.00    +0.000 C 
ATOM     20  O   UNL     1      46.614   6.673  10.545  0.00  0.00    +0.000 OA
ATOM     21  H   UNL     1      44.939   4.639  12.302  0.00  0.00    +0.000 HD
BRANCH  19  22
ATOM     22  C   UNL     1      46.935   6.212  12.830  0.00  0.00    +0.000 A 
ATOM     23  C   UNL     1      47.518   7.428  13.153  0.00  0.00    +0.000 A 
ATOM     24  S   UNL     1      48.279   7.442  14.680  0.00  0.00    +0.000 S 
ATOM     25  C   UNL     1      47.891   5.806  14.945  0.00  0.00    +0.000 A 
ATOM     26  N   UNL     1      48.290   5.171  16.079  0.00  0.00    +0.000 NA
ATOM     27  C   UNL     1      47.954   3.926  16.138  0.00  0.00    +0.000 A 
ATOM     28  N   UNL     1      47.244   3.263  15.172  0.00  0.00    +0.000 N 
ATOM     29  C   UNL     1      46.792   3.871  14.024  0.00  0.00    +0.000 A 
ATOM     30  O   UNL     1      46.117   3.260  13.202  0.00  0.00    +0.000 OA
ATOM     31  C   UNL     1      47.165   5.267  13.896  0.00  0.00    +0.000 A 
ATOM     32  H   UNL     1      47.000   2.290  15.287  0.00  0.00    +0.000 HD
ENDBRANCH  19  22
ENDBRANCH  17  18
ENDBRANCH   4  17
TORSDOF 6
ENDMDL
MODEL 6
REMARK VINA RESULT:    -7.652      1.214      1.676
REMARK INTER + INTRA:         -11.532
REMARK INTER:                 -10.373
REMARK INTRA:                  -1.159
REMARK UNBOUND:                -1.197
REMARK  Name = 
REMARK  7 active torsions:
REMARK  status: ('A' for Active; 'I' for Inactive)
REMARK    1  A    between atoms: C_1  and  C_2
REMARK    2  A    between atoms: C_6  and  C_7
REMARK    3  A    between atoms: C_7  and  N_8
REMARK    4  A    between atoms: N_8  and  C_9
REMARK    5  A    between atoms: C_12  and  C_13
REMARK    6  A    between atoms: C_13  and  N_14
REMARK    7  A    between atoms: C_15  and  C_17
REMARK                            x       y       z     vdW  Elec       q    Type
REMARK                         _______ _______ _______ _____ _____    ______ ____
ROOT
ATOM      1  C   UNL     1      44.995   6.802  11.253  0.00  0.00    +0.000 A 
ATOM      2  C   UNL     1      46.239   6.198  11.472  0.00  0.00    +0.000 A 
ATOM      3  C   UNL     1      47.158   6.738  12.378  0.00  0.00    +0.000 A 
ATOM      4  C   UNL     1      46.859   7.913  13.073  0.00  0.00    +0.000 A 
ATOM      5  C   UNL     1      45.645   8.557  12.804  0.00  0.00    +0.000 A 
ATOM      6  C   UNL     1      44.728   8.009  11.906  0.00  0.00    +0.000 A 
ENDROOT
BRANCH   1   7
ATOM      7  N   UNL     1      44.120   6.198  10.341  0.00  0.00    +0.000 N 
ATOM      8  H   UNL     1      43.350   6.826  10.122  0.00  0.00    +0.000 HD
BRANCH   7   9
ATOM      9  C   UNL     1      43.644   4.849  10.631  0.00  0.00    +0.000 C 
BRANCH   9  15
ATOM     10  C   UNL     1      46.724   3.934   6.760  0.00  0.00    +0.000 C 
ATOM     11  C   UNL     1      45.861   3.412   7.869  0.00  0.00    +0.000 A 
ATOM     12  C   UNL     1      45.747   2.041   8.115  0.00  0.00    +0.000 A 
ATOM     13  C   UNL     1      44.939   1.575   9.154  0.00  0.00    +0.000 A 
ATOM     14  C   UNL     1      44.238   2.477   9.959  0.00  0.00    +0.000 A 
ATOM     15  C   UNL     1      44.339   3.854   9.731  0.00  0.00    +0.000 A 
ATOM     16  C   UNL     1      45.158   4.309   8.684  0.00  0.00    +0.000 A 
ENDBRANCH   9  15
ENDBRANCH   7   9
ENDBRANCH   1   7
BRANCH   4  17
ATOM     17  C   UNL     1      47.830   8.508  14.055  0.00  0.00    +0.000 C 
BRANCH  17  18
ATOM     18  N   UNL     1      48.022   7.639  15.187  0.00  0.00    +0.000 N 
ATOM     19  C   UNL     1      49.197   6.951  15.349  0.00  0.00    +0.000 C 
ATOM     20  O   UNL     1      50.137   7.083  14.568  0.00  0.00    +0.000 OA
ATOM     21  H   UNL     1      47.199   7.365  15.716  0.00  0.00    +0.000 HD
BRANCH  19  22
ATOM     22  C   UNL     1      49.305   6.084  16.529  0.00  0.00    +0.000 A 
ATOM     23  C   UNL     1      50.294   6.339  17.468  0.00  0.00    +0.000 A 
ATOM     24  S   UNL     1      50.282   5.259  18.789  0.00  0.00    +0.000 S 
ATOM     25  C   UNL     1      48.979   4.385  18.128  0.00  0.00    +0.000 A 
ATOM     26  N   UNL     1      48.487   3.286  18.760  0.00  0.00    +0.000 NA
ATOM     27  C   UNL     1      47.519   2.702  18.136  0.00  0.00    +0.000 A 
ATOM     28  N   UNL     1      46.992   3.125  16.944  0.00  0.00    +0.000 N 
ATOM     29  C   UNL     1      47.436   4.248  16.285  0.00  0.00    +0.000 A 
ATOM     30  O   UNL     1      46.908   4.627  15.244  0.00  0.00    +0.000 OA
ATOM     31  C   UNL     1      48.541   4.929  16.933  0.00  0.00    +0.000 A 
ATOM     32  H   UNL     1      46.223   2.630  16.515  0.00  0.00    +0.000 HD
ENDBRANCH  19  22
ENDBRANCH  17  18
ENDBRANCH   4  17
TORSDOF 6
ENDMDL
MODEL 7
REMARK VINA RESULT:    -7.580      4.210      6.326
REMARK INTER + INTRA:         -11.435
REMARK INTER:                 -10.385
REMARK INTRA:                  -1.050
REMARK UNBOUND:                -1.197
REMARK  Name = 
REMARK  7 active torsions:
REMARK  status: ('A' for Active; 'I' for Inactive)
REMARK    1  A    between atoms: C_1  and  C_2
REMARK    2  A    between atoms: C_6  and  C_7
REMARK    3  A    between atoms: C_7  and  N_8
REMARK    4  A    between atoms: N_8  and  C_9
REMARK    5  A    between atoms: C_12  and  C_13
REMARK    6  A    between atoms: C_13  and  N_14
REMARK    7  A    between atoms: C_15  and  C_17
REMARK                            x       y       z     vdW  Elec       q    Type
REMARK                         _______ _______ _______ _____ _____    ______ ____
ROOT
ATOM      1  C   UNL     1      46.080   2.215   7.997  0.00  0.00    +0.000 A 
ATOM      2  C   UNL     1      45.253   1.723   9.014  0.00  0.00    +0.000 A 
ATOM      3  C   UNL     1      44.454   2.582   9.777  0.00  0.00    +0.000 A 
ATOM      4  C   UNL     1      44.481   3.960   9.553  0.00  0.00    +0.000 A 
ATOM      5  C   UNL     1      45.359   4.462   8.585  0.00  0.00    +0.000 A 
ATOM      6  C   UNL     1      46.147   3.601   7.819  0.00  0.00    +0.000 A 
ENDROOT
BRANCH   1   7
ATOM      7  N   UNL     1      46.842   1.297   7.264  0.00  0.00    +0.000 N 
ATOM      8  H   UNL     1      47.487   0.803   7.877  0.00  0.00    +0.000 HD
BRANCH   7   9
ATOM      9  C   UNL     1      47.510   1.765   6.053  0.00  0.00    +0.000 C 
BRANCH   9  15
ATOM     10  C   UNL     1      46.758  -2.678   3.817  0.00  0.00    +0.000 C 
ATOM     11  C   UNL     1      46.629  -1.185   3.788  0.00  0.00    +0.000 A 
ATOM     12  C   UNL     1      46.014  -0.530   2.717  0.00  0.00    +0.000 A 
ATOM     13  C   UNL     1      45.903   0.861   2.710  0.00  0.00    +0.000 A 
ATOM     14  C   UNL     1      46.403   1.613   3.776  0.00  0.00    +0.000 A 
ATOM     15  C   UNL     1      47.022   0.978   4.860  0.00  0.00    +0.000 A 
ATOM     16  C   UNL     1      47.124  -0.423   4.855  0.00  0.00    +0.000 A 
ENDBRANCH   9  15
ENDBRANCH   7   9
ENDBRANCH   1   7
BRANCH   4  17
ATOM     17  C   UNL     1      43.627   4.899  10.359  0.00  0.00    +0.000 C 
BRANCH  17  18
ATOM     18  N   UNL     1      44.313   6.140  10.611  0.00  0.00    +0.000 N 
ATOM     19  C   UNL     1      44.680   6.489  11.886  0.00  0.00    +0.000 C 
ATOM     20  O   UNL     1      44.481   5.745  12.843  0.00  0.00    +0.000 OA
ATOM     21  H   UNL     1      44.301   6.843   9.879  0.00  0.00    +0.000 HD
BRANCH  19  22
ATOM     22  C   UNL     1      45.372   7.773  12.052  0.00  0.00    +0.000 A 
ATOM     23  C   UNL     1      46.603   7.802  12.691  0.00  0.00    +0.000 A 
ATOM     24  S   UNL     1      47.289   9.361  12.793  0.00  0.00    +0.000 S 
ATOM     25  C   UNL     1      45.941  10.059  12.022  0.00  0.00    +0.000 A 
ATOM     26  N   UNL     1      45.872  11.403  11.823  0.00  0.00    +0.000 NA
ATOM     27  C   UNL     1      44.784  11.802  11.254  0.00  0.00    +0.000 A 
ATOM     28  N   UNL     1      43.764  10.977  10.857  0.00  0.00    +0.000 N 
ATOM     29  C   UNL     1      43.803   9.610  11.009  0.00  0.00    +0.000 A 
ATOM     30  O   UNL     1      42.894   8.897  10.597  0.00  0.00    +0.000 OA
ATOM     31  C   UNL     1      44.996   9.112  11.666  0.00  0.00    +0.000 A 
ATOM     32  H   UNL     1      42.945  11.353  10.403  0.00  0.00    +0.000 HD
ENDBRANCH  19  22
ENDBRANCH  17  18
ENDBRANCH   4  17
TORSDOF 6
ENDMDL
MODEL 8
REMARK VINA RESULT:    -7.186      2.435      4.271
REMARK INTER + INTRA:         -10.903
REMARK INTER:                  -9.890
REMARK INTRA:                  -1.013
REMARK UNBOUND:                -1.197
REMARK  Name = 
REMARK  7 active torsions:
REMARK  status: ('A' for Active; 'I' for Inactive)
REMARK    1  A    between atoms: C_1  and  C_2
REMARK    2  A    between atoms: C_6  and  C_7
REMARK    3  A    between atoms: C_7  and  N_8
REMARK    4  A    between atoms: N_8  and  C_9
REMARK    5  A    between atoms: C_12  and  C_13
REMARK    6  A    between atoms: C_13  and  N_14
REMARK    7  A    between atoms: C_15  and  C_17
REMARK                            x       y       z     vdW  Elec       q    Type
REMARK                         _______ _______ _______ _____ _____    ______ ____
ROOT
ATOM      1  C   UNL     1      45.220   5.117  10.946  0.00  0.00    +0.000 A 
ATOM      2  C   UNL     1      46.155   6.151  11.077  0.00  0.00    +0.000 A 
ATOM      3  C   UNL     1      46.925   6.289  12.238  0.00  0.00    +0.000 A 
ATOM      4  C   UNL     1      46.759   5.405  13.306  0.00  0.00    +0.000 A 
ATOM      5  C   UNL     1      45.776   4.413  13.206  0.00  0.00    +0.000 A 
ATOM      6  C   UNL     1      45.017   4.273  12.043  0.00  0.00    +0.000 A 
ENDROOT
BRANCH   1   7
ATOM      7  N   UNL     1      44.495   5.031   9.752  0.00  0.00    +0.000 N 
ATOM      8  H   UNL     1      43.677   5.635   9.790  0.00  0.00    +0.000 HD
BRANCH   7   9
ATOM      9  C   UNL     1      44.155   3.705   9.243  0.00  0.00    +0.000 C 
BRANCH   9  15
ATOM     10  C   UNL     1      46.796  -0.294   7.713  0.00  0.00    +0.000 C 
ATOM     11  C   UNL     1      46.585   1.190   7.700  0.00  0.00    +0.000 A 
ATOM     12  C   UNL     1      47.401   2.033   6.940  0.00  0.00    +0.000 A 
ATOM     13  C   UNL     1      47.186   3.413   6.941  0.00  0.00    +0.000 A 
ATOM     14  C   UNL     1      46.151   3.964   7.700  0.00  0.00    +0.000 A 
ATOM     15  C   UNL     1      45.321   3.138   8.468  0.00  0.00    +0.000 A 
ATOM     16  C   UNL     1      45.546   1.752   8.455  0.00  0.00    +0.000 A 
ENDBRANCH   9  15
ENDBRANCH   7   9
ENDBRANCH   1   7
BRANCH   4  17
ATOM     17  C   UNL     1      47.579   5.533  14.561  0.00  0.00    +0.000 C 
BRANCH  17  18
ATOM     18  N   UNL     1      47.876   6.913  14.848  0.00  0.00    +0.000 N 
ATOM     19  C   UNL     1      49.107   7.277  15.330  0.00  0.00    +0.000 C 
ATOM     20  O   UNL     1      50.009   6.456  15.489  0.00  0.00    +0.000 OA
ATOM     21  H   UNL     1      47.095   7.559  14.917  0.00  0.00    +0.000 HD
BRANCH  19  22
ATOM     22  C   UNL     1      49.322   8.704  15.600  0.00  0.00    +0.000 A 
ATOM     23  C   UNL     1      49.879   9.088  16.810  0.00  0.00    +0.000 A 
ATOM     24  S   UNL     1      50.082  10.775  16.969  0.00  0.00    +0.000 S 
ATOM     25  C   UNL     1      49.391  11.053  15.439  0.00  0.00    +0.000 A 
ATOM     26  N   UNL     1      49.230  12.319  14.967  0.00  0.00    +0.000 NA
ATOM     27  C   UNL     1      48.668  12.388  13.808  0.00  0.00    +0.000 A 
ATOM     28  N   UNL     1      48.262  11.305  13.072  0.00  0.00    +0.000 N 
ATOM     29  C   UNL     1      48.432  10.007  13.493  0.00  0.00    +0.000 A 
ATOM     30  O   UNL     1      48.102   9.059  12.788  0.00  0.00    +0.000 OA
ATOM     31  C   UNL     1      49.039   9.874  14.804  0.00  0.00    +0.000 A 
ATOM     32  H   UNL     1      47.841  11.428  12.163  0.00  0.00    +0.000 HD
ENDBRANCH  19  22
ENDBRANCH  17  18
ENDBRANCH   4  17
TORSDOF 6
ENDMDL
MODEL 9
REMARK VINA RESULT:    -7.131      2.553      3.423
REMARK INTER + INTRA:         -10.829
REMARK INTER:                  -9.599
REMARK INTRA:                  -1.230
REMARK UNBOUND:                -1.197
REMARK  Name = 
REMARK  7 active torsions:
REMARK  status: ('A' for Active; 'I' for Inactive)
REMARK    1  A    between atoms: C_1  and  C_2
REMARK    2  A    between atoms: C_6  and  C_7
REMARK    3  A    between atoms: C_7  and  N_8
REMARK    4  A    between atoms: N_8  and  C_9
REMARK    5  A    between atoms: C_12  and  C_13
REMARK    6  A    between atoms: C_13  and  N_14
REMARK    7  A    between atoms: C_15  and  C_17
REMARK                            x       y       z     vdW  Elec       q    Type
REMARK                         _______ _______ _______ _____ _____    ______ ____
ROOT
ATOM      1  C   UNL     1      44.940   5.264  12.298  0.00  0.00    +0.000 A 
ATOM      2  C   UNL     1      45.705   4.411  13.103  0.00  0.00    +0.000 A 
ATOM      3  C   UNL     1      46.840   4.876  13.777  0.00  0.00    +0.000 A 
ATOM      4  C   UNL     1      47.248   6.205  13.643  0.00  0.00    +0.000 A 
ATOM      5  C   UNL     1      46.525   7.042  12.785  0.00  0.00    +0.000 A 
ATOM      6  C   UNL     1      45.389   6.576  12.121  0.00  0.00    +0.000 A 
ENDROOT
BRANCH   1   7
ATOM      7  N   UNL     1      43.810   4.734  11.664  0.00  0.00    +0.000 N 
ATOM      8  H   UNL     1      43.700   3.750  11.900  0.00  0.00    +0.000 HD
BRANCH   7   9
ATOM      9  C   UNL     1      43.653   4.960  10.230  0.00  0.00    +0.000 C 
BRANCH   9  15
ATOM     10  C   UNL     1      46.891   3.713   6.588  0.00  0.00    +0.000 C 
ATOM     11  C   UNL     1      45.988   3.290   7.707  0.00  0.00    +0.000 A 
ATOM     12  C   UNL     1      45.875   1.947   8.080  0.00  0.00    +0.000 A 
ATOM     13  C   UNL     1      45.030   1.574   9.127  0.00  0.00    +0.000 A 
ATOM     14  C   UNL     1      44.292   2.541   9.814  0.00  0.00    +0.000 A 
ATOM     15  C   UNL     1      44.391   3.891   9.458  0.00  0.00    +0.000 A 
ATOM     16  C   UNL     1      45.248   4.252   8.405  0.00  0.00    +0.000 A 
ENDBRANCH   9  15
ENDBRANCH   7   9
ENDBRANCH   1   7
BRANCH   4  17
ATOM     17  C   UNL     1      48.461   6.726  14.363  0.00  0.00    +0.000 C 
BRANCH  17  18
ATOM     18  N   UNL     1      48.183   6.946  15.759  0.00  0.00    +0.000 N 
ATOM     19  C   UNL     1      48.820   6.208  16.723  0.00  0.00    +0.000 C 
ATOM     20  O   UNL     1      49.676   5.373  16.439  0.00  0.00    +0.000 OA
ATOM     21  H   UNL     1      47.348   7.474  15.996  0.00  0.00    +0.000 HD
BRANCH  19  22
ATOM     22  C   UNL     1      48.473   6.496  18.120  0.00  0.00    +0.000 A 
ATOM     23  C   UNL     1      48.197   5.443  18.981  0.00  0.00    +0.000 A 
ATOM     24  S   UNL     1      47.827   5.935  20.572  0.00  0.00    +0.000 S 
ATOM     25  C   UNL     1      47.981   7.578  20.155  0.00  0.00    +0.000 A 
ATOM     26  N   UNL     1      47.755   8.554  21.075  0.00  0.00    +0.000 NA
ATOM     27  C   UNL     1      47.879   9.755  20.618  0.00  0.00    +0.000 A 
ATOM     28  N   UNL     1      48.219  10.068  19.328  0.00  0.00    +0.000 N 
ATOM     29  C   UNL     1      48.488   9.116  18.372  0.00  0.00    +0.000 A 
ATOM     30  O   UNL     1      48.839   9.431  17.240  0.00  0.00    +0.000 OA
ATOM     31  C   UNL     1      48.339   7.747  18.828  0.00  0.00    +0.000 A 
ATOM     32  H   UNL     1      48.314  11.030  19.039  0.00  0.00    +0.000 HD
ENDBRANCH  19  22
ENDBRANCH  17  18
ENDBRANCH   4  17
TORSDOF 6
ENDMDL
