MODEL 1
REMARK VINA RESULT:    -7.522      0.000      0.000
REMARK INTER + INTRA:         -10.361
REMARK INTER:                  -9.721
REMARK INTRA:                  -0.640
REMARK UNBOUND:                -0.640
REMARK  Name = 
REMARK  5 active torsions:
REMARK  status: ('A' for Active; 'I' for Inactive)
REMARK    1  A    between atoms: C_2  and  C_4
REMARK    2  A    between atoms: C_8  and  N_9
REMARK    3  A    between atoms: N_9  and  C_10
REMARK    4  A    between atoms: C_10  and  C_11
REMARK    5  A    between atoms: C_16  and  N_17
REMARK                            x       y       z     vdW  Elec       q    Type
REMARK                         _______ _______ _______ _____ _____    ______ ____
ROOT
ATOM      1  C   UNL     1      43.787   4.985  10.666  0.00  0.00    +0.000 C 
ENDROOT
BRANCH   1   2
ATOM      2  C   UNL     1      44.670   5.936  11.438  0.00  0.00    +0.000 A 
ATOM      3  C   UNL     1      44.451   7.314  11.383  0.00  0.00    +0.000 A 
ATOM      4  C   UNL     1      45.196   8.164  12.194  0.00  0.00    +0.000 A 
ATOM      5  C   UNL     1      46.158   7.639  13.062  0.00  0.00    +0.000 A 
ATOM      6  F   UNL     1      46.771   8.510  13.879  0.00  0.00    +0.000 F 
ATOM      7  C   UNL     1      46.436   6.259  13.139  0.00  0.00    +0.000 A 
ATOM      8  C   UNL     1      45.684   5.437  12.278  0.00  0.00    +0.000 A 
BRANCH   7   9
ATOM      9  N   UNL     1      47.362   5.707  14.012  0.00  0.00    +0.000 N 
ATOM     10  C   UNL     1      47.145   4.408  14.655  0.00  0.00    +0.000 C 
ATOM     11  C   UNL     1      47.212   4.561  16.175  0.00  0.00    +0.000 C 
ATOM     12  C   UNL     1      48.487   5.271  16.623  0.00  0.00    +0.000 C 
ATOM     13  C   UNL     1      48.662   6.598  15.884  0.00  0.00    +0.000 C 
ATOM     14  C   UNL     1      48.606   6.391  14.372  0.00  0.00    +0.000 C 
ENDBRANCH   7   9
ENDBRANCH   1   2
BRANCH   1  15
ATOM     15  N   UNL     1      44.188   4.902   9.269  0.00  0.00    +0.000 N 
ATOM     16  H   UNL     1      44.686   5.738   8.966  0.00  0.00    +0.000 HD
BRANCH  15  21
ATOM     17  C   UNL     1      46.365   2.612   7.305  0.00  0.00    +0.000 A 
ATOM     18  C   UNL     1      46.112   1.380   7.915  0.00  0.00    +0.000 A 
ATOM     19  C   UNL     1      45.205   1.310   8.966  0.00  0.00    +0.000 A 
ATOM     20  C   UNL     1      44.571   2.468   9.421  0.00  0.00    +0.000 A 
ATOM     21  C   UNL     1      44.851   3.726   8.868  0.00  0.00    +0.000 A 
ATOM     22  C   UNL     1      45.733   3.774   7.778  0.00  0.00    +0.000 A 
BRANCH  17  24
ATOM     23  N   UNL     1      48.653   2.743   6.470  0.00  0.00    +0.000 N 
ATOM     24  C   UNL     1      47.318   2.730   6.170  0.00  0.00    +0.000 C 
ATOM     25  O   UNL     1      46.933   2.788   5.010  0.00  0.00    +0.000 OA
ATOM     26  H   UNL     1      49.286   2.722   5.682  0.00  0.00    +0.000 HD
ATOM     27  H   UNL     1      49.009   2.447   7.367  0.00  0.00    +0.000 HD
ENDBRANCH  17  24
ENDBRANCH  15  21
ENDBRANCH   1  15
TORSDOF 5
ENDMDL
MODEL 2
REMARK VINA RESULT:    -7.381      1.449      2.094
REMARK INTER + INTRA:         -10.179
REMARK INTER:                  -9.553
REMARK INTRA:                  -0.626
REMARK UNBOUND:                -0.640
REMARK  Name = 
REMARK  5 active torsions:
REMARK  status: ('A' for Active; 'I' for Inactive)
REMARK    1  A    between atoms: C_2  and  C_4
REMARK    2  A    between atoms: C_8  and  N_9
REMARK    3  A    between atoms: N_9  and  C_10
REMARK    4  A    between atoms: C_10  and  C_11
REMARK    5  A    between atoms: C_16  and  N_17
REMARK                            x       y       z     vdW  Elec       q    Type
REMARK                         _______ _______ _______ _____ _____    ______ ____
ROOT
ATOM      1  C   UNL     1      44.913   5.944  11.336  0.00  0.00    +0.000 C 
ENDROOT
BRANCH   1   2
ATOM      2  C   UNL     1      46.234   6.119  12.045  0.00  0.00    +0.000 A 
ATOM      3  C   UNL     1      47.241   6.910  11.488  0.00  0.00    +0.000 A 
ATOM      4  C   UNL     1      48.403   7.157  12.212  0.00  0.00    +0.000 A 
ATOM      5  C   UNL     1      48.558   6.620  13.493  0.00  0.00    +0.000 A 
ATOM      6  F   UNL     1      49.664   6.978  14.166  0.00  0.00    +0.000 F 
ATOM      7  C   UNL     1      47.583   5.797  14.092  0.00  0.00    +0.000 A 
ATOM      8  C   UNL     1      46.438   5.543  13.313  0.00  0.00    +0.000 A 
BRANCH   7   9
ATOM      9  N   UNL     1      47.696   5.276  15.373  0.00  0.00    +0.000 N 
ATOM     10  C   UNL     1      48.460   5.954  16.423  0.00  0.00    +0.000 C 
ATOM     11  C   UNL     1      49.542   5.020  16.967  0.00  0.00    +0.000 C 
ATOM     12  C   UNL     1      48.971   3.667  17.388  0.00  0.00    +0.000 C 
ATOM     13  C   UNL     1      48.160   3.040  16.254  0.00  0.00    +0.000 C 
ATOM     14  C   UNL     1      47.082   4.002  15.758  0.00  0.00    +0.000 C 
ENDBRANCH   7   9
ENDBRANCH   1   2
BRANCH   1  15
ATOM     15  N   UNL     1      45.099   5.754   9.904  0.00  0.00    +0.000 N 
ATOM     16  H   UNL     1      45.810   6.380   9.527  0.00  0.00    +0.000 HD
BRANCH  15  21
ATOM     17  C   UNL     1      46.292   2.888   7.854  0.00  0.00    +0.000 A 
ATOM     18  C   UNL     1      45.585   1.820   8.413  0.00  0.00    +0.000 A 
ATOM     19  C   UNL     1      44.699   2.057   9.457  0.00  0.00    +0.000 A 
ATOM     20  C   UNL     1      44.538   3.351   9.958  0.00  0.00    +0.000 A 
ATOM     21  C   UNL     1      45.280   4.431   9.457  0.00  0.00    +0.000 A 
ATOM     22  C   UNL     1      46.134   4.184   8.373  0.00  0.00    +0.000 A 
BRANCH  17  24
ATOM     23  N   UNL     1      47.052   3.435   5.602  0.00  0.00    +0.000 N 
ATOM     24  C   UNL     1      47.240   2.681   6.728  0.00  0.00    +0.000 C 
ATOM     25  O   UNL     1      48.170   1.890   6.807  0.00  0.00    +0.000 OA
ATOM     26  H   UNL     1      47.764   3.355   4.888  0.00  0.00    +0.000 HD
ATOM     27  H   UNL     1      46.469   4.259   5.594  0.00  0.00    +0.000 HD
ENDBRANCH  17  24
ENDBRANCH  15  21
ENDBRANCH   1  15
TORSDOF 5
ENDMDL
MODEL 3
REMARK VINA RESULT:    -7.298      3.242      7.633
REMARK INTER + INTRA:         -10.071
REMARK INTER:                  -9.459
REMARK INTRA:                  -0.611
REMARK UNBOUND:                -0.640
REMARK  Name = 
REMARK  5 active torsions:
REMARK  status: ('A' for Active; 'I' for Inactive)
REMARK    1  A    between atoms: C_2  and  C_4
REMARK    2  A    between atoms: C_8  and  N_9
REMARK    3  A    between atoms: N_9  and  C_10
REMARK    4  A    between atoms: C_10  and  C_11
REMARK    5  A    between atoms: C_16  and  N_17
REMARK                            x       y       z     vdW  Elec       q    Type
REMARK                         _______ _______ _______ _____ _____    ______ ____
ROOT
ATOM      1  C   UNL     1      46.115   6.877  12.709  0.00  0.00    +0.000 C 
ENDROOT
BRANCH   1   2
ATOM      2  C   UNL     1      45.354   5.617  12.373  0.00  0.00    +0.000 A 
ATOM      3  C   UNL     1      44.436   5.077  13.278  0.00  0.00    +0.000 A 
ATOM      4  C   UNL     1      43.658   3.988  12.902  0.00  0.00    +0.000 A 
ATOM      5  C   UNL     1      43.791   3.438  11.624  0.00  0.00    +0.000 A 
ATOM      6  F   UNL     1      42.942   2.449  11.302  0.00  0.00    +0.000 F 
ATOM      7  C   UNL     1      44.719   3.928  10.682  0.00  0.00    +0.000 A 
ATOM      8  C   UNL     1      45.511   5.010  11.113  0.00  0.00    +0.000 A 
BRANCH   7   9
ATOM      9  N   UNL     1      44.851   3.424   9.397  0.00  0.00    +0.000 N 
ATOM     10  C   UNL     1      44.783   1.988   9.115  0.00  0.00    +0.000 C 
ATOM     11  C   UNL     1      46.062   1.534   8.410  0.00  0.00    +0.000 C 
ATOM     12  C   UNL     1      46.378   2.393   7.188  0.00  0.00    +0.000 C 
ATOM     13  C   UNL     1      46.396   3.877   7.553  0.00  0.00    +0.000 C 
ATOM     14  C   UNL     1      45.093   4.286   8.237  0.00  0.00    +0.000 C 
ENDBRANCH   7   9
ENDBRANCH   1   2
BRANCH   1  15
ATOM     15  N   UNL     1      47.540   6.614  12.857  0.00  0.00    +0.000 N 
ATOM     16  H   UNL     1      48.106   7.298  12.356  0.00  0.00    +0.000 HD
BRANCH  15  21
ATOM     17  C   UNL     1      48.064   5.005  16.170  0.00  0.00    +0.000 A 
ATOM     18  C   UNL     1      48.809   5.975  16.847  0.00  0.00    +0.000 A 
ATOM     19  C   UNL     1      49.119   7.170  16.208  0.00  0.00    +0.000 A 
ATOM     20  C   UNL     1      48.709   7.385  14.890  0.00  0.00    +0.000 A 
ATOM     21  C   UNL     1      48.014   6.405  14.166  0.00  0.00    +0.000 A 
ATOM     22  C   UNL     1      47.668   5.225  14.840  0.00  0.00    +0.000 A 
BRANCH  17  24
ATOM     23  N   UNL     1      48.723   2.889  17.188  0.00  0.00    +0.000 N 
ATOM     24  C   UNL     1      47.700   3.719  16.820  0.00  0.00    +0.000 C 
ATOM     25  O   UNL     1      46.535   3.419  17.044  0.00  0.00    +0.000 OA
ATOM     26  H   UNL     1      48.462   2.068  17.718  0.00  0.00    +0.000 HD
ATOM     27  H   UNL     1      49.680   3.205  17.251  0.00  0.00    +0.000 HD
ENDBRANCH  17  24
ENDBRANCH  15  21
ENDBRANCH   1  15
TORSDOF 5
ENDMDL
MODEL 4
REMARK VINA RESULT:    -7.269      3.128      7.026
REMARK INTER + INTRA:         -10.034
REMARK INTER:                  -8.778
REMARK INTRA:                  -1.255
REMARK UNBOUND:                -0.640
REMARK  Name = 
REMARK  5 active torsions:
REMARK  status: ('A' for Active; 'I' for Inactive)
REMARK    1  A    between atoms: C_2  and  C_4
REMARK    2  A    between atoms: C_8  and  N_9
REMARK    3  A    between atoms: N_9  and  C_10
REMARK    4  A    between atoms: C_10  and  C_11
REMARK    5  A    between atoms: C_16  and  N_17
REMARK                            x       y       z     vdW  Elec       q    Type
REMARK                         _______ _______ _______ _____ _____    ______ ____
ROOT
ATOM      1  C   UNL     1      47.092   4.452  13.880  0.00  0.00    +0.000 C 
ENDROOT
BRANCH   1   2
ATOM      2  C   UNL     1      45.810   4.354  13.088  0.00  0.00    +0.000 A 
ATOM      3  C   UNL     1      44.606   4.822  13.621  0.00  0.00    +0.000 A 
ATOM      4  C   UNL     1      43.462   4.834  12.831  0.00  0.00    +0.000 A 
ATOM      5  C   UNL     1      43.517   4.383  11.509  0.00  0.00    +0.000 A 
ATOM      6  F   UNL     1      42.396   4.512  10.782  0.00  0.00    +0.000 F 
ATOM      7  C   UNL     1      44.700   3.879  10.930  0.00  0.00    +0.000 A 
ATOM      8  C   UNL     1      45.828   3.853  11.773  0.00  0.00    +0.000 A 
BRANCH   7   9
ATOM      9  N   UNL     1      44.793   3.455   9.613  0.00  0.00    +0.000 N 
ATOM     10  C   UNL     1      44.692   2.041   9.243  0.00  0.00    +0.000 C 
ATOM     11  C   UNL     1      45.946   1.612   8.479  0.00  0.00    +0.000 C 
ATOM     12  C   UNL     1      46.247   2.542   7.305  0.00  0.00    +0.000 C 
ATOM     13  C   UNL     1      46.300   4.000   7.763  0.00  0.00    +0.000 C 
ATOM     14  C   UNL     1      45.021   4.385   8.504  0.00  0.00    +0.000 C 
ENDBRANCH   7   9
ENDBRANCH   1   2
BRANCH   1  15
ATOM     15  N   UNL     1      47.268   5.783  14.445  0.00  0.00    +0.000 N 
ATOM     16  H   UNL     1      47.866   5.770  15.269  0.00  0.00    +0.000 HD
BRANCH  15  21
ATOM     17  C   UNL     1      47.029   8.854  12.358  0.00  0.00    +0.000 A 
ATOM     18  C   UNL     1      48.241   8.825  11.663  0.00  0.00    +0.000 A 
ATOM     19  C   UNL     1      49.127   7.776  11.876  0.00  0.00    +0.000 A 
ATOM     20  C   UNL     1      48.815   6.772  12.796  0.00  0.00    +0.000 A 
ATOM     21  C   UNL     1      47.634   6.808  13.552  0.00  0.00    +0.000 A 
ATOM     22  C   UNL     1      46.729   7.847  13.292  0.00  0.00    +0.000 A 
BRANCH  17  24
ATOM     23  N   UNL     1      44.787   9.767  12.652  0.00  0.00    +0.000 N 
ATOM     24  C   UNL     1      46.047   9.951  12.153  0.00  0.00    +0.000 C 
ATOM     25  O   UNL     1      46.353  10.990  11.584  0.00  0.00    +0.000 OA
ATOM     26  H   UNL     1      44.164  10.562  12.592  0.00  0.00    +0.000 HD
ATOM     27  H   UNL     1      44.573   9.053  13.332  0.00  0.00    +0.000 HD
ENDBRANCH  17  24
ENDBRANCH  15  21
ENDBRANCH   1  15
TORSDOF 5
ENDMDL
MODEL 5
REMARK VINA RESULT:    -7.198      3.871      7.764
REMARK INTER + INTRA:          -9.941
REMARK INTER:                  -8.880
REMARK INTRA:                  -1.062
REMARK UNBOUND:                -0.640
REMARK  Name = 
REMARK  5 active torsions:
REMARK  status: ('A' for Active; 'I' for Inactive)
REMARK    1  A    between atoms: C_2  and  C_4
REMARK    2  A    between atoms: C_8  and  N_9
REMARK    3  A    between atoms: N_9  and  C_10
REMARK    4  A    between atoms: C_10  and  C_11
REMARK    5  A    between atoms: C_16  and  N_17
REMARK                            x       y       z     vdW  Elec       q    Type
REMARK                         _______ _______ _______ _____ _____    ______ ____
ROOT
ATOM      1  C   UNL     1      49.237   6.896  15.163  0.00  0.00    +0.000 C 
ENDROOT
BRANCH   1   2
ATOM      2  C   UNL     1      48.358   6.848  13.936  0.00  0.00    +0.000 A 
ATOM      3  C   UNL     1      48.714   7.543  12.778  0.00  0.00    +0.000 A 
ATOM      4  C   UNL     1      47.957   7.388  11.621  0.00  0.00    +0.000 A 
ATOM      5  C   UNL     1      46.847   6.539  11.618  0.00  0.00    +0.000 A 
ATOM      6  F   UNL     1      46.222   6.370  10.442  0.00  0.00    +0.000 F 
ATOM      7  C   UNL     1      46.430   5.833  12.766  0.00  0.00    +0.000 A 
ATOM      8  C   UNL     1      47.203   6.043  13.924  0.00  0.00    +0.000 A 
BRANCH   7   9
ATOM      9  N   UNL     1      45.353   4.960  12.784  0.00  0.00    +0.000 N 
ATOM     10  C   UNL     1      45.514   3.523  12.549  0.00  0.00    +0.000 C 
ATOM     11  C   UNL     1      44.637   3.086  11.374  0.00  0.00    +0.000 C 
ATOM     12  C   UNL     1      43.186   3.529  11.547  0.00  0.00    +0.000 C 
ATOM     13  C   UNL     1      43.102   5.030  11.824  0.00  0.00    +0.000 C 
ATOM     14  C   UNL     1      43.979   5.414  13.015  0.00  0.00    +0.000 C 
ENDBRANCH   7   9
ENDBRANCH   1   2
BRANCH   1  15
ATOM     15  N   UNL     1      48.444   6.923  16.385  0.00  0.00    +0.000 N 
ATOM     16  H   UNL     1      47.458   7.094  16.193  0.00  0.00    +0.000 HD
BRANCH  15  21
ATOM     17  C   UNL     1      49.298   3.532  17.655  0.00  0.00    +0.000 A 
ATOM     18  C   UNL     1      48.882   3.611  18.988  0.00  0.00    +0.000 A 
ATOM     19  C   UNL     1      48.302   4.784  19.456  0.00  0.00    +0.000 A 
ATOM     20  C   UNL     1      48.160   5.882  18.604  0.00  0.00    +0.000 A 
ATOM     21  C   UNL     1      48.623   5.852  17.281  0.00  0.00    +0.000 A 
ATOM     22  C   UNL     1      49.163   4.647  16.810  0.00  0.00    +0.000 A 
BRANCH  17  24
ATOM     23  N   UNL     1      50.923   1.724  17.832  0.00  0.00    +0.000 N 
ATOM     24  C   UNL     1      49.911   2.294  17.110  0.00  0.00    +0.000 C 
ATOM     25  O   UNL     1      49.515   1.784  16.070  0.00  0.00    +0.000 OA
ATOM     26  H   UNL     1      51.259   0.829  17.499  0.00  0.00    +0.000 HD
ATOM     27  H   UNL     1      51.101   1.963  18.796  0.00  0.00    +0.000 HD
ENDBRANCH  17  24
ENDBRANCH  15  21
ENDBRANCH   1  15
TORSDOF 5
ENDMDL
MODEL 6
REMARK VINA RESULT:    -6.840      3.825      8.304
REMARK INTER + INTRA:          -9.480
REMARK INTER:                  -8.854
REMARK INTRA:                  -0.626
REMARK UNBOUND:                -0.640
REMARK  Name = 
REMARK  5 active torsions:
REMARK  status: ('A' for Active; 'I' for Inactive)
REMARK    1  A    between atoms: C_2  and  C_4
REMARK    2  A    between atoms: C_8  and  N_9
REMARK    3  A    between atoms: N_9  and  C_10
REMARK    4  A    between atoms: C_10  and  C_11
REMARK    5  A    between atoms: C_16  and  N_17
REMARK                            x       y       z     vdW  Elec       q    Type
REMARK                         _______ _______ _______ _____ _____    ______ ____
ROOT
ATOM      1  C   UNL     1      46.921   3.752  13.961  0.00  0.00    +0.000 C 
ENDROOT
BRANCH   1   2
ATOM      2  C   UNL     1      45.781   4.084  13.029  0.00  0.00    +0.000 A 
ATOM      3  C   UNL     1      44.786   4.985  13.414  0.00  0.00    +0.000 A 
ATOM      4  C   UNL     1      43.812   5.370  12.499  0.00  0.00    +0.000 A 
ATOM      5  C   UNL     1      43.833   4.860  11.197  0.00  0.00    +0.000 A 
ATOM      6  F   UNL     1      42.918   5.349  10.344  0.00  0.00    +0.000 F 
ATOM      7  C   UNL     1      44.801   3.931  10.764  0.00  0.00    +0.000 A 
ATOM      8  C   UNL     1      45.747   3.541  11.730  0.00  0.00    +0.000 A 
BRANCH   7   9
ATOM      9  N   UNL     1      44.865   3.433   9.471  0.00  0.00    +0.000 N 
ATOM     10  C   UNL     1      44.721   2.004   9.181  0.00  0.00    +0.000 C 
ATOM     11  C   UNL     1      45.953   1.499   8.427  0.00  0.00    +0.000 C 
ATOM     12  C   UNL     1      46.265   2.354   7.201  0.00  0.00    +0.000 C 
ATOM     13  C   UNL     1      46.363   3.832   7.577  0.00  0.00    +0.000 C 
ATOM     14  C   UNL     1      45.105   4.294   8.310  0.00  0.00    +0.000 C 
ENDBRANCH   7   9
ENDBRANCH   1   2
BRANCH   1  15
ATOM     15  N   UNL     1      46.623   4.151  15.330  0.00  0.00    +0.000 N 
ATOM     16  H   UNL     1      45.759   3.729  15.668  0.00  0.00    +0.000 HD
BRANCH  15  21
ATOM     17  C   UNL     1      49.273   5.111  17.757  0.00  0.00    +0.000 A 
ATOM     18  C   UNL     1      49.853   3.874  18.054  0.00  0.00    +0.000 A 
ATOM     19  C   UNL     1      49.375   2.727  17.433  0.00  0.00    +0.000 A 
ATOM     20  C   UNL     1      48.306   2.810  16.538  0.00  0.00    +0.000 A 
ATOM     21  C   UNL     1      47.665   4.028  16.268  0.00  0.00    +0.000 A 
ATOM     22  C   UNL     1      48.190   5.183  16.865  0.00  0.00    +0.000 A 
BRANCH  17  24
ATOM     23  N   UNL     1      49.363   7.547  17.828  0.00  0.00    +0.000 N 
ATOM     24  C   UNL     1      49.762   6.365  18.389  0.00  0.00    +0.000 C 
ATOM     25  O   UNL     1      50.471   6.349  19.386  0.00  0.00    +0.000 OA
ATOM     26  H   UNL     1      49.621   8.387  18.329  0.00  0.00    +0.000 HD
ATOM     27  H   UNL     1      48.593   7.605  17.179  0.00  0.00    +0.000 HD
ENDBRANCH  17  24
ENDBRANCH  15  21
ENDBRANCH   1  15
TORSDOF 5
ENDMDL
MODEL 7
REMARK VINA RESULT:    -6.775      3.723      7.526
REMARK INTER + INTRA:          -9.395
REMARK INTER:                  -8.275
REMARK INTRA:                  -1.119
REMARK UNBOUND:                -0.640
REMARK  Name = 
REMARK  5 active torsions:
REMARK  status: ('A' for Active; 'I' for Inactive)
REMARK    1  A    between atoms: C_2  and  C_4
REMARK    2  A    between atoms: C_8  and  N_9
REMARK    3  A    between atoms: N_9  and  C_10
REMARK    4  A    between atoms: C_10  and  C_11
REMARK    5  A    between atoms: C_16  and  N_17
REMARK                            x       y       z     vdW  Elec       q    Type
REMARK                         _______ _______ _______ _____ _____    ______ ____
ROOT
ATOM      1  C   UNL     1      48.832   6.763  13.672  0.00  0.00    +0.000 C 
ENDROOT
BRANCH   1   2
ATOM      2  C   UNL     1      47.496   7.215  13.134  0.00  0.00    +0.000 A 
ATOM      3  C   UNL     1      47.251   8.567  12.883  0.00  0.00    +0.000 A 
ATOM      4  C   UNL     1      46.060   8.950  12.274  0.00  0.00    +0.000 A 
ATOM      5  C   UNL     1      45.116   7.985  11.912  0.00  0.00    +0.000 A 
ATOM      6  F   UNL     1      44.034   8.421  11.246  0.00  0.00    +0.000 F 
ATOM      7  C   UNL     1      45.303   6.611  12.164  0.00  0.00    +0.000 A 
ATOM      8  C   UNL     1      46.506   6.268  12.812  0.00  0.00    +0.000 A 
BRANCH   7   9
ATOM      9  N   UNL     1      44.399   5.628  11.788  0.00  0.00    +0.000 N 
ATOM     10  C   UNL     1      43.348   5.153  12.692  0.00  0.00    +0.000 C 
ATOM     11  C   UNL     1      43.470   3.640  12.881  0.00  0.00    +0.000 C 
ATOM     12  C   UNL     1      43.525   2.899  11.548  0.00  0.00    +0.000 C 
ATOM     13  C   UNL     1      44.619   3.473  10.648  0.00  0.00    +0.000 C 
ATOM     14  C   UNL     1      44.445   4.981  10.474  0.00  0.00    +0.000 C 
ENDBRANCH   7   9
ENDBRANCH   1   2
BRANCH   1  15
ATOM     15  N   UNL     1      49.164   7.447  14.915  0.00  0.00    +0.000 N 
ATOM     16  H   UNL     1      48.881   8.426  14.897  0.00  0.00    +0.000 HD
BRANCH  15  21
ATOM     17  C   UNL     1      47.959   4.806  17.242  0.00  0.00    +0.000 A 
ATOM     18  C   UNL     1      47.845   5.511  18.443  0.00  0.00    +0.000 A 
ATOM     19  C   UNL     1      48.151   6.866  18.474  0.00  0.00    +0.000 A 
ATOM     20  C   UNL     1      48.593   7.510  17.315  0.00  0.00    +0.000 A 
ATOM     21  C   UNL     1      48.774   6.814  16.111  0.00  0.00    +0.000 A 
ATOM     22  C   UNL     1      48.416   5.459  16.084  0.00  0.00    +0.000 A 
BRANCH  17  24
ATOM     23  N   UNL     1      48.630   2.508  16.776  0.00  0.00    +0.000 N 
ATOM     24  C   UNL     1      47.630   3.359  17.161  0.00  0.00    +0.000 C 
ATOM     25  O   UNL     1      46.519   2.935  17.451  0.00  0.00    +0.000 OA
ATOM     26  H   UNL     1      48.417   1.520  16.825  0.00  0.00    +0.000 HD
ATOM     27  H   UNL     1      49.601   2.780  16.777  0.00  0.00    +0.000 HD
ENDBRANCH  17  24
ENDBRANCH  15  21
ENDBRANCH   1  15
TORSDOF 5
ENDMDL
MODEL 8
REMARK VINA RESULT:    -6.741      3.345      5.999
REMARK INTER + INTRA:          -9.352
REMARK INTER:                  -8.541
REMARK INTRA:                  -0.811
REMARK UNBOUND:                -0.640
REMARK  Name = 
REMARK  5 active torsions:
REMARK  status: ('A' for Active; 'I' for Inactive)
REMARK    1  A    between atoms: C_2  and  C_4
REMARK    2  A    between atoms: C_8  and  N_9
REMARK    3  A    between atoms: N_9  and  C_10
REMARK    4  A    between atoms: C_10  and  C_11
REMARK    5  A    between atoms: C_16  and  N_17
REMARK                            x       y       z     vdW  Elec       q    Type
REMARK                         _______ _______ _______ _____ _____    ______ ____
ROOT
ATOM      1  C   UNL     1      47.216   3.591  14.891  0.00  0.00    +0.000 C 
ENDROOT
BRANCH   1   2
ATOM      2  C   UNL     1      47.794   3.712  16.280  0.00  0.00    +0.000 A 
ATOM      3  C   UNL     1      48.715   2.773  16.752  0.00  0.00    +0.000 A 
ATOM      4  C   UNL     1      49.327   2.968  17.986  0.00  0.00    +0.000 A 
ATOM      5  C   UNL     1      49.023   4.100  18.748  0.00  0.00    +0.000 A 
ATOM      6  F   UNL     1      49.721   4.266  19.883  0.00  0.00    +0.000 F 
ATOM      7  C   UNL     1      48.083   5.064  18.330  0.00  0.00    +0.000 A 
ATOM      8  C   UNL     1      47.462   4.813  17.092  0.00  0.00    +0.000 A 
BRANCH   7   9
ATOM      9  N   UNL     1      47.785   6.211  19.050  0.00  0.00    +0.000 N 
ATOM     10  C   UNL     1      48.155   7.547  18.573  0.00  0.00    +0.000 C 
ATOM     11  C   UNL     1      49.019   8.252  19.619  0.00  0.00    +0.000 C 
ATOM     12  C   UNL     1      48.368   8.244  21.000  0.00  0.00    +0.000 C 
ATOM     13  C   UNL     1      47.978   6.825  21.412  0.00  0.00    +0.000 C 
ATOM     14  C   UNL     1      47.102   6.169  20.346  0.00  0.00    +0.000 C 
ENDBRANCH   7   9
ENDBRANCH   1   2
BRANCH   1  15
ATOM     15  N   UNL     1      46.159   4.568  14.667  0.00  0.00    +0.000 N 
ATOM     16  H   UNL     1      46.196   5.328  15.345  0.00  0.00    +0.000 HD
BRANCH  15  21
ATOM     17  C   UNL     1      45.021   4.779  11.131  0.00  0.00    +0.000 A 
ATOM     18  C   UNL     1      45.757   5.868  10.656  0.00  0.00    +0.000 A 
ATOM     19  C   UNL     1      46.643   6.519  11.507  0.00  0.00    +0.000 A 
ATOM     20  C   UNL     1      46.777   6.099  12.833  0.00  0.00    +0.000 A 
ATOM     21  C   UNL     1      46.007   5.048  13.352  0.00  0.00    +0.000 A 
ATOM     22  C   UNL     1      45.153   4.372  12.470  0.00  0.00    +0.000 A 
BRANCH  17  24
ATOM     23  N   UNL     1      44.042   4.397   8.931  0.00  0.00    +0.000 N 
ATOM     24  C   UNL     1      44.072   4.046  10.253  0.00  0.00    +0.000 C 
ATOM     25  O   UNL     1      43.362   3.147  10.682  0.00  0.00    +0.000 OA
ATOM     26  H   UNL     1      43.465   3.822   8.331  0.00  0.00    +0.000 HD
ATOM     27  H   UNL     1      44.773   4.942   8.499  0.00  0.00    +0.000 HD
ENDBRANCH  17  24
ENDBRANCH  15  21
ENDBRANCH   1  15
TORSDOF 5
ENDMDL
MODEL 9
REMARK VINA RESULT:    -6.620      2.383      4.065
REMARK INTER + INTRA:          -9.195
REMARK INTER:                  -8.421
REMARK INTRA:                  -0.773
REMARK UNBOUND:                -0.640
REMARK  Name = 
REMARK  5 active torsions:
REMARK  status: ('A' for Active; 'I' for Inactive)
REMARK    1  A    between atoms: C_2  and  C_4
REMARK    2  A    between atoms: C_8  and  N_9
REMARK    3  A    between atoms: N_9  and  C_10
REMARK    4  A    between atoms: C_10  and  C_11
REMARK    5  A    between atoms: C_16  and  N_17
REMARK                            x       y       z     vdW  Elec       q    Type
REMARK                         _______ _______ _______ _____ _____    ______ ____
ROOT
ATOM      1  C   UNL     1      47.174   7.361  12.162  0.00  0.00    +0.000 C 
ENDROOT
BRANCH   1   2
ATOM      2  C   UNL     1      48.112   7.076  13.310  0.00  0.00    +0.000 A 
ATOM      3  C   UNL     1      49.320   7.768  13.430  0.00  0.00    +0.000 A 
ATOM      4  C   UNL     1      50.113   7.579  14.557  0.00  0.00    +0.000 A 
ATOM      5  C   UNL     1      49.701   6.704  15.566  0.00  0.00    +0.000 A 
ATOM      6  F   UNL     1      50.472   6.645  16.664  0.00  0.00    +0.000 F 
ATOM      7  C   UNL     1      48.503   5.964  15.484  0.00  0.00    +0.000 A 
ATOM      8  C   UNL     1      47.746   6.158  14.312  0.00  0.00    +0.000 A 
BRANCH   7   9
ATOM      9  N   UNL     1      48.054   5.113  16.483  0.00  0.00    +0.000 N 
ATOM     10  C   UNL     1      47.974   5.533  17.884  0.00  0.00    +0.000 C 
ATOM     11  C   UNL     1      48.801   4.589  18.759  0.00  0.00    +0.000 C 
ATOM     12  C   UNL     1      48.433   3.126  18.527  0.00  0.00    +0.000 C 
ATOM     13  C   UNL     1      48.504   2.773  17.041  0.00  0.00    +0.000 C 
ATOM     14  C   UNL     1      47.650   3.731  16.212  0.00  0.00    +0.000 C 
ENDBRANCH   7   9
ENDBRANCH   1   2
BRANCH   1  15
ATOM     15  N   UNL     1      45.782   7.198  12.560  0.00  0.00    +0.000 N 
ATOM     16  H   UNL     1      45.260   8.070  12.478  0.00  0.00    +0.000 HD
BRANCH  15  21
ATOM     17  C   UNL     1      44.686   4.664  10.067  0.00  0.00    +0.000 A 
ATOM     18  C   UNL     1      43.626   4.043  10.734  0.00  0.00    +0.000 A 
ATOM     19  C   UNL     1      43.266   4.480  12.003  0.00  0.00    +0.000 A 
ATOM     20  C   UNL     1      43.977   5.517  12.614  0.00  0.00    +0.000 A 
ATOM     21  C   UNL     1      45.082   6.116  11.994  0.00  0.00    +0.000 A 
ATOM     22  C   UNL     1      45.403   5.697  10.695  0.00  0.00    +0.000 A 
BRANCH  17  24
ATOM     23  N   UNL     1      44.322   3.298   8.081  0.00  0.00    +0.000 N 
ATOM     24  C   UNL     1      45.097   4.236   8.704  0.00  0.00    +0.000 C 
ATOM     25  O   UNL     1      46.073   4.719   8.146  0.00  0.00    +0.000 OA
ATOM     26  H   UNL     1      44.557   3.094   7.118  0.00  0.00    +0.000 HD
ATOM     27  H   UNL     1      43.391   3.069   8.394  0.00  0.00    +0.000 HD
ENDBRANCH  17  24
ENDBRANCH  15  21
ENDBRANCH   1  15
TORSDOF 5
ENDMDL
