MODEL 1
REMARK VINA RESULT:    -7.185      0.000      0.000
REMARK INTER + INTRA:         -12.230
REMARK INTER:                 -10.545
REMARK INTRA:                  -1.686
REMARK UNBOUND:                -1.686
REMARK  Name = 
REMARK  10 active torsions:
REMARK  status: ('A' for Active; 'I' for Inactive)
REMARK    1  A    between atoms: C_1  and  O_2
REMARK    2  A    between atoms: O_2  and  C_3
REMARK    3  A    between atoms: C_7  and  C_8
REMARK    4  A    between atoms: C_8  and  N_9
REMARK    5  A    between atoms: N_9  and  C_10
REMARK    6  A    between atoms: N_9  and  C_11
REMARK    7  A    between atoms: C_11  and  C_12
REMARK    8  A    between atoms: C_15  and  C_16
REMARK    9  A    between atoms: C_16  and  N_17
REMARK   10  A    between atoms: C_18  and  C_20
REMARK                            x       y       z     vdW  Elec       q    Type
REMARK                         _______ _______ _______ _____ _____    ______ ____
ROOT
ATOM      1  C   UNL     1      49.413   8.126  15.778  0.00  0.00    +0.000 A 
ATOM      2  C   UNL     1      48.288   8.903  15.468  0.00  0.00    +0.000 A 
ATOM      3  C   UNL     1      47.713   8.843  14.195  0.00  0.00    +0.000 A 
ATOM      4  C   UNL     1      48.251   8.001  13.214  0.00  0.00    +0.000 A 
ATOM      5  C   UNL     1      49.401   7.259  13.511  0.00  0.00    +0.000 A 
ATOM      6  C   UNL     1      49.974   7.318  14.782  0.00  0.00    +0.000 A 
ENDROOT
BRANCH   1   7
ATOM      7  C   UNL     1      50.010   8.137  17.168  0.00  0.00    +0.000 C 
BRANCH   7   8
ATOM      8  N   UNL     1      49.405   7.149  18.081  0.00  0.00    +0.000 NA
ATOM      9  C   UNL     1      49.226   7.772  19.401  0.00  0.00    +0.000 C 
BRANCH   8  10
ATOM     10  C   UNL     1      50.246   5.932  18.183  0.00  0.00    +0.000 C 
BRANCH  10  15
ATOM     11  C   UNL     1      49.833   2.501  16.929  0.00  0.00    +0.000 A 
ATOM     12  C   UNL     1      48.497   2.409  16.575  0.00  0.00    +0.000 A 
ATOM     13  C   UNL     1      47.713   3.557  16.661  0.00  0.00    +0.000 A 
ATOM     14  C   UNL     1      48.286   4.738  17.118  0.00  0.00    +0.000 A 
ATOM     15  C   UNL     1      49.630   4.730  17.491  0.00  0.00    +0.000 A 
ATOM     16  N   UNL     1      50.412   3.631  17.379  0.00  0.00    +0.000 NA
BRANCH  11  18
ATOM     17  C   UNL     1      51.842   1.469  17.507  0.00  0.00    +0.000 C 
ATOM     18  O   UNL     1      50.582   1.344  16.851  0.00  0.00    +0.000 OA
ENDBRANCH  11  18
ENDBRANCH  10  15
ENDBRANCH   8  10
ENDBRANCH   7   8
ENDBRANCH   1   7
BRANCH   4  19
ATOM     19  C   UNL     1      47.643   7.914  11.841  0.00  0.00    +0.000 C 
BRANCH  19  20
ATOM     20  N   UNL     1      46.953   6.663  11.664  0.00  0.00    +0.000 N 
ATOM     21  C   UNL     1      45.592   6.577  11.796  0.00  0.00    +0.000 C 
ATOM     22  O   UNL     1      44.897   7.563  12.026  0.00  0.00    +0.000 OA
ATOM     23  H   UNL     1      47.516   5.819  11.697  0.00  0.00    +0.000 HD
BRANCH  21  24
ATOM     24  C   UNL     1      44.998   5.252  11.588  0.00  0.00    +0.000 A 
ATOM     25  C   UNL     1      44.329   4.629  12.634  0.00  0.00    +0.000 A 
ATOM     26  S   UNL     1      43.646   3.126  12.212  0.00  0.00    +0.000 S 
ATOM     27  C   UNL     1      44.267   3.227  10.630  0.00  0.00    +0.000 A 
ATOM     28  N   UNL     1      44.050   2.230   9.731  0.00  0.00    +0.000 NA
ATOM     29  C   UNL     1      44.594   2.426   8.577  0.00  0.00    +0.000 A 
ATOM     30  N   UNL     1      45.336   3.529   8.240  0.00  0.00    +0.000 N 
ATOM     31  C   UNL     1      45.560   4.570   9.107  0.00  0.00    +0.000 A 
ATOM     32  O   UNL     1      46.206   5.556   8.766  0.00  0.00    +0.000 OA
ATOM     33  C   UNL     1      44.972   4.399  10.423  0.00  0.00    +0.000 A 
ATOM     34  H   UNL     1      45.732   3.623   7.317  0.00  0.00    +0.000 HD
ENDBRANCH  21  24
ENDBRANCH  19  20
ENDBRANCH   4  19
TORSDOF 8
ENDMDL
MODEL 2
REMARK VINA RESULT:    -6.940      3.295      8.824
REMARK INTER + INTRA:         -11.872
REMARK INTER:                 -10.536
REMARK INTRA:                  -1.335
REMARK UNBOUND:                -1.686
REMARK  Name = 
REMARK  10 active torsions:
REMARK  status: ('A' for Active; 'I' for Inactive)
REMARK    1  A    between atoms: C_1  and  O_2
REMARK    2  A    between atoms: O_2  and  C_3
REMARK    3  A    between atoms: C_7  and  C_8
REMARK    4  A    between atoms: C_8  and  N_9
REMARK    5  A    between atoms: N_9  and  C_10
REMARK    6  A    between atoms: N_9  and  C_11
REMARK    7  A    between atoms: C_11  and  C_12
REMARK    8  A    between atoms: C_15  and  C_16
REMARK    9  A    between atoms: C_16  and  N_17
REMARK   10  A    between atoms: C_18  and  C_20
REMARK                            x       y       z     vdW  Elec       q    Type
REMARK                         _______ _______ _______ _____ _____    ______ ____
ROOT
ATOM      1  C   UNL     1      45.912   5.104  12.591  0.00  0.00    +0.000 A 
ATOM      2  C   UNL     1      46.595   4.970  13.807  0.00  0.00    +0.000 A 
ATOM      3  C   UNL     1      47.633   5.847  14.138  0.00  0.00    +0.000 A 
ATOM      4  C   UNL     1      48.000   6.874  13.259  0.00  0.00    +0.000 A 
ATOM      5  C   UNL     1      47.345   6.978  12.024  0.00  0.00    +0.000 A 
ATOM      6  C   UNL     1      46.309   6.104  11.695  0.00  0.00    +0.000 A 
ENDROOT
BRANCH   1   7
ATOM      7  C   UNL     1      44.749   4.199  12.246  0.00  0.00    +0.000 C 
BRANCH   7   8
ATOM      8  N   UNL     1      43.944   4.678  11.106  0.00  0.00    +0.000 NA
ATOM      9  C   UNL     1      42.663   5.193  11.613  0.00  0.00    +0.000 C 
BRANCH   8  10
ATOM     10  C   UNL     1      43.721   3.595  10.118  0.00  0.00    +0.000 C 
BRANCH  10  15
ATOM     11  C   UNL     1      46.293   1.851   8.153  0.00  0.00    +0.000 A 
ATOM     12  C   UNL     1      46.829   2.824   7.326  0.00  0.00    +0.000 A 
ATOM     13  C   UNL     1      46.395   4.137   7.485  0.00  0.00    +0.000 A 
ATOM     14  C   UNL     1      45.428   4.421   8.443  0.00  0.00    +0.000 A 
ATOM     15  C   UNL     1      44.915   3.373   9.207  0.00  0.00    +0.000 A 
ATOM     16  N   UNL     1      45.353   2.098   9.086  0.00  0.00    +0.000 NA
BRANCH  11  18
ATOM     17  C   UNL     1      47.082   0.299   6.603  0.00  0.00    +0.000 C 
ATOM     18  O   UNL     1      46.729   0.556   7.961  0.00  0.00    +0.000 OA
ENDBRANCH  11  18
ENDBRANCH  10  15
ENDBRANCH   8  10
ENDBRANCH   7   8
ENDBRANCH   1   7
BRANCH   4  19
ATOM     19  C   UNL     1      49.107   7.834  13.597  0.00  0.00    +0.000 C 
BRANCH  19  20
ATOM     20  N   UNL     1      50.179   7.158  14.279  0.00  0.00    +0.000 N 
ATOM     21  C   UNL     1      50.574   7.538  15.535  0.00  0.00    +0.000 C 
ATOM     22  O   UNL     1      50.009   8.436  16.151  0.00  0.00    +0.000 OA
ATOM     23  H   UNL     1      50.791   6.578  13.713  0.00  0.00    +0.000 HD
BRANCH  21  24
ATOM     24  C   UNL     1      51.674   6.772  16.133  0.00  0.00    +0.000 A 
ATOM     25  C   UNL     1      52.988   7.159  15.895  0.00  0.00    +0.000 A 
ATOM     26  S   UNL     1      54.140   6.206  16.710  0.00  0.00    +0.000 S 
ATOM     27  C   UNL     1      52.930   5.205  17.367  0.00  0.00    +0.000 A 
ATOM     28  N   UNL     1      53.251   4.156  18.171  0.00  0.00    +0.000 NA
ATOM     29  C   UNL     1      52.238   3.470  18.581  0.00  0.00    +0.000 A 
ATOM     30  N   UNL     1      50.931   3.738  18.262  0.00  0.00    +0.000 N 
ATOM     31  C   UNL     1      50.559   4.799  17.474  0.00  0.00    +0.000 A 
ATOM     32  O   UNL     1      49.378   5.028  17.229  0.00  0.00    +0.000 OA
ATOM     33  C   UNL     1      51.661   5.603  16.982  0.00  0.00    +0.000 A 
ATOM     34  H   UNL     1      50.184   3.162  18.619  0.00  0.00    +0.000 HD
ENDBRANCH  21  24
ENDBRANCH  19  20
ENDBRANCH   4  19
TORSDOF 8
ENDMDL
MODEL 3
REMARK VINA RESULT:    -6.883      1.972      2.454
REMARK INTER + INTRA:         -11.788
REMARK INTER:                  -9.942
REMARK INTRA:                  -1.846
REMARK UNBOUND:                -1.686
REMARK  Name = 
REMARK  10 active torsions:
REMARK  status: ('A' for Active; 'I' for Inactive)
REMARK    1  A    between atoms: C_1  and  O_2
REMARK    2  A    between atoms: O_2  and  C_3
REMARK    3  A    between atoms: C_7  and  C_8
REMARK    4  A    between atoms: C_8  and  N_9
REMARK    5  A    between atoms: N_9  and  C_10
REMARK    6  A    between atoms: N_9  and  C_11
REMARK    7  A    between atoms: C_11  and  C_12
REMARK    8  A    between atoms: C_15  and  C_16
REMARK    9  A    between atoms: C_16  and  N_17
REMARK   10  A    between atoms: C_18  and  C_20
REMARK                            x       y       z     vdW  Elec       q    Type
REMARK                         _______ _______ _______ _____ _____    ______ ____
ROOT
ATOM      1  C   UNL     1      49.407   7.567  17.855  0.00  0.00    +0.000 A 
ATOM      2  C   UNL     1      48.559   8.678  17.749  0.00  0.00    +0.000 A 
ATOM      3  C   UNL     1      48.115   9.115  16.497  0.00  0.00    +0.000 A 
ATOM      4  C   UNL     1      48.508   8.444  15.332  0.00  0.00    +0.000 A 
ATOM      5  C   UNL     1      49.391   7.362  15.437  0.00  0.00    +0.000 A 
ATOM      6  C   UNL     1      49.833   6.925  16.686  0.00  0.00    +0.000 A 
ENDROOT
BRANCH   1   7
ATOM      7  C   UNL     1      49.848   7.049  19.206  0.00  0.00    +0.000 C 
BRANCH   7   8
ATOM      8  N   UNL     1      48.782   6.356  19.952  0.00  0.00    +0.000 NA
ATOM      9  C   UNL     1      48.754   6.872  21.329  0.00  0.00    +0.000 C 
BRANCH   8  10
ATOM     10  C   UNL     1      48.991   4.888  19.944  0.00  0.00    +0.000 C 
BRANCH  10  15
ATOM     11  C   UNL     1      49.253   2.691  17.008  0.00  0.00    +0.000 A 
ATOM     12  C   UNL     1      48.028   2.800  16.371  0.00  0.00    +0.000 A 
ATOM     13  C   UNL     1      47.103   3.711  16.874  0.00  0.00    +0.000 A 
ATOM     14  C   UNL     1      47.428   4.456  18.002  0.00  0.00    +0.000 A 
ATOM     15  C   UNL     1      48.670   4.254  18.603  0.00  0.00    +0.000 A 
ATOM     16  N   UNL     1      49.592   3.397  18.104  0.00  0.00    +0.000 NA
BRANCH  11  18
ATOM     17  C   UNL     1      51.281   1.591  17.340  0.00  0.00    +0.000 C 
ATOM     18  O   UNL     1      50.143   1.767  16.499  0.00  0.00    +0.000 OA
ENDBRANCH  11  18
ENDBRANCH  10  15
ENDBRANCH   8  10
ENDBRANCH   7   8
ENDBRANCH   1   7
BRANCH   4  19
ATOM     19  C   UNL     1      48.035   8.891  13.976  0.00  0.00    +0.000 C 
BRANCH  19  20
ATOM     20  N   UNL     1      46.866   8.155  13.573  0.00  0.00    +0.000 N 
ATOM     21  C   UNL     1      46.903   7.284  12.517  0.00  0.00    +0.000 C 
ATOM     22  O   UNL     1      47.938   7.059  11.896  0.00  0.00    +0.000 OA
ATOM     23  H   UNL     1      45.971   8.488  13.920  0.00  0.00    +0.000 HD
BRANCH  21  24
ATOM     24  C   UNL     1      45.651   6.586  12.201  0.00  0.00    +0.000 A 
ATOM     25  C   UNL     1      44.582   7.300  11.673  0.00  0.00    +0.000 A 
ATOM     26  S   UNL     1      43.228   6.334  11.306  0.00  0.00    +0.000 S 
ATOM     27  C   UNL     1      44.000   4.933  11.891  0.00  0.00    +0.000 A 
ATOM     28  N   UNL     1      43.366   3.730  11.878  0.00  0.00    +0.000 NA
ATOM     29  C   UNL     1      44.059   2.759  12.370  0.00  0.00    +0.000 A 
ATOM     30  N   UNL     1      45.329   2.880  12.873  0.00  0.00    +0.000 N 
ATOM     31  C   UNL     1      46.015   4.069  12.885  0.00  0.00    +0.000 A 
ATOM     32  O   UNL     1      47.161   4.140  13.319  0.00  0.00    +0.000 OA
ATOM     33  C   UNL     1      45.280   5.198  12.346  0.00  0.00    +0.000 A 
ATOM     34  H   UNL     1      45.818   2.078  13.241  0.00  0.00    +0.000 HD
ENDBRANCH  21  24
ENDBRANCH  19  20
ENDBRANCH   4  19
TORSDOF 8
ENDMDL
MODEL 4
REMARK VINA RESULT:    -6.720      2.997      8.871
REMARK INTER + INTRA:         -11.548
REMARK INTER:                 -10.879
REMARK INTRA:                  -0.669
REMARK UNBOUND:                -1.686
REMARK  Name = 
REMARK  10 active torsions:
REMARK  status: ('A' for Active; 'I' for Inactive)
REMARK    1  A    between atoms: C_1  and  O_2
REMARK    2  A    between atoms: O_2  and  C_3
REMARK    3  A    between atoms: C_7  and  C_8
REMARK    4  A    between atoms: C_8  and  N_9
REMARK    5  A    between atoms: N_9  and  C_10
REMARK    6  A    between atoms: N_9  and  C_11
REMARK    7  A    between atoms: C_11  and  C_12
REMARK    8  A    between atoms: C_15  and  C_16
REMARK    9  A    between atoms: C_16  and  N_17
REMARK   10  A    between atoms: C_18  and  C_20
REMARK                            x       y       z     vdW  Elec       q    Type
REMARK                         _______ _______ _______ _____ _____    ______ ____
ROOT
ATOM      1  C   UNL     1      46.384   5.243  12.717  0.00  0.00    +0.000 A 
ATOM      2  C   UNL     1      46.980   6.473  12.408  0.00  0.00    +0.000 A 
ATOM      3  C   UNL     1      47.839   7.095  13.319  0.00  0.00    +0.000 A 
ATOM      4  C   UNL     1      48.119   6.493  14.553  0.00  0.00    +0.000 A 
ATOM      5  C   UNL     1      47.487   5.286  14.878  0.00  0.00    +0.000 A 
ATOM      6  C   UNL     1      46.631   4.665  13.969  0.00  0.00    +0.000 A 
ENDROOT
BRANCH   1   7
ATOM      7  C   UNL     1      45.500   4.531  11.717  0.00  0.00    +0.000 C 
BRANCH   7   8
ATOM      8  N   UNL     1      44.400   5.366  11.199  0.00  0.00    +0.000 NA
ATOM      9  C   UNL     1      43.610   5.867  12.334  0.00  0.00    +0.000 C 
BRANCH   8  10
ATOM     10  C   UNL     1      43.545   4.601  10.260  0.00  0.00    +0.000 C 
BRANCH  10  15
ATOM     11  C   UNL     1      45.805   3.561   7.553  0.00  0.00    +0.000 A 
ATOM     12  C   UNL     1      46.085   2.229   7.815  0.00  0.00    +0.000 A 
ATOM     13  C   UNL     1      45.425   1.614   8.875  0.00  0.00    +0.000 A 
ATOM     14  C   UNL     1      44.536   2.356   9.644  0.00  0.00    +0.000 A 
ATOM     15  C   UNL     1      44.344   3.702   9.333  0.00  0.00    +0.000 A 
ATOM     16  N   UNL     1      44.951   4.303   8.284  0.00  0.00    +0.000 NA
BRANCH  11  18
ATOM     17  C   UNL     1      47.196   3.196   5.718  0.00  0.00    +0.000 C 
ATOM     18  O   UNL     1      46.486   4.149   6.506  0.00  0.00    +0.000 OA
ENDBRANCH  11  18
ENDBRANCH  10  15
ENDBRANCH   8  10
ENDBRANCH   7   8
ENDBRANCH   1   7
BRANCH   4  19
ATOM     19  C   UNL     1      49.046   7.140  15.544  0.00  0.00    +0.000 C 
BRANCH  19  20
ATOM     20  N   UNL     1      50.052   6.211  15.987  0.00  0.00    +0.000 N 
ATOM     21  C   UNL     1      50.350   6.066  17.316  0.00  0.00    +0.000 C 
ATOM     22  O   UNL     1      49.749   6.685  18.189  0.00  0.00    +0.000 OA
ATOM     23  H   UNL     1      50.699   5.865  15.285  0.00  0.00    +0.000 HD
BRANCH  21  24
ATOM     24  C   UNL     1      51.389   5.085  17.649  0.00  0.00    +0.000 A 
ATOM     25  C   UNL     1      52.628   5.524  18.101  0.00  0.00    +0.000 A 
ATOM     26  S   UNL     1      53.698   4.261  18.502  0.00  0.00    +0.000 S 
ATOM     27  C   UNL     1      52.566   3.079  18.033  0.00  0.00    +0.000 A 
ATOM     28  N   UNL     1      52.865   1.755  18.114  0.00  0.00    +0.000 NA
ATOM     29  C   UNL     1      51.924   0.971  17.706  0.00  0.00    +0.000 A 
ATOM     30  N   UNL     1      50.710   1.390  17.226  0.00  0.00    +0.000 N 
ATOM     31  C   UNL     1      50.356   2.715  17.148  0.00  0.00    +0.000 A 
ATOM     32  O   UNL     1      49.251   3.057  16.738  0.00  0.00    +0.000 OA
ATOM     33  C   UNL     1      51.381   3.642  17.591  0.00  0.00    +0.000 A 
ATOM     34  H   UNL     1      50.015   0.724  16.925  0.00  0.00    +0.000 HD
ENDBRANCH  21  24
ENDBRANCH  19  20
ENDBRANCH   4  19
TORSDOF 8
ENDMDL
MODEL 5
REMARK VINA RESULT:    -6.519      4.848      8.390
REMARK INTER + INTRA:         -11.253
REMARK INTER:                  -9.976
REMARK INTRA:                  -1.277
REMARK UNBOUND:                -1.686
REMARK  Name = 
REMARK  10 active torsions:
REMARK  status: ('A' for Active; 'I' for Inactive)
REMARK    1  A    between atoms: C_1  and  O_2
REMARK    2  A    between atoms: O_2  and  C_3
REMARK    3  A    between atoms: C_7  and  C_8
REMARK    4  A    between atoms: C_8  and  N_9
REMARK    5  A    between atoms: N_9  and  C_10
REMARK    6  A    between atoms: N_9  and  C_11
REMARK    7  A    between atoms: C_11  and  C_12
REMARK    8  A    between atoms: C_15  and  C_16
REMARK    9  A    between atoms: C_16  and  N_17
REMARK   10  A    between atoms: C_18  and  C_20
REMARK                            x       y       z     vdW  Elec       q    Type
REMARK                         _______ _______ _______ _____ _____    ______ ____
ROOT
ATOM      1  C   UNL     1      46.369   5.880  12.540  0.00  0.00    +0.000 A 
ATOM      2  C   UNL     1      47.124   5.781  13.717  0.00  0.00    +0.000 A 
ATOM      3  C   UNL     1      48.341   6.457  13.838  0.00  0.00    +0.000 A 
ATOM      4  C   UNL     1      48.821   7.247  12.785  0.00  0.00    +0.000 A 
ATOM      5  C   UNL     1      48.087   7.309  11.594  0.00  0.00    +0.000 A 
ATOM      6  C   UNL     1      46.872   6.635  11.473  0.00  0.00    +0.000 A 
ENDROOT
BRANCH   1   7
ATOM      7  C   UNL     1      45.023   5.201  12.417  0.00  0.00    +0.000 C 
BRANCH   7   8
ATOM      8  N   UNL     1      44.335   5.476  11.141  0.00  0.00    +0.000 NA
ATOM      9  C   UNL     1      43.168   6.331  11.407  0.00  0.00    +0.000 C 
BRANCH   8  10
ATOM     10  C   UNL     1      43.923   4.217  10.474  0.00  0.00    +0.000 C 
BRANCH  10  15
ATOM     11  C   UNL     1      45.887   1.892   8.411  0.00  0.00    +0.000 A 
ATOM     12  C   UNL     1      46.530   2.696   7.483  0.00  0.00    +0.000 A 
ATOM     13  C   UNL     1      46.391   4.076   7.598  0.00  0.00    +0.000 A 
ATOM     14  C   UNL     1      45.598   4.596   8.615  0.00  0.00    +0.000 A 
ATOM     15  C   UNL     1      44.955   3.712   9.481  0.00  0.00    +0.000 A 
ATOM     16  N   UNL     1      45.110   2.370   9.402  0.00  0.00    +0.000 NA
BRANCH  11  18
ATOM     17  C   UNL     1      47.029   0.189   7.304  0.00  0.00    +0.000 C 
ATOM     18  O   UNL     1      46.029   0.527   8.261  0.00  0.00    +0.000 OA
ENDBRANCH  11  18
ENDBRANCH  10  15
ENDBRANCH   8  10
ENDBRANCH   7   8
ENDBRANCH   1   7
BRANCH   4  19
ATOM     19  C   UNL     1      50.123   7.990  12.897  0.00  0.00    +0.000 C 
BRANCH  19  20
ATOM     20  N   UNL     1      50.646   8.308  11.594  0.00  0.00    +0.000 N 
ATOM     21  C   UNL     1      51.984   8.524  11.398  0.00  0.00    +0.000 C 
ATOM     22  O   UNL     1      52.801   8.415  12.308  0.00  0.00    +0.000 OA
ATOM     23  H   UNL     1      49.978   8.617  10.894  0.00  0.00    +0.000 HD
BRANCH  21  24
ATOM     24  C   UNL     1      52.401   8.835  10.026  0.00  0.00    +0.000 A 
ATOM     25  C   UNL     1      52.271  10.133   9.547  0.00  0.00    +0.000 A 
ATOM     26  S   UNL     1      52.857  10.339   7.961  0.00  0.00    +0.000 S 
ATOM     27  C   UNL     1      53.255   8.689   7.834  0.00  0.00    +0.000 A 
ATOM     28  N   UNL     1      53.800   8.188   6.693  0.00  0.00    +0.000 NA
ATOM     29  C   UNL     1      54.032   6.919   6.727  0.00  0.00    +0.000 A 
ATOM     30  N   UNL     1      53.770   6.104   7.799  0.00  0.00    +0.000 N 
ATOM     31  C   UNL     1      53.244   6.570   8.978  0.00  0.00    +0.000 A 
ATOM     32  O   UNL     1      53.046   5.820   9.929  0.00  0.00    +0.000 OA
ATOM     33  C   UNL     1      52.959   7.993   8.993  0.00  0.00    +0.000 A 
ATOM     34  H   UNL     1      53.979   5.118   7.761  0.00  0.00    +0.000 HD
ENDBRANCH  21  24
ENDBRANCH  19  20
ENDBRANCH   4  19
TORSDOF 8
ENDMDL
MODEL 6
REMARK VINA RESULT:    -6.274      3.351      8.832
REMARK INTER + INTRA:         -10.894
REMARK INTER:                 -10.413
REMARK INTRA:                  -0.480
REMARK UNBOUND:                -1.686
REMARK  Name = 
REMARK  10 active torsions:
REMARK  status: ('A' for Active; 'I' for Inactive)
REMARK    1  A    between atoms: C_1  and  O_2
REMARK    2  A    between atoms: O_2  and  C_3
REMARK    3  A    between atoms: C_7  and  C_8
REMARK    4  A    between atoms: C_8  and  N_9
REMARK    5  A    between atoms: N_9  and  C_10
REMARK    6  A    between atoms: N_9  and  C_11
REMARK    7  A    between atoms: C_11  and  C_12
REMARK    8  A    between atoms: C_15  and  C_16
REMARK    9  A    between atoms: C_16  and  N_17
REMARK   10  A    between atoms: C_18  and  C_20
REMARK                            x       y       z     vdW  Elec       q    Type
REMARK                         _______ _______ _______ _____ _____    ______ ____
ROOT
ATOM      1  C   UNL     1      46.295   6.493  11.956  0.00  0.00    +0.000 A 
ATOM      2  C   UNL     1      45.614   7.693  12.202  0.00  0.00    +0.000 A 
ATOM      3  C   UNL     1      46.168   8.663  13.043  0.00  0.00    +0.000 A 
ATOM      4  C   UNL     1      47.414   8.450  13.646  0.00  0.00    +0.000 A 
ATOM      5  C   UNL     1      48.072   7.232  13.435  0.00  0.00    +0.000 A 
ATOM      6  C   UNL     1      47.520   6.264  12.595  0.00  0.00    +0.000 A 
ENDROOT
BRANCH   1   7
ATOM      7  C   UNL     1      45.735   5.459  11.004  0.00  0.00    +0.000 C 
BRANCH   7   8
ATOM      8  N   UNL     1      44.366   5.026  11.338  0.00  0.00    +0.000 NA
ATOM      9  C   UNL     1      44.442   3.916  12.300  0.00  0.00    +0.000 C 
BRANCH   8  10
ATOM     10  C   UNL     1      43.622   4.617  10.122  0.00  0.00    +0.000 C 
BRANCH  10  15
ATOM     11  C   UNL     1      45.928   3.498   7.486  0.00  0.00    +0.000 A 
ATOM     12  C   UNL     1      46.166   2.163   7.764  0.00  0.00    +0.000 A 
ATOM     13  C   UNL     1      45.462   1.573   8.811  0.00  0.00    +0.000 A 
ATOM     14  C   UNL     1      44.572   2.343   9.550  0.00  0.00    +0.000 A 
ATOM     15  C   UNL     1      44.423   3.691   9.224  0.00  0.00    +0.000 A 
ATOM     16  N   UNL     1      45.074   4.268   8.188  0.00  0.00    +0.000 NA
BRANCH  11  18
ATOM     17  C   UNL     1      47.040   3.099   5.477  0.00  0.00    +0.000 C 
ATOM     18  O   UNL     1      46.652   4.061   6.455  0.00  0.00    +0.000 OA
ENDBRANCH  11  18
ENDBRANCH  10  15
ENDBRANCH   8  10
ENDBRANCH   7   8
ENDBRANCH   1   7
BRANCH   4  19
ATOM     19  C   UNL     1      48.033   9.484  14.547  0.00  0.00    +0.000 C 
BRANCH  19  20
ATOM     20  N   UNL     1      47.711   9.221  15.925  0.00  0.00    +0.000 N 
ATOM     21  C   UNL     1      48.685   8.908  16.835  0.00  0.00    +0.000 C 
ATOM     22  O   UNL     1      49.875   8.880  16.531  0.00  0.00    +0.000 OA
ATOM     23  H   UNL     1      46.739   9.023  16.140  0.00  0.00    +0.000 HD
BRANCH  21  24
ATOM     24  C   UNL     1      48.240   8.666  18.212  0.00  0.00    +0.000 A 
ATOM     25  C   UNL     1      47.945   9.744  19.037  0.00  0.00    +0.000 A 
ATOM     26  S   UNL     1      47.385   9.292  20.581  0.00  0.00    +0.000 S 
ATOM     27  C   UNL     1      47.569   7.637  20.223  0.00  0.00    +0.000 A 
ATOM     28  N   UNL     1      47.267   6.686  21.148  0.00  0.00    +0.000 NA
ATOM     29  C   UNL     1      47.473   5.475  20.751  0.00  0.00    +0.000 A 
ATOM     30  N   UNL     1      47.952   5.128  19.514  0.00  0.00    +0.000 N 
ATOM     31  C   UNL     1      48.246   6.053  18.542  0.00  0.00    +0.000 A 
ATOM     32  O   UNL     1      48.649   5.708  17.435  0.00  0.00    +0.000 OA
ATOM     33  C   UNL     1      48.037   7.433  18.937  0.00  0.00    +0.000 A 
ATOM     34  H   UNL     1      48.088   4.160  19.265  0.00  0.00    +0.000 HD
ENDBRANCH  21  24
ENDBRANCH  19  20
ENDBRANCH   4  19
TORSDOF 8
ENDMDL
MODEL 7
REMARK VINA RESULT:    -6.272      3.721      9.254
REMARK INTER + INTRA:         -10.890
REMARK INTER:                 -10.306
REMARK INTRA:                  -0.584
REMARK UNBOUND:                -1.686
REMARK  Name = 
REMARK  10 active torsions:
REMARK  status: ('A' for Active; 'I' for Inactive)
REMARK    1  A    between atoms: C_1  and  O_2
REMARK    2  A    between atoms: O_2  and  C_3
REMARK    3  A    between atoms: C_7  and  C_8
REMARK    4  A    between atoms: C_8  and  N_9
REMARK    5  A    between atoms: N_9  and  C_10
REMARK    6  A    between atoms: N_9  and  C_11
REMARK    7  A    between atoms: C_11  and  C_12
REMARK    8  A    between atoms: C_15  and  C_16
REMARK    9  A    between atoms: C_16  and  N_17
REMARK   10  A    between atoms: C_18  and  C_20
REMARK                            x       y       z     vdW  Elec       q    Type
REMARK                         _______ _______ _______ _____ _____    ______ ____
ROOT
ATOM      1  C   UNL     1      46.290   6.494  11.968  0.00  0.00    +0.000 A 
ATOM      2  C   UNL     1      45.617   7.692  12.247  0.00  0.00    +0.000 A 
ATOM      3  C   UNL     1      46.174   8.633  13.117  0.00  0.00    +0.000 A 
ATOM      4  C   UNL     1      47.417   8.393  13.719  0.00  0.00    +0.000 A 
ATOM      5  C   UNL     1      48.066   7.176  13.474  0.00  0.00    +0.000 A 
ATOM      6  C   UNL     1      47.511   6.237  12.605  0.00  0.00    +0.000 A 
ENDROOT
BRANCH   1   7
ATOM      7  C   UNL     1      45.726   5.493  10.983  0.00  0.00    +0.000 C 
BRANCH   7   8
ATOM      8  N   UNL     1      44.361   5.043  11.312  0.00  0.00    +0.000 NA
ATOM      9  C   UNL     1      44.446   3.934  12.274  0.00  0.00    +0.000 C 
BRANCH   8  10
ATOM     10  C   UNL     1      43.627   4.627  10.093  0.00  0.00    +0.000 C 
BRANCH  10  15
ATOM     11  C   UNL     1      45.949   3.477   7.484  0.00  0.00    +0.000 A 
ATOM     12  C   UNL     1      46.183   2.144   7.779  0.00  0.00    +0.000 A 
ATOM     13  C   UNL     1      45.472   1.566   8.826  0.00  0.00    +0.000 A 
ATOM     14  C   UNL     1      44.577   2.345   9.551  0.00  0.00    +0.000 A 
ATOM     15  C   UNL     1      44.432   3.690   9.211  0.00  0.00    +0.000 A 
ATOM     16  N   UNL     1      45.091   4.256   8.172  0.00  0.00    +0.000 NA
BRANCH  11  18
ATOM     17  C   UNL     1      47.071   3.056   5.485  0.00  0.00    +0.000 C 
ATOM     18  O   UNL     1      46.681   4.029   6.452  0.00  0.00    +0.000 OA
ENDBRANCH  11  18
ENDBRANCH  10  15
ENDBRANCH   8  10
ENDBRANCH   7   8
ENDBRANCH   1   7
BRANCH   4  19
ATOM     19  C   UNL     1      48.039   9.395  14.652  0.00  0.00    +0.000 C 
BRANCH  19  20
ATOM     20  N   UNL     1      47.710   9.094  16.020  0.00  0.00    +0.000 N 
ATOM     21  C   UNL     1      48.666   8.672  16.905  0.00  0.00    +0.000 C 
ATOM     22  O   UNL     1      49.848   8.573  16.588  0.00  0.00    +0.000 OA
ATOM     23  H   UNL     1      46.727   8.955  16.237  0.00  0.00    +0.000 HD
BRANCH  21  24
ATOM     24  C   UNL     1      48.215   8.401  18.275  0.00  0.00    +0.000 A 
ATOM     25  C   UNL     1      48.353   7.122  18.802  0.00  0.00    +0.000 A 
ATOM     26  S   UNL     1      47.839   6.989  20.420  0.00  0.00    +0.000 S 
ATOM     27  C   UNL     1      47.359   8.623  20.460  0.00  0.00    +0.000 A 
ATOM     28  N   UNL     1      46.808   9.161  21.581  0.00  0.00    +0.000 NA
ATOM     29  C   UNL     1      46.471  10.402  21.464  0.00  0.00    +0.000 A 
ATOM     30  N   UNL     1      46.637  11.154  20.329  0.00  0.00    +0.000 N 
ATOM     31  C   UNL     1      47.209  10.659  19.184  0.00  0.00    +0.000 A 
ATOM     32  O   UNL     1      47.366  11.365  18.192  0.00  0.00    +0.000 OA
ATOM     33  C   UNL     1      47.603   9.264  19.258  0.00  0.00    +0.000 A 
ATOM     34  H   UNL     1      46.354  12.122  20.305  0.00  0.00    +0.000 HD
ENDBRANCH  21  24
ENDBRANCH  19  20
ENDBRANCH   4  19
TORSDOF 8
ENDMDL
MODEL 8
REMARK VINA RESULT:    -5.946      3.431      9.238
REMARK INTER + INTRA:         -10.412
REMARK INTER:                  -9.154
REMARK INTRA:                  -1.258
REMARK UNBOUND:                -1.686
REMARK  Name = 
REMARK  10 active torsions:
REMARK  status: ('A' for Active; 'I' for Inactive)
REMARK    1  A    between atoms: C_1  and  O_2
REMARK    2  A    between atoms: O_2  and  C_3
REMARK    3  A    between atoms: C_7  and  C_8
REMARK    4  A    between atoms: C_8  and  N_9
REMARK    5  A    between atoms: N_9  and  C_10
REMARK    6  A    between atoms: N_9  and  C_11
REMARK    7  A    between atoms: C_11  and  C_12
REMARK    8  A    between atoms: C_15  and  C_16
REMARK    9  A    between atoms: C_16  and  N_17
REMARK   10  A    between atoms: C_18  and  C_20
REMARK                            x       y       z     vdW  Elec       q    Type
REMARK                         _______ _______ _______ _____ _____    ______ ____
ROOT
ATOM      1  C   UNL     1      47.041   5.041  14.199  0.00  0.00    +0.000 A 
ATOM      2  C   UNL     1      47.008   4.309  15.394  0.00  0.00    +0.000 A 
ATOM      3  C   UNL     1      47.766   4.716  16.496  0.00  0.00    +0.000 A 
ATOM      4  C   UNL     1      48.565   5.865  16.421  0.00  0.00    +0.000 A 
ATOM      5  C   UNL     1      48.631   6.568  15.211  0.00  0.00    +0.000 A 
ATOM      6  C   UNL     1      47.874   6.163  14.112  0.00  0.00    +0.000 A 
ENDROOT
BRANCH   1   7
ATOM      7  C   UNL     1      46.182   4.645  13.018  0.00  0.00    +0.000 C 
BRANCH   7   8
ATOM      8  N   UNL     1      44.991   5.497  12.840  0.00  0.00    +0.000 NA
ATOM      9  C   UNL     1      43.787   4.674  13.030  0.00  0.00    +0.000 C 
BRANCH   8  10
ATOM     10  C   UNL     1      44.986   6.135  11.501  0.00  0.00    +0.000 C 
BRANCH  10  15
ATOM     11  C   UNL     1      44.358   9.758  11.489  0.00  0.00    +0.000 A 
ATOM     12  C   UNL     1      45.525  10.323  11.976  0.00  0.00    +0.000 A 
ATOM     13  C   UNL     1      46.607   9.484  12.231  0.00  0.00    +0.000 A 
ATOM     14  C   UNL     1      46.472   8.117  12.014  0.00  0.00    +0.000 A 
ATOM     15  C   UNL     1      45.248   7.629  11.559  0.00  0.00    +0.000 A 
ATOM     16  N   UNL     1      44.200   8.437  11.274  0.00  0.00    +0.000 NA
BRANCH  11  18
ATOM     17  C   UNL     1      42.633  10.332  10.031  0.00  0.00    +0.000 C 
ATOM     18  O   UNL     1      43.297  10.611  11.262  0.00  0.00    +0.000 OA
ENDBRANCH  11  18
ENDBRANCH  10  15
ENDBRANCH   8  10
ENDBRANCH   7   8
ENDBRANCH   1   7
BRANCH   4  19
ATOM     19  C   UNL     1      49.382   6.326  17.596  0.00  0.00    +0.000 C 
BRANCH  19  20
ATOM     20  N   UNL     1      50.366   5.338  17.955  0.00  0.00    +0.000 N 
ATOM     21  C   UNL     1      51.604   5.323  17.370  0.00  0.00    +0.000 C 
ATOM     22  O   UNL     1      51.947   6.171  16.550  0.00  0.00    +0.000 OA
ATOM     23  H   UNL     1      50.033   4.516  18.450  0.00  0.00    +0.000 HD
BRANCH  21  24
ATOM     24  C   UNL     1      52.526   4.274  17.819  0.00  0.00    +0.000 A 
ATOM     25  C   UNL     1      53.777   4.625  18.313  0.00  0.00    +0.000 A 
ATOM     26  S   UNL     1      54.700   3.297  18.848  0.00  0.00    +0.000 S 
ATOM     27  C   UNL     1      53.484   2.197  18.388  0.00  0.00    +0.000 A 
ATOM     28  N   UNL     1      53.651   0.859  18.565  0.00  0.00    +0.000 NA
ATOM     29  C   UNL     1      52.661   0.140  18.153  0.00  0.00    +0.000 A 
ATOM     30  N   UNL     1      51.518   0.638  17.581  0.00  0.00    +0.000 N 
ATOM     31  C   UNL     1      51.297   1.982  17.405  0.00  0.00    +0.000 A 
ATOM     32  O   UNL     1      50.252   2.397  16.913  0.00  0.00    +0.000 OA
ATOM     33  C   UNL     1      52.382   2.837  17.848  0.00  0.00    +0.000 A 
ATOM     34  H   UNL     1      50.778   0.020  17.283  0.00  0.00    +0.000 HD
ENDBRANCH  21  24
ENDBRANCH  19  20
ENDBRANCH   4  19
TORSDOF 8
ENDMDL
MODEL 9
REMARK VINA RESULT:    -5.661      3.435      7.238
REMARK INTER + INTRA:          -9.994
REMARK INTER:                  -8.041
REMARK INTRA:                  -1.953
REMARK UNBOUND:                -1.686
REMARK  Name = 
REMARK  10 active torsions:
REMARK  status: ('A' for Active; 'I' for Inactive)
REMARK    1  A    between atoms: C_1  and  O_2
REMARK    2  A    between atoms: O_2  and  C_3
REMARK    3  A    between atoms: C_7  and  C_8
REMARK    4  A    between atoms: C_8  and  N_9
REMARK    5  A    between atoms: N_9  and  C_10
REMARK    6  A    between atoms: N_9  and  C_11
REMARK    7  A    between atoms: C_11  and  C_12
REMARK    8  A    between atoms: C_15  and  C_16
REMARK    9  A    between atoms: C_16  and  N_17
REMARK   10  A    between atoms: C_18  and  C_20
REMARK                            x       y       z     vdW  Elec       q    Type
REMARK                         _______ _______ _______ _____ _____    ______ ____
ROOT
ATOM      1  C   UNL     1      48.060  10.280  12.349  0.00  0.00    +0.000 A 
ATOM      2  C   UNL     1      48.476  10.576  13.655  0.00  0.00    +0.000 A 
ATOM      3  C   UNL     1      49.624   9.982  14.186  0.00  0.00    +0.000 A 
ATOM      4  C   UNL     1      50.379   9.087  13.416  0.00  0.00    +0.000 A 
ATOM      5  C   UNL     1      49.937   8.758  12.128  0.00  0.00    +0.000 A 
ATOM      6  C   UNL     1      48.791   9.351  11.598  0.00  0.00    +0.000 A 
ENDROOT
BRANCH   1   7
ATOM      7  C   UNL     1      46.851  10.959  11.743  0.00  0.00    +0.000 C 
BRANCH   7   8
ATOM      8  N   UNL     1      45.745  10.034  11.434  0.00  0.00    +0.000 NA
ATOM      9  C   UNL     1      44.581  10.818  10.993  0.00  0.00    +0.000 C 
BRANCH   8  10
ATOM     10  C   UNL     1      45.401   9.200  12.611  0.00  0.00    +0.000 C 
BRANCH  10  15
ATOM     11  C   UNL     1      46.396   5.677  12.954  0.00  0.00    +0.000 A 
ATOM     12  C   UNL     1      45.517   4.979  12.142  0.00  0.00    +0.000 A 
ATOM     13  C   UNL     1      44.616   5.705  11.370  0.00  0.00    +0.000 A 
ATOM     14  C   UNL     1      44.610   7.093  11.456  0.00  0.00    +0.000 A 
ATOM     15  C   UNL     1      45.504   7.712  12.329  0.00  0.00    +0.000 A 
ATOM     16  N   UNL     1      46.409   7.020  13.060  0.00  0.00    +0.000 NA
BRANCH  11  18
ATOM     17  C   UNL     1      46.922   3.547  13.740  0.00  0.00    +0.000 C 
ATOM     18  O   UNL     1      47.266   4.931  13.722  0.00  0.00    +0.000 OA
ENDBRANCH  11  18
ENDBRANCH  10  15
ENDBRANCH   8  10
ENDBRANCH   7   8
ENDBRANCH   1   7
BRANCH   4  19
ATOM     19  C   UNL     1      51.623   8.443  13.963  0.00  0.00    +0.000 C 
BRANCH  19  20
ATOM     20  N   UNL     1      51.294   7.301  14.775  0.00  0.00    +0.000 N 
ATOM     21  C   UNL     1      51.685   7.223  16.085  0.00  0.00    +0.000 C 
ATOM     22  O   UNL     1      52.292   8.136  16.638  0.00  0.00    +0.000 OA
ATOM     23  H   UNL     1      50.998   6.460  14.287  0.00  0.00    +0.000 HD
BRANCH  21  24
ATOM     24  C   UNL     1      51.288   6.014  16.815  0.00  0.00    +0.000 A 
ATOM     25  C   UNL     1      52.262   5.220  17.408  0.00  0.00    +0.000 A 
ATOM     26  S   UNL     1      51.633   3.890  18.267  0.00  0.00    +0.000 S 
ATOM     27  C   UNL     1      50.037   4.294  17.831  0.00  0.00    +0.000 A 
ATOM     28  N   UNL     1      48.988   3.532  18.241  0.00  0.00    +0.000 NA
ATOM     29  C   UNL     1      47.838   3.941  17.821  0.00  0.00    +0.000 A 
ATOM     30  N   UNL     1      47.641   5.044  17.030  0.00  0.00    +0.000 N 
ATOM     31  C   UNL     1      48.667   5.855  16.613  0.00  0.00    +0.000 A 
ATOM     32  O   UNL     1      48.455   6.850  15.926  0.00  0.00    +0.000 OA
ATOM     33  C   UNL     1      49.985   5.438  17.054  0.00  0.00    +0.000 A 
ATOM     34  H   UNL     1      46.712   5.311  16.738  0.00  0.00    +0.000 HD
ENDBRANCH  21  24
ENDBRANCH  19  20
ENDBRANCH   4  19
TORSDOF 8
ENDMDL
