MODEL 1
REMARK VINA RESULT:    -8.137      0.000      0.000
REMARK INTER + INTRA:         -13.626
REMARK INTER:                 -12.655
REMARK INTRA:                  -0.970
REMARK UNBOUND:                -0.970
REMARK  Name = 
REMARK  10 active torsions:
REMARK  status: ('A' for Active; 'I' for Inactive)
REMARK    1  A    between atoms: C_2  and  C_23
REMARK    2  A    between atoms: N_3  and  C_4
REMARK    3  A    between atoms: C_4  and  C_5
REMARK    4  A    between atoms: C_8  and  C_9
REMARK    5  A    between atoms: C_9  and  N_10
REMARK    6  A    between atoms: N_10  and  C_11
REMARK    7  A    between atoms: N_10  and  C_14
REMARK    8  A    between atoms: C_11  and  C_12
REMARK    9  A    between atoms: C_12  and  O_13
REMARK   10  A    between atoms: C_14  and  C_15
REMARK                            x       y       z     vdW  Elec       q    Type
REMARK                         _______ _______ _______ _____ _____    ______ ____
ROOT
ATOM      1  C   UNL     1      48.053   6.600  13.694  0.00  0.00    +0.000 A 
ATOM      2  C   UNL     1      47.126   5.574  13.911  0.00  0.00    +0.000 A 
ATOM      3  C   UNL     1      46.191   5.250  12.932  0.00  0.00    +0.000 A 
ATOM      4  C   UNL     1      46.127   5.994  11.749  0.00  0.00    +0.000 A 
ATOM      5  C   UNL     1      47.131   6.934  11.479  0.00  0.00    +0.000 A 
ATOM      6  C   UNL     1      48.100   7.226  12.441  0.00  0.00    +0.000 A 
ENDROOT
BRANCH   1   7
ATOM      7  C   UNL     1      48.931   7.047  14.822  0.00  0.00    +0.000 C 
BRANCH   7  10
ATOM      8  O   UNL     1      50.640   5.785  16.489  0.00  0.00    +0.000 OA
ATOM      9  C   UNL     1      49.478   5.905  16.871  0.00  0.00    +0.000 C 
ATOM     10  N   UNL     1      48.525   6.516  16.091  0.00  0.00    +0.000 N 
ATOM     11  H   UNL     1      47.608   6.736  16.451  0.00  0.00    +0.000 HD
BRANCH   9  12
ATOM     12  C   UNL     1      49.036   5.417  18.160  0.00  0.00    +0.000 A 
ATOM     13  C   UNL     1      49.063   4.124  18.728  0.00  0.00    +0.000 A 
ATOM     14  N   UNL     1      48.580   4.076  19.970  0.00  0.00    +0.000 NA
ATOM     15  N   UNL     1      48.230   5.358  20.251  0.00  0.00    +0.000 N 
ATOM     16  C   UNL     1      47.703   5.847  21.452  0.00  0.00    +0.000 A 
ATOM     17  C   UNL     1      47.396   7.154  21.567  0.00  0.00    +0.000 A 
ATOM     18  C   UNL     1      47.611   8.029  20.434  0.00  0.00    +0.000 A 
ATOM     19  C   UNL     1      48.130   7.568  19.281  0.00  0.00    +0.000 A 
ATOM     20  C   UNL     1      48.472   6.190  19.159  0.00  0.00    +0.000 A 
ENDBRANCH   9  12
ENDBRANCH   7  10
ENDBRANCH   1   7
BRANCH   4  21
ATOM     21  C   UNL     1      44.951   5.826  10.811  0.00  0.00    +0.000 C 
BRANCH  21  22
ATOM     22  N   UNL     1      44.524   4.410  10.631  0.00  0.00    +0.000 NA
BRANCH  22  23
ATOM     23  C   UNL     1      43.289   4.108  11.403  0.00  0.00    +0.000 C 
BRANCH  23  24
ATOM     24  C   UNL     1      42.497   5.335  11.913  0.00  0.00    +0.000 C 
BRANCH  24  25
ATOM     25  O   UNL     1      42.547   5.411  13.338  0.00  0.00    +0.000 OA
ATOM     26  H   UNL     1      41.834   6.009  13.623  0.00  0.00    +0.000 HD
ENDBRANCH  24  25
ENDBRANCH  23  24
ENDBRANCH  22  23
BRANCH  22  27
ATOM     27  C   UNL     1      44.298   4.157   9.194  0.00  0.00    +0.000 C 
BRANCH  27  28
ATOM     28  C   UNL     1      45.358   3.311   8.522  0.00  0.00    +0.000 A 
ATOM     29  C   UNL     1      45.456   1.937   8.785  0.00  0.00    +0.000 A 
ATOM     30  C   UNL     1      46.340   1.141   8.054  0.00  0.00    +0.000 A 
ATOM     31  C   UNL     1      47.149   1.715   7.074  0.00  0.00    +0.000 A 
ATOM     32  C   UNL     1      47.102   3.089   6.847  0.00  0.00    +0.000 A 
ATOM     33  C   UNL     1      46.209   3.884   7.567  0.00  0.00    +0.000 A 
ENDBRANCH  27  28
ENDBRANCH  22  27
ENDBRANCH  21  22
ENDBRANCH   4  21
TORSDOF 10
ENDMDL
MODEL 2
REMARK VINA RESULT:    -8.097      2.039      2.704
REMARK INTER + INTRA:         -13.565
REMARK INTER:                 -12.386
REMARK INTRA:                  -1.178
REMARK UNBOUND:                -0.970
REMARK  Name = 
REMARK  10 active torsions:
REMARK  status: ('A' for Active; 'I' for Inactive)
REMARK    1  A    between atoms: C_2  and  C_23
REMARK    2  A    between atoms: N_3  and  C_4
REMARK    3  A    between atoms: C_4  and  C_5
REMARK    4  A    between atoms: C_8  and  C_9
REMARK    5  A    between atoms: C_9  and  N_10
REMARK    6  A    between atoms: N_10  and  C_11
REMARK    7  A    between atoms: N_10  and  C_14
REMARK    8  A    between atoms: C_11  and  C_12
REMARK    9  A    between atoms: C_12  and  O_13
REMARK   10  A    between atoms: C_14  and  C_15
REMARK                            x       y       z     vdW  Elec       q    Type
REMARK                         _______ _______ _______ _____ _____    ______ ____
ROOT
ATOM      1  C   UNL     1      46.968   8.054  12.960  0.00  0.00    +0.000 A 
ATOM      2  C   UNL     1      47.530   7.137  12.063  0.00  0.00    +0.000 A 
ATOM      3  C   UNL     1      46.715   6.384  11.222  0.00  0.00    +0.000 A 
ATOM      4  C   UNL     1      45.323   6.491  11.314  0.00  0.00    +0.000 A 
ATOM      5  C   UNL     1      44.767   7.495  12.117  0.00  0.00    +0.000 A 
ATOM      6  C   UNL     1      45.586   8.285  12.927  0.00  0.00    +0.000 A 
ENDROOT
BRANCH   1   7
ATOM      7  C   UNL     1      47.846   8.723  13.972  0.00  0.00    +0.000 C 
BRANCH   7  10
ATOM      8  O   UNL     1      50.167   7.421  14.433  0.00  0.00    +0.000 OA
ATOM      9  C   UNL     1      49.290   7.311  15.287  0.00  0.00    +0.000 C 
ATOM     10  N   UNL     1      48.065   7.920  15.140  0.00  0.00    +0.000 N 
ATOM     11  H   UNL     1      47.393   7.944  15.893  0.00  0.00    +0.000 HD
BRANCH   9  12
ATOM     12  C   UNL     1      49.483   6.541  16.496  0.00  0.00    +0.000 A 
ATOM     13  C   UNL     1      50.333   6.743  17.607  0.00  0.00    +0.000 A 
ATOM     14  N   UNL     1      50.204   5.813  18.554  0.00  0.00    +0.000 NA
ATOM     15  N   UNL     1      49.246   4.975  18.082  0.00  0.00    +0.000 N 
ATOM     16  C   UNL     1      48.717   3.848  18.724  0.00  0.00    +0.000 A 
ATOM     17  C   UNL     1      47.771   3.109  18.112  0.00  0.00    +0.000 A 
ATOM     18  C   UNL     1      47.325   3.494  16.790  0.00  0.00    +0.000 A 
ATOM     19  C   UNL     1      47.819   4.583  16.172  0.00  0.00    +0.000 A 
ATOM     20  C   UNL     1      48.808   5.378  16.822  0.00  0.00    +0.000 A 
ENDBRANCH   9  12
ENDBRANCH   7  10
ENDBRANCH   1   7
BRANCH   4  21
ATOM     21  C   UNL     1      44.439   5.489  10.604  0.00  0.00    +0.000 C 
BRANCH  21  22
ATOM     22  N   UNL     1      45.100   4.178  10.349  0.00  0.00    +0.000 NA
BRANCH  22  23
ATOM     23  C   UNL     1      44.898   3.234  11.481  0.00  0.00    +0.000 C 
BRANCH  23  24
ATOM     24  C   UNL     1      43.457   3.144  12.034  0.00  0.00    +0.000 C 
BRANCH  24  25
ATOM     25  O   UNL     1      42.860   1.894  11.686  0.00  0.00    +0.000 OA
ATOM     26  H   UNL     1      41.980   1.867  12.101  0.00  0.00    +0.000 HD
ENDBRANCH  24  25
ENDBRANCH  23  24
ENDBRANCH  22  23
BRANCH  22  27
ATOM     27  C   UNL     1      44.556   3.600   9.105  0.00  0.00    +0.000 C 
BRANCH  27  28
ATOM     28  C   UNL     1      45.570   2.888   8.235  0.00  0.00    +0.000 A 
ATOM     29  C   UNL     1      46.334   3.595   7.295  0.00  0.00    +0.000 A 
ATOM     30  C   UNL     1      47.364   2.956   6.603  0.00  0.00    +0.000 A 
ATOM     31  C   UNL     1      47.622   1.604   6.825  0.00  0.00    +0.000 A 
ATOM     32  C   UNL     1      46.829   0.879   7.712  0.00  0.00    +0.000 A 
ATOM     33  C   UNL     1      45.808   1.519   8.416  0.00  0.00    +0.000 A 
ENDBRANCH  27  28
ENDBRANCH  22  27
ENDBRANCH  21  22
ENDBRANCH   4  21
TORSDOF 10
ENDMDL
MODEL 3
REMARK VINA RESULT:    -7.227      2.267      2.926
REMARK INTER + INTRA:         -12.211
REMARK INTER:                 -11.152
REMARK INTRA:                  -1.059
REMARK UNBOUND:                -0.970
REMARK  Name = 
REMARK  10 active torsions:
REMARK  status: ('A' for Active; 'I' for Inactive)
REMARK    1  A    between atoms: C_2  and  C_23
REMARK    2  A    between atoms: N_3  and  C_4
REMARK    3  A    between atoms: C_4  and  C_5
REMARK    4  A    between atoms: C_8  and  C_9
REMARK    5  A    between atoms: C_9  and  N_10
REMARK    6  A    between atoms: N_10  and  C_11
REMARK    7  A    between atoms: N_10  and  C_14
REMARK    8  A    between atoms: C_11  and  C_12
REMARK    9  A    between atoms: C_12  and  O_13
REMARK   10  A    between atoms: C_14  and  C_15
REMARK                            x       y       z     vdW  Elec       q    Type
REMARK                         _______ _______ _______ _____ _____    ______ ____
ROOT
ATOM      1  C   UNL     1      47.404   7.706  13.682  0.00  0.00    +0.000 A 
ATOM      2  C   UNL     1      46.254   8.386  13.265  0.00  0.00    +0.000 A 
ATOM      3  C   UNL     1      45.394   7.813  12.333  0.00  0.00    +0.000 A 
ATOM      4  C   UNL     1      45.709   6.579  11.754  0.00  0.00    +0.000 A 
ATOM      5  C   UNL     1      46.788   5.843  12.261  0.00  0.00    +0.000 A 
ATOM      6  C   UNL     1      47.625   6.397  13.232  0.00  0.00    +0.000 A 
ENDROOT
BRANCH   1   7
ATOM      7  C   UNL     1      48.401   8.411  14.548  0.00  0.00    +0.000 C 
BRANCH   7  10
ATOM      8  O   UNL     1      49.819   9.036  16.760  0.00  0.00    +0.000 OA
ATOM      9  C   UNL     1      48.622   9.312  16.772  0.00  0.00    +0.000 C 
ATOM     10  N   UNL     1      47.807   9.020  15.703  0.00  0.00    +0.000 N 
ATOM     11  H   UNL     1      46.859   9.362  15.652  0.00  0.00    +0.000 HD
BRANCH   9  12
ATOM     12  C   UNL     1      47.991   9.960  17.902  0.00  0.00    +0.000 A 
ATOM     13  C   UNL     1      47.474  11.265  18.061  0.00  0.00    +0.000 A 
ATOM     14  N   UNL     1      46.938  11.484  19.263  0.00  0.00    +0.000 NA
ATOM     15  N   UNL     1      47.085  10.306  19.922  0.00  0.00    +0.000 N 
ATOM     16  C   UNL     1      46.651  10.003  21.218  0.00  0.00    +0.000 A 
ATOM     17  C   UNL     1      46.886   8.782  21.737  0.00  0.00    +0.000 A 
ATOM     18  C   UNL     1      47.597   7.805  20.939  0.00  0.00    +0.000 A 
ATOM     19  C   UNL     1      48.007   8.085  19.688  0.00  0.00    +0.000 A 
ATOM     20  C   UNL     1      47.746   9.370  19.129  0.00  0.00    +0.000 A 
ENDBRANCH   9  12
ENDBRANCH   7  10
ENDBRANCH   1   7
BRANCH   4  21
ATOM     21  C   UNL     1      44.930   6.084  10.555  0.00  0.00    +0.000 C 
BRANCH  21  22
ATOM     22  N   UNL     1      44.514   4.657  10.656  0.00  0.00    +0.000 NA
BRANCH  22  23
ATOM     23  C   UNL     1      43.346   4.490  11.562  0.00  0.00    +0.000 C 
BRANCH  23  24
ATOM     24  C   UNL     1      43.599   3.659  12.842  0.00  0.00    +0.000 C 
BRANCH  24  25
ATOM     25  O   UNL     1      44.174   2.392  12.515  0.00  0.00    +0.000 OA
ATOM     26  H   UNL     1      44.336   2.385  11.556  0.00  0.00    +0.000 HD
ENDBRANCH  24  25
ENDBRANCH  23  24
ENDBRANCH  22  23
BRANCH  22  27
ATOM     27  C   UNL     1      44.184   4.157   9.307  0.00  0.00    +0.000 C 
BRANCH  27  28
ATOM     28  C   UNL     1      45.277   3.348   8.641  0.00  0.00    +0.000 A 
ATOM     29  C   UNL     1      45.383   1.966   8.857  0.00  0.00    +0.000 A 
ATOM     30  C   UNL     1      46.302   1.209   8.129  0.00  0.00    +0.000 A 
ATOM     31  C   UNL     1      47.137   1.828   7.200  0.00  0.00    +0.000 A 
ATOM     32  C   UNL     1      47.081   3.209   7.023  0.00  0.00    +0.000 A 
ATOM     33  C   UNL     1      46.154   3.967   7.740  0.00  0.00    +0.000 A 
ENDBRANCH  27  28
ENDBRANCH  22  27
ENDBRANCH  21  22
ENDBRANCH   4  21
TORSDOF 10
ENDMDL
MODEL 4
REMARK VINA RESULT:    -6.998      1.232      1.850
REMARK INTER + INTRA:         -11.854
REMARK INTER:                 -11.318
REMARK INTRA:                  -0.535
REMARK UNBOUND:                -0.970
REMARK  Name = 
REMARK  10 active torsions:
REMARK  status: ('A' for Active; 'I' for Inactive)
REMARK    1  A    between atoms: C_2  and  C_23
REMARK    2  A    between atoms: N_3  and  C_4
REMARK    3  A    between atoms: C_4  and  C_5
REMARK    4  A    between atoms: C_8  and  C_9
REMARK    5  A    between atoms: C_9  and  N_10
REMARK    6  A    between atoms: N_10  and  C_11
REMARK    7  A    between atoms: N_10  and  C_14
REMARK    8  A    between atoms: C_11  and  C_12
REMARK    9  A    between atoms: C_12  and  O_13
REMARK   10  A    between atoms: C_14  and  C_15
REMARK                            x       y       z     vdW  Elec       q    Type
REMARK                         _______ _______ _______ _____ _____    ______ ____
ROOT
ATOM      1  C   UNL     1      48.031   6.722  13.635  0.00  0.00    +0.000 A 
ATOM      2  C   UNL     1      47.354   5.505  13.764  0.00  0.00    +0.000 A 
ATOM      3  C   UNL     1      46.363   5.148  12.853  0.00  0.00    +0.000 A 
ATOM      4  C   UNL     1      45.991   6.037  11.839  0.00  0.00    +0.000 A 
ATOM      5  C   UNL     1      46.753   7.195  11.632  0.00  0.00    +0.000 A 
ATOM      6  C   UNL     1      47.779   7.530  12.518  0.00  0.00    +0.000 A 
ENDROOT
BRANCH   1   7
ATOM      7  C   UNL     1      48.965   7.162  14.720  0.00  0.00    +0.000 C 
BRANCH   7  10
ATOM      8  O   UNL     1      49.396   8.476  17.040  0.00  0.00    +0.000 OA
ATOM      9  C   UNL     1      48.885   7.360  17.120  0.00  0.00    +0.000 C 
ATOM     10  N   UNL     1      48.639   6.601  16.000  0.00  0.00    +0.000 N 
ATOM     11  H   UNL     1      48.102   5.749  16.046  0.00  0.00    +0.000 HD
BRANCH   9  12
ATOM     12  C   UNL     1      48.508   6.774  18.388  0.00  0.00    +0.000 A 
ATOM     13  C   UNL     1      47.245   6.591  18.994  0.00  0.00    +0.000 A 
ATOM     14  N   UNL     1      47.304   5.976  20.176  0.00  0.00    +0.000 NA
ATOM     15  N   UNL     1      48.625   5.731  20.368  0.00  0.00    +0.000 N 
ATOM     16  C   UNL     1      49.213   5.067  21.452  0.00  0.00    +0.000 A 
ATOM     17  C   UNL     1      50.550   4.913  21.500  0.00  0.00    +0.000 A 
ATOM     18  C   UNL     1      51.358   5.449  20.424  0.00  0.00    +0.000 A 
ATOM     19  C   UNL     1      50.799   6.077  19.373  0.00  0.00    +0.000 A 
ATOM     20  C   UNL     1      49.383   6.228  19.310  0.00  0.00    +0.000 A 
ENDBRANCH   9  12
ENDBRANCH   7  10
ENDBRANCH   1   7
BRANCH   4  21
ATOM     21  C   UNL     1      44.744   5.775  11.023  0.00  0.00    +0.000 C 
BRANCH  21  22
ATOM     22  N   UNL     1      44.567   4.346  10.638  0.00  0.00    +0.000 NA
BRANCH  22  23
ATOM     23  C   UNL     1      43.420   3.724  11.354  0.00  0.00    +0.000 C 
BRANCH  23  24
ATOM     24  C   UNL     1      43.416   3.891  12.891  0.00  0.00    +0.000 C 
BRANCH  24  25
ATOM     25  O   UNL     1      42.573   4.977  13.279  0.00  0.00    +0.000 OA
ATOM     26  H   UNL     1      41.719   4.598  13.553  0.00  0.00    +0.000 HD
ENDBRANCH  24  25
ENDBRANCH  23  24
ENDBRANCH  22  23
BRANCH  22  27
ATOM     27  C   UNL     1      44.357   4.265   9.179  0.00  0.00    +0.000 C 
BRANCH  27  28
ATOM     28  C   UNL     1      45.308   3.340   8.449  0.00  0.00    +0.000 A 
ATOM     29  C   UNL     1      46.248   3.847   7.539  0.00  0.00    +0.000 A 
ATOM     30  C   UNL     1      47.212   3.005   6.982  0.00  0.00    +0.000 A 
ATOM     31  C   UNL     1      47.229   1.650   7.308  0.00  0.00    +0.000 A 
ATOM     32  C   UNL     1      46.261   1.126   8.164  0.00  0.00    +0.000 A 
ATOM     33  C   UNL     1      45.305   1.968   8.733  0.00  0.00    +0.000 A 
ENDBRANCH  27  28
ENDBRANCH  22  27
ENDBRANCH  21  22
ENDBRANCH   4  21
TORSDOF 10
ENDMDL
MODEL 5
REMARK VINA RESULT:    -6.902      3.442      5.897
REMARK INTER + INTRA:         -11.705
REMARK INTER:                 -10.629
REMARK INTRA:                  -1.076
REMARK UNBOUND:                -0.970
REMARK  Name = 
REMARK  10 active torsions:
REMARK  status: ('A' for Active; 'I' for Inactive)
REMARK    1  A    between atoms: C_2  and  C_23
REMARK    2  A    between atoms: N_3  and  C_4
REMARK    3  A    between atoms: C_4  and  C_5
REMARK    4  A    between atoms: C_8  and  C_9
REMARK    5  A    between atoms: C_9  and  N_10
REMARK    6  A    between atoms: N_10  and  C_11
REMARK    7  A    between atoms: N_10  and  C_14
REMARK    8  A    between atoms: C_11  and  C_12
REMARK    9  A    between atoms: C_12  and  O_13
REMARK   10  A    between atoms: C_14  and  C_15
REMARK                            x       y       z     vdW  Elec       q    Type
REMARK                         _______ _______ _______ _____ _____    ______ ____
ROOT
ATOM      1  C   UNL     1      47.892   6.961  13.775  0.00  0.00    +0.000 A 
ATOM      2  C   UNL     1      47.190   7.954  13.080  0.00  0.00    +0.000 A 
ATOM      3  C   UNL     1      46.268   7.608  12.097  0.00  0.00    +0.000 A 
ATOM      4  C   UNL     1      46.084   6.266  11.748  0.00  0.00    +0.000 A 
ATOM      5  C   UNL     1      46.688   5.269  12.526  0.00  0.00    +0.000 A 
ATOM      6  C   UNL     1      47.578   5.615  13.546  0.00  0.00    +0.000 A 
ENDROOT
BRANCH   1   7
ATOM      7  C   UNL     1      49.000   7.356  14.701  0.00  0.00    +0.000 C 
BRANCH   7  10
ATOM      8  O   UNL     1      50.121   9.642  13.799  0.00  0.00    +0.000 OA
ATOM      9  C   UNL     1      50.769   8.608  13.649  0.00  0.00    +0.000 C 
ATOM     10  N   UNL     1      50.282   7.389  14.058  0.00  0.00    +0.000 N 
ATOM     11  H   UNL     1      50.860   6.562  14.060  0.00  0.00    +0.000 HD
BRANCH   9  12
ATOM     12  C   UNL     1      52.081   8.603  13.039  0.00  0.00    +0.000 A 
ATOM     13  C   UNL     1      53.344   9.000  13.534  0.00  0.00    +0.000 A 
ATOM     14  N   UNL     1      54.340   8.816  12.666  0.00  0.00    +0.000 NA
ATOM     15  N   UNL     1      53.744   8.278  11.571  0.00  0.00    +0.000 N 
ATOM     16  C   UNL     1      54.366   7.866  10.386  0.00  0.00    +0.000 A 
ATOM     17  C   UNL     1      53.626   7.359   9.381  0.00  0.00    +0.000 A 
ATOM     18  C   UNL     1      52.192   7.258   9.546  0.00  0.00    +0.000 A 
ATOM     19  C   UNL     1      51.588   7.640  10.686  0.00  0.00    +0.000 A 
ATOM     20  C   UNL     1      52.367   8.162  11.759  0.00  0.00    +0.000 A 
ENDBRANCH   9  12
ENDBRANCH   7  10
ENDBRANCH   1   7
BRANCH   4  21
ATOM     21  C   UNL     1      45.295   5.907  10.507  0.00  0.00    +0.000 C 
BRANCH  21  22
ATOM     22  N   UNL     1      44.519   4.642  10.635  0.00  0.00    +0.000 NA
BRANCH  22  23
ATOM     23  C   UNL     1      43.271   4.842  11.421  0.00  0.00    +0.000 C 
BRANCH  23  24
ATOM     24  C   UNL     1      43.297   4.309  12.872  0.00  0.00    +0.000 C 
BRANCH  24  25
ATOM     25  O   UNL     1      43.633   2.921  12.894  0.00  0.00    +0.000 OA
ATOM     26  H   UNL     1      44.364   2.809  13.528  0.00  0.00    +0.000 HD
ENDBRANCH  24  25
ENDBRANCH  23  24
ENDBRANCH  22  23
BRANCH  22  27
ATOM     27  C   UNL     1      44.192   4.142   9.285  0.00  0.00    +0.000 C 
BRANCH  27  28
ATOM     28  C   UNL     1      45.287   3.333   8.622  0.00  0.00    +0.000 A 
ATOM     29  C   UNL     1      45.409   1.956   8.859  0.00  0.00    +0.000 A 
ATOM     30  C   UNL     1      46.329   1.196   8.135  0.00  0.00    +0.000 A 
ATOM     31  C   UNL     1      47.149   1.808   7.189  0.00  0.00    +0.000 A 
ATOM     32  C   UNL     1      47.078   3.186   6.990  0.00  0.00    +0.000 A 
ATOM     33  C   UNL     1      46.150   3.945   7.702  0.00  0.00    +0.000 A 
ENDBRANCH  27  28
ENDBRANCH  22  27
ENDBRANCH  21  22
ENDBRANCH   4  21
TORSDOF 10
ENDMDL
MODEL 6
REMARK VINA RESULT:    -6.742      2.223      8.698
REMARK INTER + INTRA:         -11.457
REMARK INTER:                  -9.592
REMARK INTRA:                  -1.865
REMARK UNBOUND:                -0.970
REMARK  Name = 
REMARK  10 active torsions:
REMARK  status: ('A' for Active; 'I' for Inactive)
REMARK    1  A    between atoms: C_2  and  C_23
REMARK    2  A    between atoms: N_3  and  C_4
REMARK    3  A    between atoms: C_4  and  C_5
REMARK    4  A    between atoms: C_8  and  C_9
REMARK    5  A    between atoms: C_9  and  N_10
REMARK    6  A    between atoms: N_10  and  C_11
REMARK    7  A    between atoms: N_10  and  C_14
REMARK    8  A    between atoms: C_11  and  C_12
REMARK    9  A    between atoms: C_12  and  O_13
REMARK   10  A    between atoms: C_14  and  C_15
REMARK                            x       y       z     vdW  Elec       q    Type
REMARK                         _______ _______ _______ _____ _____    ______ ____
ROOT
ATOM      1  C   UNL     1      48.876   7.921  14.699  0.00  0.00    +0.000 A 
ATOM      2  C   UNL     1      48.050   8.777  15.436  0.00  0.00    +0.000 A 
ATOM      3  C   UNL     1      48.191   8.876  16.818  0.00  0.00    +0.000 A 
ATOM      4  C   UNL     1      49.117   8.069  17.488  0.00  0.00    +0.000 A 
ATOM      5  C   UNL     1      50.027   7.310  16.741  0.00  0.00    +0.000 A 
ATOM      6  C   UNL     1      49.917   7.246  15.350  0.00  0.00    +0.000 A 
ENDROOT
BRANCH   1   7
ATOM      7  C   UNL     1      48.593   7.699  13.245  0.00  0.00    +0.000 C 
BRANCH   7  10
ATOM      8  O   UNL     1      45.939   7.777  12.752  0.00  0.00    +0.000 OA
ATOM      9  C   UNL     1      46.473   6.670  12.744  0.00  0.00    +0.000 C 
ATOM     10  N   UNL     1      47.815   6.518  13.001  0.00  0.00    +0.000 N 
ATOM     11  H   UNL     1      48.283   5.635  12.865  0.00  0.00    +0.000 HD
BRANCH   9  12
ATOM     12  C   UNL     1      45.732   5.458  12.466  0.00  0.00    +0.000 A 
ATOM     13  C   UNL     1      45.103   4.529  13.325  0.00  0.00    +0.000 A 
ATOM     14  N   UNL     1      44.488   3.537  12.679  0.00  0.00    +0.000 NA
ATOM     15  N   UNL     1      44.695   3.804  11.365  0.00  0.00    +0.000 N 
ATOM     16  C   UNL     1      44.218   3.076  10.268  0.00  0.00    +0.000 A 
ATOM     17  C   UNL     1      44.523   3.469   9.017  0.00  0.00    +0.000 A 
ATOM     18  C   UNL     1      45.353   4.640   8.831  0.00  0.00    +0.000 A 
ATOM     19  C   UNL     1      45.804   5.353   9.879  0.00  0.00    +0.000 A 
ATOM     20  C   UNL     1      45.471   4.951  11.205  0.00  0.00    +0.000 A 
ENDBRANCH   9  12
ENDBRANCH   7  10
ENDBRANCH   1   7
BRANCH   4  21
ATOM     21  C   UNL     1      49.086   7.975  18.998  0.00  0.00    +0.000 C 
BRANCH  21  22
ATOM     22  N   UNL     1      48.997   6.578  19.510  0.00  0.00    +0.000 NA
BRANCH  22  23
ATOM     23  C   UNL     1      48.908   6.545  20.995  0.00  0.00    +0.000 C 
BRANCH  23  24
ATOM     24  C   UNL     1      47.545   6.105  21.579  0.00  0.00    +0.000 C 
BRANCH  24  25
ATOM     25  O   UNL     1      47.608   4.757  22.047  0.00  0.00    +0.000 OA
ATOM     26  H   UNL     1      46.846   4.618  22.636  0.00  0.00    +0.000 HD
ENDBRANCH  24  25
ENDBRANCH  23  24
ENDBRANCH  22  23
BRANCH  22  27
ATOM     27  C   UNL     1      47.812   5.926  18.918  0.00  0.00    +0.000 C 
BRANCH  27  28
ATOM     28  C   UNL     1      48.119   4.765  17.995  0.00  0.00    +0.000 A 
ATOM     29  C   UNL     1      49.039   3.774  18.366  0.00  0.00    +0.000 A 
ATOM     30  C   UNL     1      49.207   2.637  17.574  0.00  0.00    +0.000 A 
ATOM     31  C   UNL     1      48.478   2.494  16.395  0.00  0.00    +0.000 A 
ATOM     32  C   UNL     1      47.606   3.501  15.987  0.00  0.00    +0.000 A 
ATOM     33  C   UNL     1      47.426   4.632  16.784  0.00  0.00    +0.000 A 
ENDBRANCH  27  28
ENDBRANCH  22  27
ENDBRANCH  21  22
ENDBRANCH   4  21
TORSDOF 10
ENDMDL
MODEL 7
REMARK VINA RESULT:    -6.575      3.520      9.414
REMARK INTER + INTRA:         -11.197
REMARK INTER:                  -8.524
REMARK INTRA:                  -2.673
REMARK UNBOUND:                -0.970
REMARK  Name = 
REMARK  10 active torsions:
REMARK  status: ('A' for Active; 'I' for Inactive)
REMARK    1  A    between atoms: C_2  and  C_23
REMARK    2  A    between atoms: N_3  and  C_4
REMARK    3  A    between atoms: C_4  and  C_5
REMARK    4  A    between atoms: C_8  and  C_9
REMARK    5  A    between atoms: C_9  and  N_10
REMARK    6  A    between atoms: N_10  and  C_11
REMARK    7  A    between atoms: N_10  and  C_14
REMARK    8  A    between atoms: C_11  and  C_12
REMARK    9  A    between atoms: C_12  and  O_13
REMARK   10  A    between atoms: C_14  and  C_15
REMARK                            x       y       z     vdW  Elec       q    Type
REMARK                         _______ _______ _______ _____ _____    ______ ____
ROOT
ATOM      1  C   UNL     1      48.494   3.679  17.789  0.00  0.00    +0.000 A 
ATOM      2  C   UNL     1      49.697   3.233  17.229  0.00  0.00    +0.000 A 
ATOM      3  C   UNL     1      50.915   3.569  17.813  0.00  0.00    +0.000 A 
ATOM      4  C   UNL     1      50.948   4.412  18.929  0.00  0.00    +0.000 A 
ATOM      5  C   UNL     1      49.746   4.754  19.563  0.00  0.00    +0.000 A 
ATOM      6  C   UNL     1      48.523   4.377  19.004  0.00  0.00    +0.000 A 
ENDROOT
BRANCH   1   7
ATOM      7  C   UNL     1      47.212   3.454  17.050  0.00  0.00    +0.000 C 
BRANCH   7  10
ATOM      8  O   UNL     1      47.409   2.898  14.414  0.00  0.00    +0.000 OA
ATOM      9  C   UNL     1      47.085   4.044  14.717  0.00  0.00    +0.000 C 
ATOM     10  N   UNL     1      46.973   4.435  16.031  0.00  0.00    +0.000 N 
ATOM     11  H   UNL     1      46.581   5.329  16.285  0.00  0.00    +0.000 HD
BRANCH   9  12
ATOM     12  C   UNL     1      46.800   5.054  13.721  0.00  0.00    +0.000 A 
ATOM     13  C   UNL     1      47.625   6.027  13.114  0.00  0.00    +0.000 A 
ATOM     14  N   UNL     1      46.994   6.771  12.205  0.00  0.00    +0.000 NA
ATOM     15  N   UNL     1      45.725   6.289  12.191  0.00  0.00    +0.000 N 
ATOM     16  C   UNL     1      44.668   6.712  11.375  0.00  0.00    +0.000 A 
ATOM     17  C   UNL     1      43.457   6.135  11.491  0.00  0.00    +0.000 A 
ATOM     18  C   UNL     1      43.270   5.088  12.472  0.00  0.00    +0.000 A 
ATOM     19  C   UNL     1      44.283   4.667  13.252  0.00  0.00    +0.000 A 
ATOM     20  C   UNL     1      45.571   5.263  13.121  0.00  0.00    +0.000 A 
ENDBRANCH   9  12
ENDBRANCH   7  10
ENDBRANCH   1   7
BRANCH   4  21
ATOM     21  C   UNL     1      52.263   4.996  19.398  0.00  0.00    +0.000 C 
BRANCH  21  22
ATOM     22  N   UNL     1      52.192   6.447  19.729  0.00  0.00    +0.000 NA
BRANCH  22  23
ATOM     23  C   UNL     1      53.187   6.820  20.771  0.00  0.00    +0.000 C 
BRANCH  23  24
ATOM     24  C   UNL     1      52.606   7.187  22.156  0.00  0.00    +0.000 C 
BRANCH  24  25
ATOM     25  O   UNL     1      51.213   6.877  22.218  0.00  0.00    +0.000 OA
ATOM     26  H   UNL     1      50.764   7.426  21.552  0.00  0.00    +0.000 HD
ENDBRANCH  24  25
ENDBRANCH  23  24
ENDBRANCH  22  23
BRANCH  22  27
ATOM     27  C   UNL     1      52.427   7.231  18.501  0.00  0.00    +0.000 C 
BRANCH  27  28
ATOM     28  C   UNL     1      51.208   7.423  17.624  0.00  0.00    +0.000 A 
ATOM     29  C   UNL     1      51.187   6.946  16.305  0.00  0.00    +0.000 A 
ATOM     30  C   UNL     1      50.011   7.000  15.556  0.00  0.00    +0.000 A 
ATOM     31  C   UNL     1      48.856   7.552  16.107  0.00  0.00    +0.000 A 
ATOM     32  C   UNL     1      48.883   8.084  17.395  0.00  0.00    +0.000 A 
ATOM     33  C   UNL     1      50.054   8.018  18.151  0.00  0.00    +0.000 A 
ENDBRANCH  27  28
ENDBRANCH  22  27
ENDBRANCH  21  22
ENDBRANCH   4  21
TORSDOF 10
ENDMDL
MODEL 8
REMARK VINA RESULT:    -6.575      3.346      9.320
REMARK INTER + INTRA:         -11.197
REMARK INTER:                  -8.639
REMARK INTRA:                  -2.557
REMARK UNBOUND:                -0.970
REMARK  Name = 
REMARK  10 active torsions:
REMARK  status: ('A' for Active; 'I' for Inactive)
REMARK    1  A    between atoms: C_2  and  C_23
REMARK    2  A    between atoms: N_3  and  C_4
REMARK    3  A    between atoms: C_4  and  C_5
REMARK    4  A    between atoms: C_8  and  C_9
REMARK    5  A    between atoms: C_9  and  N_10
REMARK    6  A    between atoms: N_10  and  C_11
REMARK    7  A    between atoms: N_10  and  C_14
REMARK    8  A    between atoms: C_11  and  C_12
REMARK    9  A    between atoms: C_12  and  O_13
REMARK   10  A    between atoms: C_14  and  C_15
REMARK                            x       y       z     vdW  Elec       q    Type
REMARK                         _______ _______ _______ _____ _____    ______ ____
ROOT
ATOM      1  C   UNL     1      47.803   4.380  17.957  0.00  0.00    +0.000 A 
ATOM      2  C   UNL     1      49.028   4.019  18.530  0.00  0.00    +0.000 A 
ATOM      3  C   UNL     1      49.537   4.729  19.614  0.00  0.00    +0.000 A 
ATOM      4  C   UNL     1      48.857   5.852  20.098  0.00  0.00    +0.000 A 
ATOM      5  C   UNL     1      47.575   6.136  19.610  0.00  0.00    +0.000 A 
ATOM      6  C   UNL     1      47.042   5.394  18.554  0.00  0.00    +0.000 A 
ENDROOT
BRANCH   1   7
ATOM      7  C   UNL     1      47.361   3.717  16.689  0.00  0.00    +0.000 C 
BRANCH   7  10
ATOM      8  O   UNL     1      47.339   3.123  14.055  0.00  0.00    +0.000 OA
ATOM      9  C   UNL     1      46.947   4.244  14.375  0.00  0.00    +0.000 C 
ATOM     10  N   UNL     1      46.935   4.652  15.688  0.00  0.00    +0.000 N 
ATOM     11  H   UNL     1      46.493   5.514  15.970  0.00  0.00    +0.000 HD
BRANCH   9  12
ATOM     12  C   UNL     1      46.475   5.203  13.401  0.00  0.00    +0.000 A 
ATOM     13  C   UNL     1      47.142   6.239  12.710  0.00  0.00    +0.000 A 
ATOM     14  N   UNL     1      46.359   6.904  11.858  0.00  0.00    +0.000 NA
ATOM     15  N   UNL     1      45.147   6.302  11.967  0.00  0.00    +0.000 N 
ATOM     16  C   UNL     1      43.984   6.607  11.250  0.00  0.00    +0.000 A 
ATOM     17  C   UNL     1      42.850   5.919  11.485  0.00  0.00    +0.000 A 
ATOM     18  C   UNL     1      42.857   4.876  12.489  0.00  0.00    +0.000 A 
ATOM     19  C   UNL     1      43.974   4.568  13.173  0.00  0.00    +0.000 A 
ATOM     20  C   UNL     1      45.181   5.283  12.917  0.00  0.00    +0.000 A 
ENDBRANCH   9  12
ENDBRANCH   7  10
ENDBRANCH   1   7
BRANCH   4  21
ATOM     21  C   UNL     1      49.533   6.778  21.085  0.00  0.00    +0.000 C 
BRANCH  21  22
ATOM     22  N   UNL     1      49.708   8.170  20.581  0.00  0.00    +0.000 NA
BRANCH  22  23
ATOM     23  C   UNL     1      50.131   9.096  21.666  0.00  0.00    +0.000 C 
BRANCH  23  24
ATOM     24  C   UNL     1      49.145  10.240  21.997  0.00  0.00    +0.000 C 
BRANCH  24  25
ATOM     25  O   UNL     1      48.904  11.049  20.845  0.00  0.00    +0.000 OA
ATOM     26  H   UNL     1      48.049  10.774  20.471  0.00  0.00    +0.000 HD
ENDBRANCH  24  25
ENDBRANCH  23  24
ENDBRANCH  22  23
BRANCH  22  27
ATOM     27  C   UNL     1      50.712   8.164  19.499  0.00  0.00    +0.000 C 
BRANCH  27  28
ATOM     28  C   UNL     1      50.140   8.084  18.099  0.00  0.00    +0.000 A 
ATOM     29  C   UNL     1      50.640   7.161  17.169  0.00  0.00    +0.000 A 
ATOM     30  C   UNL     1      50.012   6.997  15.933  0.00  0.00    +0.000 A 
ATOM     31  C   UNL     1      48.899   7.769  15.608  0.00  0.00    +0.000 A 
ATOM     32  C   UNL     1      48.432   8.732  16.501  0.00  0.00    +0.000 A 
ATOM     33  C   UNL     1      49.049   8.888  17.742  0.00  0.00    +0.000 A 
ENDBRANCH  27  28
ENDBRANCH  22  27
ENDBRANCH  21  22
ENDBRANCH   4  21
TORSDOF 10
ENDMDL
MODEL 9
REMARK VINA RESULT:    -6.550      2.600      9.091
REMARK INTER + INTRA:         -11.158
REMARK INTER:                  -9.243
REMARK INTRA:                  -1.916
REMARK UNBOUND:                -0.970
REMARK  Name = 
REMARK  10 active torsions:
REMARK  status: ('A' for Active; 'I' for Inactive)
REMARK    1  A    between atoms: C_2  and  C_23
REMARK    2  A    between atoms: N_3  and  C_4
REMARK    3  A    between atoms: C_4  and  C_5
REMARK    4  A    between atoms: C_8  and  C_9
REMARK    5  A    between atoms: C_9  and  N_10
REMARK    6  A    between atoms: N_10  and  C_11
REMARK    7  A    between atoms: N_10  and  C_14
REMARK    8  A    between atoms: C_11  and  C_12
REMARK    9  A    between atoms: C_12  and  O_13
REMARK   10  A    between atoms: C_14  and  C_15
REMARK                            x       y       z     vdW  Elec       q    Type
REMARK                         _______ _______ _______ _____ _____    ______ ____
ROOT
ATOM      1  C   UNL     1      48.221   8.275  14.431  0.00  0.00    +0.000 A 
ATOM      2  C   UNL     1      48.166   9.011  15.621  0.00  0.00    +0.000 A 
ATOM      3  C   UNL     1      49.198   8.927  16.551  0.00  0.00    +0.000 A 
ATOM      4  C   UNL     1      50.268   8.053  16.334  0.00  0.00    +0.000 A 
ATOM      5  C   UNL     1      50.387   7.415  15.091  0.00  0.00    +0.000 A 
ATOM      6  C   UNL     1      49.375   7.536  14.137  0.00  0.00    +0.000 A 
ENDROOT
BRANCH   1   7
ATOM      7  C   UNL     1      47.026   8.245  13.529  0.00  0.00    +0.000 C 
BRANCH   7  10
ATOM      8  O   UNL     1      44.942   7.728  11.891  0.00  0.00    +0.000 OA
ATOM      9  C   UNL     1      45.471   6.763  12.438  0.00  0.00    +0.000 C 
ATOM     10  N   UNL     1      46.528   6.918  13.304  0.00  0.00    +0.000 N 
ATOM     11  H   UNL     1      47.050   6.127  13.649  0.00  0.00    +0.000 HD
BRANCH   9  12
ATOM     12  C   UNL     1      45.024   5.406  12.209  0.00  0.00    +0.000 A 
ATOM     13  C   UNL     1      44.479   4.441  13.086  0.00  0.00    +0.000 A 
ATOM     14  N   UNL     1      44.160   3.294  12.485  0.00  0.00    +0.000 NA
ATOM     15  N   UNL     1      44.484   3.488  11.181  0.00  0.00    +0.000 N 
ATOM     16  C   UNL     1      44.308   2.589  10.123  0.00  0.00    +0.000 A 
ATOM     17  C   UNL     1      44.695   2.932   8.879  0.00  0.00    +0.000 A 
ATOM     18  C   UNL     1      45.298   4.230   8.664  0.00  0.00    +0.000 A 
ATOM     19  C   UNL     1      45.459   5.105   9.674  0.00  0.00    +0.000 A 
ATOM     20  C   UNL     1      45.036   4.754  10.989  0.00  0.00    +0.000 A 
ENDBRANCH   9  12
ENDBRANCH   7  10
ENDBRANCH   1   7
BRANCH   4  21
ATOM     21  C   UNL     1      51.243   7.756  17.453  0.00  0.00    +0.000 C 
BRANCH  21  22
ATOM     22  N   UNL     1      51.358   6.307  17.780  0.00  0.00    +0.000 NA
BRANCH  22  23
ATOM     23  C   UNL     1      52.559   6.028  18.613  0.00  0.00    +0.000 C 
BRANCH  23  24
ATOM     24  C   UNL     1      52.913   7.105  19.665  0.00  0.00    +0.000 C 
BRANCH  24  25
ATOM     25  O   UNL     1      52.565   6.663  20.978  0.00  0.00    +0.000 OA
ATOM     26  H   UNL     1      51.666   6.294  20.931  0.00  0.00    +0.000 HD
ENDBRANCH  24  25
ENDBRANCH  23  24
ENDBRANCH  22  23
BRANCH  22  27
ATOM     27  C   UNL     1      50.138   5.877  18.490  0.00  0.00    +0.000 C 
BRANCH  27  28
ATOM     28  C   UNL     1      49.310   4.838  17.764  0.00  0.00    +0.000 A 
ATOM     29  C   UNL     1      48.148   5.201  17.068  0.00  0.00    +0.000 A 
ATOM     30  C   UNL     1      47.474   4.262  16.286  0.00  0.00    +0.000 A 
ATOM     31  C   UNL     1      47.941   2.950  16.213  0.00  0.00    +0.000 A 
ATOM     32  C   UNL     1      49.059   2.565  16.949  0.00  0.00    +0.000 A 
ATOM     33  C   UNL     1      49.742   3.505  17.721  0.00  0.00    +0.000 A 
ENDBRANCH  27  28
ENDBRANCH  22  27
ENDBRANCH  21  22
ENDBRANCH   4  21
TORSDOF 10
ENDMDL
