MODEL 1
REMARK VINA RESULT:    -8.388      0.000      0.000
REMARK INTER + INTRA:         -13.206
REMARK INTER:                 -11.820
REMARK INTRA:                  -1.386
REMARK UNBOUND:                -1.386
REMARK  Name = 
REMARK  7 active torsions:
REMARK  status: ('A' for Active; 'I' for Inactive)
REMARK    1  A    between atoms: C_2  and  C_3
REMARK    2  A    between atoms: C_3  and  N_4
REMARK    3  A    between atoms: C_3  and  C_17
REMARK    4  A    between atoms: C_5  and  C_7
REMARK    5  A    between atoms: C_20  and  C_21
REMARK    6  A    between atoms: C_21  and  N_22
REMARK    7  A    between atoms: C_23  and  C_25
REMARK                            x       y       z     vdW  Elec       q    Type
REMARK                         _______ _______ _______ _____ _____    ______ ____
ROOT
ATOM      1  C   UNL     1      47.546   4.859  15.002  0.00  0.00    +0.000 C 
ENDROOT
BRANCH   1   2
ATOM      2  C   UNL     1      46.641   4.669  13.781  0.00  0.00    +0.000 A 
ATOM      3  C   UNL     1      46.133   5.798  13.118  0.00  0.00    +0.000 A 
ATOM      4  C   UNL     1      45.339   5.667  11.970  0.00  0.00    +0.000 A 
ATOM      5  C   UNL     1      45.005   4.402  11.467  0.00  0.00    +0.000 A 
ATOM      6  C   UNL     1      45.490   3.273  12.139  0.00  0.00    +0.000 A 
ATOM      7  C   UNL     1      46.282   3.401  13.291  0.00  0.00    +0.000 A 
BRANCH   5   8
ATOM      8  C   UNL     1      44.137   4.251  10.240  0.00  0.00    +0.000 C 
BRANCH   8   9
ATOM      9  N   UNL     1      44.735   3.409   9.232  0.00  0.00    +0.000 N 
ATOM     10  C   UNL     1      45.685   3.921   8.365  0.00  0.00    +0.000 C 
ATOM     11  O   UNL     1      46.070   5.082   8.393  0.00  0.00    +0.000 OA
ATOM     12  H   UNL     1      44.659   2.406   9.332  0.00  0.00    +0.000 HD
BRANCH  10  13
ATOM     13  C   UNL     1      46.256   2.959   7.372  0.00  0.00    +0.000 A 
ATOM     14  C   UNL     1      46.535   3.354   6.057  0.00  0.00    +0.000 A 
ATOM     15  C   UNL     1      47.114   2.448   5.165  0.00  0.00    +0.000 A 
ATOM     16  C   UNL     1      47.420   1.153   5.580  0.00  0.00    +0.000 A 
ATOM     17  C   UNL     1      47.143   0.756   6.889  0.00  0.00    +0.000 A 
ATOM     18  C   UNL     1      46.565   1.661   7.787  0.00  0.00    +0.000 A 
ENDBRANCH  10  13
ENDBRANCH   8   9
ENDBRANCH   5   8
ENDBRANCH   1   2
BRANCH   1  19
ATOM     19  N   UNL     1      47.761   6.281  15.230  0.00  0.00    +0.000 N 
ATOM     20  C   UNL     1      48.962   6.792  15.649  0.00  0.00    +0.000 C 
ATOM     21  O   UNL     1      49.925   6.072  15.894  0.00  0.00    +0.000 OA
ATOM     22  H   UNL     1      46.937   6.870  15.247  0.00  0.00    +0.000 HD
BRANCH  20  23
ATOM     23  C   UNL     1      49.063   8.258  15.706  0.00  0.00    +0.000 A 
ATOM     24  C   UNL     1      49.209   8.906  16.925  0.00  0.00    +0.000 A 
ATOM     25  S   UNL     1      49.321  10.606  16.788  0.00  0.00    +0.000 S 
ATOM     26  C   UNL     1      49.133  10.536  15.099  0.00  0.00    +0.000 A 
ATOM     27  N   UNL     1      49.090  11.669  14.347  0.00  0.00    +0.000 NA
ATOM     28  C   UNL     1      48.895  11.466  13.086  0.00  0.00    +0.000 A 
ATOM     29  N   UNL     1      48.760  10.231  12.506  0.00  0.00    +0.000 N 
ATOM     30  C   UNL     1      48.857   9.059  13.216  0.00  0.00    +0.000 A 
ATOM     31  O   UNL     1      48.833   7.965  12.661  0.00  0.00    +0.000 OA
ATOM     32  C   UNL     1      49.025   9.234  14.645  0.00  0.00    +0.000 A 
ATOM     33  H   UNL     1      48.633  10.140  11.509  0.00  0.00    +0.000 HD
ENDBRANCH  20  23
ENDBRANCH   1  19
BRANCH   1  35
ATOM     34  N   UNL     1      46.652   3.525  17.109  0.00  0.00    +0.000 NA
ATOM     35  C   UNL     1      47.032   4.142  16.197  0.00  0.00    +0.000 C 
ENDBRANCH   1  35
TORSDOF 7
ENDMDL
MODEL 2
REMARK VINA RESULT:    -8.243      1.557      2.465
REMARK INTER + INTRA:         -13.003
REMARK INTER:                 -11.716
REMARK INTRA:                  -1.286
REMARK UNBOUND:                -1.386
REMARK  Name = 
REMARK  7 active torsions:
REMARK  status: ('A' for Active; 'I' for Inactive)
REMARK    1  A    between atoms: C_2  and  C_3
REMARK    2  A    between atoms: C_3  and  N_4
REMARK    3  A    between atoms: C_3  and  C_17
REMARK    4  A    between atoms: C_5  and  C_7
REMARK    5  A    between atoms: C_20  and  C_21
REMARK    6  A    between atoms: C_21  and  N_22
REMARK    7  A    between atoms: C_23  and  C_25
REMARK                            x       y       z     vdW  Elec       q    Type
REMARK                         _______ _______ _______ _____ _____    ______ ____
ROOT
ATOM      1  C   UNL     1      47.757   5.020  15.165  0.00  0.00    +0.000 C 
ENDROOT
BRANCH   1   2
ATOM      2  C   UNL     1      46.886   4.885  13.912  0.00  0.00    +0.000 A 
ATOM      3  C   UNL     1      46.437   3.613  13.520  0.00  0.00    +0.000 A 
ATOM      4  C   UNL     1      45.601   3.452  12.406  0.00  0.00    +0.000 A 
ATOM      5  C   UNL     1      45.210   4.555  11.635  0.00  0.00    +0.000 A 
ATOM      6  C   UNL     1      45.676   5.822  12.008  0.00  0.00    +0.000 A 
ATOM      7  C   UNL     1      46.517   5.986  13.119  0.00  0.00    +0.000 A 
BRANCH   5   8
ATOM      8  C   UNL     1      44.323   4.389  10.423  0.00  0.00    +0.000 C 
BRANCH   8   9
ATOM      9  N   UNL     1      44.867   3.470   9.453  0.00  0.00    +0.000 N 
ATOM     10  C   UNL     1      45.730   3.920   8.469  0.00  0.00    +0.000 C 
ATOM     11  O   UNL     1      46.079   5.088   8.359  0.00  0.00    +0.000 OA
ATOM     12  H   UNL     1      44.831   2.479   9.652  0.00  0.00    +0.000 HD
BRANCH  10  13
ATOM     13  C   UNL     1      46.252   2.883   7.527  0.00  0.00    +0.000 A 
ATOM     14  C   UNL     1      46.629   3.214   6.219  0.00  0.00    +0.000 A 
ATOM     15  C   UNL     1      47.160   2.235   5.376  0.00  0.00    +0.000 A 
ATOM     16  C   UNL     1      47.322   0.928   5.834  0.00  0.00    +0.000 A 
ATOM     17  C   UNL     1      46.947   0.594   7.137  0.00  0.00    +0.000 A 
ATOM     18  C   UNL     1      46.417   1.572   7.985  0.00  0.00    +0.000 A 
ENDBRANCH  10  13
ENDBRANCH   8   9
ENDBRANCH   5   8
ENDBRANCH   1   2
BRANCH   1  19
ATOM     19  N   UNL     1      47.891   6.427  15.514  0.00  0.00    +0.000 N 
ATOM     20  C   UNL     1      49.104   7.026  15.733  0.00  0.00    +0.000 C 
ATOM     21  O   UNL     1      50.157   6.398  15.683  0.00  0.00    +0.000 OA
ATOM     22  H   UNL     1      47.041   6.915  15.773  0.00  0.00    +0.000 HD
BRANCH  20  23
ATOM     23  C   UNL     1      49.085   8.481  15.945  0.00  0.00    +0.000 A 
ATOM     24  C   UNL     1      49.662   9.335  15.014  0.00  0.00    +0.000 A 
ATOM     25  S   UNL     1      49.529  10.988  15.427  0.00  0.00    +0.000 S 
ATOM     26  C   UNL     1      48.738  10.616  16.887  0.00  0.00    +0.000 A 
ATOM     27  N   UNL     1      48.377  11.593  17.762  0.00  0.00    +0.000 NA
ATOM     28  C   UNL     1      47.828  11.160  18.848  0.00  0.00    +0.000 A 
ATOM     29  N   UNL     1      47.588   9.839  19.129  0.00  0.00    +0.000 N 
ATOM     30  C   UNL     1      47.879   8.825  18.250  0.00  0.00    +0.000 A 
ATOM     31  O   UNL     1      47.564   7.662  18.480  0.00  0.00    +0.000 OA
ATOM     32  C   UNL     1      48.544   9.254  17.035  0.00  0.00    +0.000 A 
ATOM     33  H   UNL     1      47.133   9.568  19.988  0.00  0.00    +0.000 HD
ENDBRANCH  20  23
ENDBRANCH   1  19
BRANCH   1  35
ATOM     34  N   UNL     1      46.853   3.477  17.119  0.00  0.00    +0.000 NA
ATOM     35  C   UNL     1      47.261   4.179  16.284  0.00  0.00    +0.000 C 
ENDBRANCH   1  35
TORSDOF 7
ENDMDL
MODEL 3
REMARK VINA RESULT:    -7.974      2.003      4.384
REMARK INTER + INTRA:         -12.623
REMARK INTER:                 -11.915
REMARK INTRA:                  -0.709
REMARK UNBOUND:                -1.386
REMARK  Name = 
REMARK  7 active torsions:
REMARK  status: ('A' for Active; 'I' for Inactive)
REMARK    1  A    between atoms: C_2  and  C_3
REMARK    2  A    between atoms: C_3  and  N_4
REMARK    3  A    between atoms: C_3  and  C_17
REMARK    4  A    between atoms: C_5  and  C_7
REMARK    5  A    between atoms: C_20  and  C_21
REMARK    6  A    between atoms: C_21  and  N_22
REMARK    7  A    between atoms: C_23  and  C_25
REMARK                            x       y       z     vdW  Elec       q    Type
REMARK                         _______ _______ _______ _____ _____    ______ ____
ROOT
ATOM      1  C   UNL     1      46.936   8.204  13.304  0.00  0.00    +0.000 C 
ENDROOT
BRANCH   1   2
ATOM      2  C   UNL     1      46.182   7.233  12.390  0.00  0.00    +0.000 A 
ATOM      3  C   UNL     1      44.937   6.729  12.800  0.00  0.00    +0.000 A 
ATOM      4  C   UNL     1      44.194   5.875  11.973  0.00  0.00    +0.000 A 
ATOM      5  C   UNL     1      44.686   5.477  10.723  0.00  0.00    +0.000 A 
ATOM      6  C   UNL     1      45.939   5.958  10.321  0.00  0.00    +0.000 A 
ATOM      7  C   UNL     1      46.687   6.810  11.148  0.00  0.00    +0.000 A 
BRANCH   5   8
ATOM      8  C   UNL     1      43.900   4.543   9.832  0.00  0.00    +0.000 C 
BRANCH   8   9
ATOM      9  N   UNL     1      44.683   4.026   8.735  0.00  0.00    +0.000 N 
ATOM     10  C   UNL     1      45.380   2.838   8.871  0.00  0.00    +0.000 C 
ATOM     11  O   UNL     1      45.379   2.167   9.894  0.00  0.00    +0.000 OA
ATOM     12  H   UNL     1      44.509   4.384   7.806  0.00  0.00    +0.000 HD
BRANCH  10  13
ATOM     13  C   UNL     1      46.141   2.381   7.668  0.00  0.00    +0.000 A 
ATOM     14  C   UNL     1      46.671   1.086   7.593  0.00  0.00    +0.000 A 
ATOM     15  C   UNL     1      47.336   0.670   6.437  0.00  0.00    +0.000 A 
ATOM     16  C   UNL     1      47.470   1.537   5.354  0.00  0.00    +0.000 A 
ATOM     17  C   UNL     1      46.944   2.828   5.425  0.00  0.00    +0.000 A 
ATOM     18  C   UNL     1      46.275   3.248   6.580  0.00  0.00    +0.000 A 
ENDBRANCH  10  13
ENDBRANCH   8   9
ENDBRANCH   5   8
ENDBRANCH   1   2
BRANCH   1  19
ATOM     19  N   UNL     1      47.406   7.495  14.485  0.00  0.00    +0.000 N 
ATOM     20  C   UNL     1      48.538   6.723  14.487  0.00  0.00    +0.000 C 
ATOM     21  O   UNL     1      49.210   6.552  13.474  0.00  0.00    +0.000 OA
ATOM     22  H   UNL     1      46.766   7.440  15.269  0.00  0.00    +0.000 HD
BRANCH  20  23
ATOM     23  C   UNL     1      48.956   6.180  15.789  0.00  0.00    +0.000 A 
ATOM     24  C   UNL     1      50.020   6.747  16.477  0.00  0.00    +0.000 A 
ATOM     25  S   UNL     1      50.349   5.989  17.974  0.00  0.00    +0.000 S 
ATOM     26  C   UNL     1      49.110   4.849  17.729  0.00  0.00    +0.000 A 
ATOM     27  N   UNL     1      48.877   3.857  18.631  0.00  0.00    +0.000 NA
ATOM     28  C   UNL     1      47.938   3.038  18.291  0.00  0.00    +0.000 A 
ATOM     29  N   UNL     1      47.197   3.131  17.141  0.00  0.00    +0.000 N 
ATOM     30  C   UNL     1      47.356   4.149  16.233  0.00  0.00    +0.000 A 
ATOM     31  O   UNL     1      46.615   4.269  15.263  0.00  0.00    +0.000 OA
ATOM     32  C   UNL     1      48.433   5.069  16.543  0.00  0.00    +0.000 A 
ATOM     33  H   UNL     1      46.460   2.470  16.946  0.00  0.00    +0.000 HD
ENDBRANCH  20  23
ENDBRANCH   1  19
BRANCH   1  35
ATOM     34  N   UNL     1      48.820   9.539  12.004  0.00  0.00    +0.000 NA
ATOM     35  C   UNL     1      48.016   8.927  12.582  0.00  0.00    +0.000 C 
ENDBRANCH   1  35
TORSDOF 7
ENDMDL
MODEL 4
REMARK VINA RESULT:    -7.497      2.569      4.399
REMARK INTER + INTRA:         -11.950
REMARK INTER:                 -11.175
REMARK INTRA:                  -0.775
REMARK UNBOUND:                -1.386
REMARK  Name = 
REMARK  7 active torsions:
REMARK  status: ('A' for Active; 'I' for Inactive)
REMARK    1  A    between atoms: C_2  and  C_3
REMARK    2  A    between atoms: C_3  and  N_4
REMARK    3  A    between atoms: C_3  and  C_17
REMARK    4  A    between atoms: C_5  and  C_7
REMARK    5  A    between atoms: C_20  and  C_21
REMARK    6  A    between atoms: C_21  and  N_22
REMARK    7  A    between atoms: C_23  and  C_25
REMARK                            x       y       z     vdW  Elec       q    Type
REMARK                         _______ _______ _______ _____ _____    ______ ____
ROOT
ATOM      1  C   UNL     1      47.794   7.101  14.061  0.00  0.00    +0.000 C 
ENDROOT
BRANCH   1   2
ATOM      2  C   UNL     1      46.861   6.179  13.269  0.00  0.00    +0.000 A 
ATOM      3  C   UNL     1      46.096   6.712  12.218  0.00  0.00    +0.000 A 
ATOM      4  C   UNL     1      45.265   5.894  11.440  0.00  0.00    +0.000 A 
ATOM      5  C   UNL     1      45.154   4.523  11.706  0.00  0.00    +0.000 A 
ATOM      6  C   UNL     1      45.897   3.991  12.769  0.00  0.00    +0.000 A 
ATOM      7  C   UNL     1      46.726   4.809  13.552  0.00  0.00    +0.000 A 
BRANCH   5   8
ATOM      8  C   UNL     1      44.248   3.636  10.884  0.00  0.00    +0.000 C 
BRANCH   8   9
ATOM      9  N   UNL     1      44.959   2.906   9.861  0.00  0.00    +0.000 N 
ATOM     10  C   UNL     1      45.268   3.512   8.655  0.00  0.00    +0.000 C 
ATOM     11  O   UNL     1      44.971   4.667   8.383  0.00  0.00    +0.000 OA
ATOM     12  H   UNL     1      45.454   2.065  10.123  0.00  0.00    +0.000 HD
BRANCH  10  13
ATOM     13  C   UNL     1      46.025   2.675   7.674  0.00  0.00    +0.000 A 
ATOM     14  C   UNL     1      46.428   3.194   6.437  0.00  0.00    +0.000 A 
ATOM     15  C   UNL     1      47.176   2.405   5.559  0.00  0.00    +0.000 A 
ATOM     16  C   UNL     1      47.527   1.103   5.912  0.00  0.00    +0.000 A 
ATOM     17  C   UNL     1      47.126   0.582   7.144  0.00  0.00    +0.000 A 
ATOM     18  C   UNL     1      46.379   1.370   8.027  0.00  0.00    +0.000 A 
ENDBRANCH  10  13
ENDBRANCH   8   9
ENDBRANCH   5   8
ENDBRANCH   1   2
BRANCH   1  19
ATOM     19  N   UNL     1      48.372   6.366  15.176  0.00  0.00    +0.000 N 
ATOM     20  C   UNL     1      48.834   6.980  16.311  0.00  0.00    +0.000 C 
ATOM     21  O   UNL     1      48.821   8.200  16.440  0.00  0.00    +0.000 OA
ATOM     22  H   UNL     1      48.594   5.390  15.014  0.00  0.00    +0.000 HD
BRANCH  20  23
ATOM     23  C   UNL     1      49.265   6.094  17.403  0.00  0.00    +0.000 A 
ATOM     24  C   UNL     1      50.305   5.195  17.209  0.00  0.00    +0.000 A 
ATOM     25  S   UNL     1      50.670   4.262  18.594  0.00  0.00    +0.000 S 
ATOM     26  C   UNL     1      49.421   4.996  19.485  0.00  0.00    +0.000 A 
ATOM     27  N   UNL     1      49.150   4.618  20.763  0.00  0.00    +0.000 NA
ATOM     28  C   UNL     1      48.145   5.227  21.298  0.00  0.00    +0.000 A 
ATOM     29  N   UNL     1      47.398   6.197  20.678  0.00  0.00    +0.000 N 
ATOM     30  C   UNL     1      47.673   6.653  19.413  0.00  0.00    +0.000 A 
ATOM     31  O   UNL     1      47.056   7.590  18.917  0.00  0.00    +0.000 OA
ATOM     32  C   UNL     1      48.762   5.964  18.748  0.00  0.00    +0.000 A 
ATOM     33  H   UNL     1      46.638   6.652  21.162  0.00  0.00    +0.000 HD
ENDBRANCH  20  23
ENDBRANCH   1  19
BRANCH   1  35
ATOM     34  N   UNL     1      49.562   8.295  12.489  0.00  0.00    +0.000 NA
ATOM     35  C   UNL     1      48.810   7.748  13.191  0.00  0.00    +0.000 C 
ENDBRANCH   1  35
TORSDOF 7
ENDMDL
MODEL 5
REMARK VINA RESULT:    -7.367      4.754      7.493
REMARK INTER + INTRA:         -11.767
REMARK INTER:                 -10.639
REMARK INTRA:                  -1.128
REMARK UNBOUND:                -1.386
REMARK  Name = 
REMARK  7 active torsions:
REMARK  status: ('A' for Active; 'I' for Inactive)
REMARK    1  A    between atoms: C_2  and  C_3
REMARK    2  A    between atoms: C_3  and  N_4
REMARK    3  A    between atoms: C_3  and  C_17
REMARK    4  A    between atoms: C_5  and  C_7
REMARK    5  A    between atoms: C_20  and  C_21
REMARK    6  A    between atoms: C_21  and  N_22
REMARK    7  A    between atoms: C_23  and  C_25
REMARK                            x       y       z     vdW  Elec       q    Type
REMARK                         _______ _______ _______ _____ _____    ______ ____
ROOT
ATOM      1  C   UNL     1      46.114   4.956  13.107  0.00  0.00    +0.000 C 
ENDROOT
BRANCH   1   2
ATOM      2  C   UNL     1      45.729   6.373  12.671  0.00  0.00    +0.000 A 
ATOM      3  C   UNL     1      44.707   6.549  11.724  0.00  0.00    +0.000 A 
ATOM      4  C   UNL     1      44.294   7.830  11.333  0.00  0.00    +0.000 A 
ATOM      5  C   UNL     1      44.910   8.975  11.857  0.00  0.00    +0.000 A 
ATOM      6  C   UNL     1      45.947   8.804  12.784  0.00  0.00    +0.000 A 
ATOM      7  C   UNL     1      46.365   7.522  13.173  0.00  0.00    +0.000 A 
BRANCH   5   8
ATOM      8  C   UNL     1      44.484  10.360  11.429  0.00  0.00    +0.000 C 
BRANCH   8   9
ATOM      9  N   UNL     1      43.185  10.728  11.942  0.00  0.00    +0.000 N 
ATOM     10  C   UNL     1      42.080  10.735  11.108  0.00  0.00    +0.000 C 
ATOM     11  O   UNL     1      42.125  10.439   9.922  0.00  0.00    +0.000 OA
ATOM     12  H   UNL     1      43.040  10.719  12.942  0.00  0.00    +0.000 HD
BRANCH  10  13
ATOM     13  C   UNL     1      40.780  11.112  11.745  0.00  0.00    +0.000 A 
ATOM     14  C   UNL     1      39.608  10.390  11.482  0.00  0.00    +0.000 A 
ATOM     15  C   UNL     1      38.418  10.732  12.128  0.00  0.00    +0.000 A 
ATOM     16  C   UNL     1      38.392  11.788  13.038  0.00  0.00    +0.000 A 
ATOM     17  C   UNL     1      39.558  12.509  13.302  0.00  0.00    +0.000 A 
ATOM     18  C   UNL     1      40.753  12.168  12.660  0.00  0.00    +0.000 A 
ENDBRANCH  10  13
ENDBRANCH   8   9
ENDBRANCH   5   8
ENDBRANCH   1   2
BRANCH   1  19
ATOM     19  N   UNL     1      46.577   4.981  14.486  0.00  0.00    +0.000 N 
ATOM     20  C   UNL     1      47.302   3.959  15.044  0.00  0.00    +0.000 C 
ATOM     21  O   UNL     1      47.573   2.938  14.420  0.00  0.00    +0.000 OA
ATOM     22  H   UNL     1      46.190   5.701  15.085  0.00  0.00    +0.000 HD
BRANCH  20  23
ATOM     23  C   UNL     1      47.813   4.189  16.405  0.00  0.00    +0.000 A 
ATOM     24  C   UNL     1      47.446   3.345  17.445  0.00  0.00    +0.000 A 
ATOM     25  S   UNL     1      48.148   3.764  18.946  0.00  0.00    +0.000 S 
ATOM     26  C   UNL     1      48.928   5.114  18.265  0.00  0.00    +0.000 A 
ATOM     27  N   UNL     1      49.676   5.955  19.029  0.00  0.00    +0.000 NA
ATOM     28  C   UNL     1      50.169   6.962  18.388  0.00  0.00    +0.000 A 
ATOM     29  N   UNL     1      49.998   7.194  17.047  0.00  0.00    +0.000 N 
ATOM     30  C   UNL     1      49.303   6.341  16.226  0.00  0.00    +0.000 A 
ATOM     31  O   UNL     1      49.249   6.515  15.013  0.00  0.00    +0.000 OA
ATOM     32  C   UNL     1      48.687   5.219  16.907  0.00  0.00    +0.000 A 
ATOM     33  H   UNL     1      50.431   7.990  16.601  0.00  0.00    +0.000 HD
ENDBRANCH  20  23
ENDBRANCH   1  19
BRANCH   1  35
ATOM     34  N   UNL     1      44.145   3.219  12.748  0.00  0.00    +0.000 NA
ATOM     35  C   UNL     1      45.017   3.982  12.871  0.00  0.00    +0.000 C 
ENDBRANCH   1  35
TORSDOF 7
ENDMDL
MODEL 6
REMARK VINA RESULT:    -7.330      2.250      4.271
REMARK INTER + INTRA:         -11.715
REMARK INTER:                 -10.821
REMARK INTRA:                  -0.894
REMARK UNBOUND:                -1.386
REMARK  Name = 
REMARK  7 active torsions:
REMARK  status: ('A' for Active; 'I' for Inactive)
REMARK    1  A    between atoms: C_2  and  C_3
REMARK    2  A    between atoms: C_3  and  N_4
REMARK    3  A    between atoms: C_3  and  C_17
REMARK    4  A    between atoms: C_5  and  C_7
REMARK    5  A    between atoms: C_20  and  C_21
REMARK    6  A    between atoms: C_21  and  N_22
REMARK    7  A    between atoms: C_23  and  C_25
REMARK                            x       y       z     vdW  Elec       q    Type
REMARK                         _______ _______ _______ _____ _____    ______ ____
ROOT
ATOM      1  C   UNL     1      47.675   8.819  14.090  0.00  0.00    +0.000 C 
ENDROOT
BRANCH   1   2
ATOM      2  C   UNL     1      46.814   7.928  13.190  0.00  0.00    +0.000 A 
ATOM      3  C   UNL     1      45.730   8.492  12.497  0.00  0.00    +0.000 A 
ATOM      4  C   UNL     1      44.946   7.720  11.628  0.00  0.00    +0.000 A 
ATOM      5  C   UNL     1      45.205   6.355  11.446  0.00  0.00    +0.000 A 
ATOM      6  C   UNL     1      46.270   5.783  12.154  0.00  0.00    +0.000 A 
ATOM      7  C   UNL     1      47.054   6.552  13.028  0.00  0.00    +0.000 A 
BRANCH   5   8
ATOM      8  C   UNL     1      44.355   5.512  10.524  0.00  0.00    +0.000 C 
BRANCH   8   9
ATOM      9  N   UNL     1      45.135   4.802   9.539  0.00  0.00    +0.000 N 
ATOM     10  C   UNL     1      44.877   3.468   9.271  0.00  0.00    +0.000 C 
ATOM     11  O   UNL     1      44.001   2.823   9.830  0.00  0.00    +0.000 OA
ATOM     12  H   UNL     1      45.674   5.336   8.871  0.00  0.00    +0.000 HD
BRANCH  10  13
ATOM     13  C   UNL     1      45.729   2.833   8.218  0.00  0.00    +0.000 A 
ATOM     14  C   UNL     1      46.137   1.497   8.323  0.00  0.00    +0.000 A 
ATOM     15  C   UNL     1      46.891   0.915   7.302  0.00  0.00    +0.000 A 
ATOM     16  C   UNL     1      47.235   1.658   6.173  0.00  0.00    +0.000 A 
ATOM     17  C   UNL     1      46.830   2.989   6.065  0.00  0.00    +0.000 A 
ATOM     18  C   UNL     1      46.073   3.576   7.085  0.00  0.00    +0.000 A 
ENDBRANCH  10  13
ENDBRANCH   8   9
ENDBRANCH   5   8
ENDBRANCH   1   2
BRANCH   1  19
ATOM     19  N   UNL     1      47.863   8.171  15.380  0.00  0.00    +0.000 N 
ATOM     20  C   UNL     1      48.293   8.844  16.493  0.00  0.00    +0.000 C 
ATOM     21  O   UNL     1      48.585  10.035  16.460  0.00  0.00    +0.000 OA
ATOM     22  H   UNL     1      47.840   7.158  15.389  0.00  0.00    +0.000 HD
BRANCH  20  23
ATOM     23  C   UNL     1      48.305   8.083  17.752  0.00  0.00    +0.000 A 
ATOM     24  C   UNL     1      47.856   8.666  18.930  0.00  0.00    +0.000 A 
ATOM     25  S   UNL     1      47.935   7.624  20.283  0.00  0.00    +0.000 S 
ATOM     26  C   UNL     1      48.614   6.375  19.349  0.00  0.00    +0.000 A 
ATOM     27  N   UNL     1      48.976   5.191  19.912  0.00  0.00    +0.000 NA
ATOM     28  C   UNL     1      49.522   4.355  19.093  0.00  0.00    +0.000 A 
ATOM     29  N   UNL     1      49.720   4.587  17.756  0.00  0.00    +0.000 N 
ATOM     30  C   UNL     1      49.316   5.742  17.133  0.00  0.00    +0.000 A 
ATOM     31  O   UNL     1      49.412   5.887  15.918  0.00  0.00    +0.000 OA
ATOM     32  C   UNL     1      48.742   6.735  18.020  0.00  0.00    +0.000 A 
ATOM     33  H   UNL     1      50.132   3.881  17.164  0.00  0.00    +0.000 HD
ENDBRANCH  20  23
ENDBRANCH   1  19
BRANCH   1  35
ATOM     34  N   UNL     1      49.929   9.573  12.920  0.00  0.00    +0.000 NA
ATOM     35  C   UNL     1      48.950   9.208  13.435  0.00  0.00    +0.000 C 
ENDBRANCH   1  35
TORSDOF 7
ENDMDL
MODEL 7
REMARK VINA RESULT:    -7.189      2.671      4.443
REMARK INTER + INTRA:         -11.517
REMARK INTER:                 -10.624
REMARK INTRA:                  -0.893
REMARK UNBOUND:                -1.386
REMARK  Name = 
REMARK  7 active torsions:
REMARK  status: ('A' for Active; 'I' for Inactive)
REMARK    1  A    between atoms: C_2  and  C_3
REMARK    2  A    between atoms: C_3  and  N_4
REMARK    3  A    between atoms: C_3  and  C_17
REMARK    4  A    between atoms: C_5  and  C_7
REMARK    5  A    between atoms: C_20  and  C_21
REMARK    6  A    between atoms: C_21  and  N_22
REMARK    7  A    between atoms: C_23  and  C_25
REMARK                            x       y       z     vdW  Elec       q    Type
REMARK                         _______ _______ _______ _____ _____    ______ ____
ROOT
ATOM      1  C   UNL     1      44.219   4.132  11.663  0.00  0.00    +0.000 C 
ENDROOT
BRANCH   1   2
ATOM      2  C   UNL     1      44.965   4.074  10.327  0.00  0.00    +0.000 A 
ATOM      3  C   UNL     1      45.046   2.855   9.635  0.00  0.00    +0.000 A 
ATOM      4  C   UNL     1      45.680   2.770   8.388  0.00  0.00    +0.000 A 
ATOM      5  C   UNL     1      46.276   3.898   7.806  0.00  0.00    +0.000 A 
ATOM      6  C   UNL     1      46.219   5.111   8.504  0.00  0.00    +0.000 A 
ATOM      7  C   UNL     1      45.589   5.197   9.755  0.00  0.00    +0.000 A 
BRANCH   5   8
ATOM      8  C   UNL     1      46.976   3.813   6.470  0.00  0.00    +0.000 C 
BRANCH   8   9
ATOM      9  N   UNL     1      46.500   2.718   5.658  0.00  0.00    +0.000 N 
ATOM     10  C   UNL     1      47.394   1.829   5.088  0.00  0.00    +0.000 C 
ATOM     11  O   UNL     1      48.607   1.906   5.229  0.00  0.00    +0.000 OA
ATOM     12  H   UNL     1      45.527   2.452   5.727  0.00  0.00    +0.000 HD
BRANCH  10  13
ATOM     13  C   UNL     1      46.796   0.720   4.283  0.00  0.00    +0.000 A 
ATOM     14  C   UNL     1      46.005   0.985   3.157  0.00  0.00    +0.000 A 
ATOM     15  C   UNL     1      45.499  -0.070   2.395  0.00  0.00    +0.000 A 
ATOM     16  C   UNL     1      45.782  -1.389   2.748  0.00  0.00    +0.000 A 
ATOM     17  C   UNL     1      46.569  -1.657   3.869  0.00  0.00    +0.000 A 
ATOM     18  C   UNL     1      47.080  -0.603   4.634  0.00  0.00    +0.000 A 
ENDBRANCH  10  13
ENDBRANCH   8   9
ENDBRANCH   5   8
ENDBRANCH   1   2
BRANCH   1  19
ATOM     19  N   UNL     1      45.091   4.695  12.683  0.00  0.00    +0.000 N 
ATOM     20  C   UNL     1      46.053   3.960  13.326  0.00  0.00    +0.000 C 
ATOM     21  O   UNL     1      46.213   2.764  13.105  0.00  0.00    +0.000 OA
ATOM     22  H   UNL     1      44.843   5.611  13.040  0.00  0.00    +0.000 HD
BRANCH  20  23
ATOM     23  C   UNL     1      46.942   4.702  14.234  0.00  0.00    +0.000 A 
ATOM     24  C   UNL     1      47.167   4.246  15.526  0.00  0.00    +0.000 A 
ATOM     25  S   UNL     1      48.237   5.231  16.423  0.00  0.00    +0.000 S 
ATOM     26  C   UNL     1      48.399   6.326  15.131  0.00  0.00    +0.000 A 
ATOM     27  N   UNL     1      49.156   7.450  15.250  0.00  0.00    +0.000 NA
ATOM     28  C   UNL     1      49.149   8.211  14.206  0.00  0.00    +0.000 A 
ATOM     29  N   UNL     1      48.470   7.939  13.046  0.00  0.00    +0.000 N 
ATOM     30  C   UNL     1      47.744   6.788  12.859  0.00  0.00    +0.000 A 
ATOM     31  O   UNL     1      47.228   6.519  11.779  0.00  0.00    +0.000 OA
ATOM     32  C   UNL     1      47.679   5.923  14.020  0.00  0.00    +0.000 A 
ATOM     33  H   UNL     1      48.525   8.565  12.256  0.00  0.00    +0.000 HD
ENDBRANCH  20  23
ENDBRANCH   1  19
BRANCH   1  35
ATOM     34  N   UNL     1      41.916   5.415  11.401  0.00  0.00    +0.000 NA
ATOM     35  C   UNL     1      42.916   4.836  11.546  0.00  0.00    +0.000 C 
ENDBRANCH   1  35
TORSDOF 7
ENDMDL
MODEL 8
REMARK VINA RESULT:    -6.891      4.669      7.554
REMARK INTER + INTRA:         -11.097
REMARK INTER:                 -10.139
REMARK INTRA:                  -0.958
REMARK UNBOUND:                -1.386
REMARK  Name = 
REMARK  7 active torsions:
REMARK  status: ('A' for Active; 'I' for Inactive)
REMARK    1  A    between atoms: C_2  and  C_3
REMARK    2  A    between atoms: C_3  and  N_4
REMARK    3  A    between atoms: C_3  and  C_17
REMARK    4  A    between atoms: C_5  and  C_7
REMARK    5  A    between atoms: C_20  and  C_21
REMARK    6  A    between atoms: C_21  and  N_22
REMARK    7  A    between atoms: C_23  and  C_25
REMARK                            x       y       z     vdW  Elec       q    Type
REMARK                         _______ _______ _______ _____ _____    ______ ____
ROOT
ATOM      1  C   UNL     1      47.063   5.543  13.503  0.00  0.00    +0.000 C 
ENDROOT
BRANCH   1   2
ATOM      2  C   UNL     1      46.334   6.763  12.932  0.00  0.00    +0.000 A 
ATOM      3  C   UNL     1      46.768   8.052  13.285  0.00  0.00    +0.000 A 
ATOM      4  C   UNL     1      46.157   9.194  12.748  0.00  0.00    +0.000 A 
ATOM      5  C   UNL     1      45.076   9.082  11.862  0.00  0.00    +0.000 A 
ATOM      6  C   UNL     1      44.625   7.799  11.527  0.00  0.00    +0.000 A 
ATOM      7  C   UNL     1      45.232   6.654  12.066  0.00  0.00    +0.000 A 
BRANCH   5   8
ATOM      8  C   UNL     1      44.401  10.307  11.291  0.00  0.00    +0.000 C 
BRANCH   8   9
ATOM      9  N   UNL     1      43.108  10.560  11.882  0.00  0.00    +0.000 N 
ATOM     10  C   UNL     1      41.997  10.750  11.079  0.00  0.00    +0.000 C 
ATOM     11  O   UNL     1      42.032  10.717   9.857  0.00  0.00    +0.000 OA
ATOM     12  H   UNL     1      42.970  10.335  12.858  0.00  0.00    +0.000 HD
BRANCH  10  13
ATOM     13  C   UNL     1      40.703  10.984  11.792  0.00  0.00    +0.000 A 
ATOM     14  C   UNL     1      40.592  11.958  12.793  0.00  0.00    +0.000 A 
ATOM     15  C   UNL     1      39.360  12.189  13.409  0.00  0.00    +0.000 A 
ATOM     16  C   UNL     1      38.237  11.457  13.027  0.00  0.00    +0.000 A 
ATOM     17  C   UNL     1      38.344  10.485  12.030  0.00  0.00    +0.000 A 
ATOM     18  C   UNL     1      39.575  10.252  11.409  0.00  0.00    +0.000 A 
ENDBRANCH  10  13
ENDBRANCH   8   9
ENDBRANCH   5   8
ENDBRANCH   1   2
BRANCH   1  19
ATOM     19  N   UNL     1      47.355   5.767  14.912  0.00  0.00    +0.000 N 
ATOM     20  C   UNL     1      48.563   6.239  15.354  0.00  0.00    +0.000 C 
ATOM     21  O   UNL     1      49.491   6.470  14.586  0.00  0.00    +0.000 OA
ATOM     22  H   UNL     1      46.695   5.386  15.580  0.00  0.00    +0.000 HD
BRANCH  20  23
ATOM     23  C   UNL     1      48.659   6.540  16.791  0.00  0.00    +0.000 A 
ATOM     24  C   UNL     1      48.856   7.844  17.225  0.00  0.00    +0.000 A 
ATOM     25  S   UNL     1      48.930   7.996  18.925  0.00  0.00    +0.000 S 
ATOM     26  C   UNL     1      48.748   6.318  19.138  0.00  0.00    +0.000 A 
ATOM     27  N   UNL     1      48.772   5.758  20.377  0.00  0.00    +0.000 NA
ATOM     28  C   UNL     1      48.671   4.470  20.382  0.00  0.00    +0.000 A 
ATOM     29  N   UNL     1      48.526   3.693  19.261  0.00  0.00    +0.000 N 
ATOM     30  C   UNL     1      48.435   4.220  17.996  0.00  0.00    +0.000 A 
ATOM     31  O   UNL     1      48.206   3.515  17.019  0.00  0.00    +0.000 OA
ATOM     32  C   UNL     1      48.595   5.659  17.931  0.00  0.00    +0.000 A 
ATOM     33  H   UNL     1      48.428   2.692  19.336  0.00  0.00    +0.000 HD
ENDBRANCH  20  23
ENDBRANCH   1  19
BRANCH   1  35
ATOM     34  N   UNL     1      45.801   3.262  13.032  0.00  0.00    +0.000 NA
ATOM     35  C   UNL     1      46.325   4.280  13.247  0.00  0.00    +0.000 C 
ENDBRANCH   1  35
TORSDOF 7
ENDMDL
MODEL 9
REMARK VINA RESULT:    -6.813      2.395      3.087
REMARK INTER + INTRA:         -10.987
REMARK INTER:                  -9.869
REMARK INTRA:                  -1.118
REMARK UNBOUND:                -1.386
REMARK  Name = 
REMARK  7 active torsions:
REMARK  status: ('A' for Active; 'I' for Inactive)
REMARK    1  A    between atoms: C_2  and  C_3
REMARK    2  A    between atoms: C_3  and  N_4
REMARK    3  A    between atoms: C_3  and  C_17
REMARK    4  A    between atoms: C_5  and  C_7
REMARK    5  A    between atoms: C_20  and  C_21
REMARK    6  A    between atoms: C_21  and  N_22
REMARK    7  A    between atoms: C_23  and  C_25
REMARK                            x       y       z     vdW  Elec       q    Type
REMARK                         _______ _______ _______ _____ _____    ______ ____
ROOT
ATOM      1  C   UNL     1      48.255   5.262  16.155  0.00  0.00    +0.000 C 
ENDROOT
BRANCH   1   2
ATOM      2  C   UNL     1      47.445   5.419  14.864  0.00  0.00    +0.000 A 
ATOM      3  C   UNL     1      47.678   6.529  14.035  0.00  0.00    +0.000 A 
ATOM      4  C   UNL     1      46.990   6.684  12.824  0.00  0.00    +0.000 A 
ATOM      5  C   UNL     1      46.029   5.748  12.417  0.00  0.00    +0.000 A 
ATOM      6  C   UNL     1      45.777   4.652  13.252  0.00  0.00    +0.000 A 
ATOM      7  C   UNL     1      46.461   4.496  14.468  0.00  0.00    +0.000 A 
BRANCH   5   8
ATOM      8  C   UNL     1      45.272   5.916  11.120  0.00  0.00    +0.000 C 
BRANCH   8   9
ATOM      9  N   UNL     1      45.813   5.114  10.049  0.00  0.00    +0.000 N 
ATOM     10  C   UNL     1      45.153   3.973   9.627  0.00  0.00    +0.000 C 
ATOM     11  O   UNL     1      44.102   3.580  10.115  0.00  0.00    +0.000 OA
ATOM     12  H   UNL     1      46.512   5.523   9.444  0.00  0.00    +0.000 HD
BRANCH  10  13
ATOM     13  C   UNL     1      45.788   3.227   8.496  0.00  0.00    +0.000 A 
ATOM     14  C   UNL     1      45.981   1.841   8.560  0.00  0.00    +0.000 A 
ATOM     15  C   UNL     1      46.531   1.162   7.471  0.00  0.00    +0.000 A 
ATOM     16  C   UNL     1      46.885   1.859   6.316  0.00  0.00    +0.000 A 
ATOM     17  C   UNL     1      46.694   3.240   6.249  0.00  0.00    +0.000 A 
ATOM     18  C   UNL     1      46.140   3.923   7.337  0.00  0.00    +0.000 A 
ENDBRANCH  10  13
ENDBRANCH   8   9
ENDBRANCH   5   8
ENDBRANCH   1   2
BRANCH   1  19
ATOM     19  N   UNL     1      47.835   6.270  17.118  0.00  0.00    +0.000 N 
ATOM     20  C   UNL     1      48.670   6.764  18.086  0.00  0.00    +0.000 C 
ATOM     21  O   UNL     1      49.819   6.357  18.224  0.00  0.00    +0.000 OA
ATOM     22  H   UNL     1      46.843   6.467  17.169  0.00  0.00    +0.000 HD
BRANCH  20  23
ATOM     23  C   UNL     1      48.143   7.873  18.897  0.00  0.00    +0.000 A 
ATOM     24  C   UNL     1      47.771   7.663  20.218  0.00  0.00    +0.000 A 
ATOM     25  S   UNL     1      47.195   9.070  21.000  0.00  0.00    +0.000 S 
ATOM     26  C   UNL     1      47.381   9.997  19.585  0.00  0.00    +0.000 A 
ATOM     27  N   UNL     1      47.019  11.308  19.549  0.00  0.00    +0.000 NA
ATOM     28  C   UNL     1      47.171  11.871  18.397  0.00  0.00    +0.000 A 
ATOM     29  N   UNL     1      47.672  11.249  17.282  0.00  0.00    +0.000 N 
ATOM     30  C   UNL     1      48.106   9.946  17.288  0.00  0.00    +0.000 A 
ATOM     31  O   UNL     1      48.643   9.440  16.308  0.00  0.00    +0.000 OA
ATOM     32  C   UNL     1      47.909   9.252  18.546  0.00  0.00    +0.000 A 
ATOM     33  H   UNL     1      47.788  11.754  16.416  0.00  0.00    +0.000 HD
ENDBRANCH  20  23
ENDBRANCH   1  19
BRANCH   1  35
ATOM     34  N   UNL     1      48.093   2.784  17.078  0.00  0.00    +0.000 NA
ATOM     35  C   UNL     1      48.196   3.877  16.688  0.00  0.00    +0.000 C 
ENDBRANCH   1  35
TORSDOF 7
ENDMDL
