MODEL 1
REMARK VINA RESULT:    -8.094      0.000      0.000
REMARK INTER + INTRA:         -12.612
REMARK INTER:                 -11.406
REMARK INTRA:                  -1.206
REMARK UNBOUND:                -1.206
REMARK  Name = 
REMARK  7 active torsions:
REMARK  status: ('A' for Active; 'I' for Inactive)
REMARK    1  A    between atoms: C_2  and  C_20
REMARK    2  A    between atoms: N_3  and  C_4
REMARK    3  A    between atoms: C_4  and  C_5
REMARK    4  A    between atoms: C_8  and  C_9
REMARK    5  A    between atoms: C_9  and  N_10
REMARK    6  A    between atoms: N_10  and  C_11
REMARK    7  A    between atoms: C_11  and  C_12
REMARK                            x       y       z     vdW  Elec       q    Type
REMARK                         _______ _______ _______ _____ _____    ______ ____
ROOT
ATOM      1  C   UNL     1      46.934   8.300  12.797  0.00  0.00    +0.000 C 
ENDROOT
BRANCH   1   2
ATOM      2  C   UNL     1      46.102   7.152  12.285  0.00  0.00    +0.000 A 
ATOM      3  C   UNL     1      46.481   6.481  11.118  0.00  0.00    +0.000 A 
ATOM      4  C   UNL     1      45.714   5.421  10.632  0.00  0.00    +0.000 A 
ATOM      5  C   UNL     1      44.546   5.014  11.294  0.00  0.00    +0.000 A 
ATOM      6  C   UNL     1      44.135   5.723  12.429  0.00  0.00    +0.000 A 
ATOM      7  C   UNL     1      44.904   6.785  12.918  0.00  0.00    +0.000 A 
BRANCH   5   8
ATOM      8  C   UNL     1      43.774   3.812  10.795  0.00  0.00    +0.000 C 
BRANCH   8   9
ATOM      9  N   UNL     1      44.677   2.683  10.614  0.00  0.00    +0.000 NA
ATOM     10  H   UNL     1      44.570   2.025  11.388  0.00  0.00    +0.000 HD
BRANCH   9  11
ATOM     11  C   UNL     1      44.425   1.950   9.364  0.00  0.00    +0.000 C 
BRANCH  11  12
ATOM     12  C   UNL     1      45.581   2.081   8.382  0.00  0.00    +0.000 A 
ATOM     13  N   UNL     1      46.312   0.970   8.134  0.00  0.00    +0.000 NA
ATOM     14  C   UNL     1      47.376   1.122   7.323  0.00  0.00    +0.000 A 
ATOM     15  C   UNL     1      47.727   2.320   6.747  0.00  0.00    +0.000 A 
ATOM     16  C   UNL     1      46.908   3.383   7.043  0.00  0.00    +0.000 A 
ATOM     17  N   UNL     1      45.833   3.296   7.850  0.00  0.00    +0.000 NA
ENDBRANCH  11  12
ENDBRANCH   9  11
ENDBRANCH   8   9
ENDBRANCH   5   8
ENDBRANCH   1   2
BRANCH   1  20
ATOM     18  O   UNL     1      49.098   6.508  13.386  0.00  0.00    +0.000 OA
ATOM     19  C   UNL     1      48.446   7.028  14.281  0.00  0.00    +0.000 C 
ATOM     20  N   UNL     1      47.458   7.962  14.090  0.00  0.00    +0.000 N 
ATOM     21  H   UNL     1      46.860   8.189  14.869  0.00  0.00    +0.000 HD
BRANCH  19  22
ATOM     22  C   UNL     1      48.469   6.580  15.666  0.00  0.00    +0.000 A 
ATOM     23  C   UNL     1      49.009   7.345  16.686  0.00  0.00    +0.000 A 
ATOM     24  S   UNL     1      49.416   6.382  18.049  0.00  0.00    +0.000 S 
ATOM     25  C   UNL     1      48.753   4.983  17.331  0.00  0.00    +0.000 A 
ATOM     26  N   UNL     1      48.887   3.745  17.874  0.00  0.00    +0.000 NA
ATOM     27  C   UNL     1      48.288   2.808  17.213  0.00  0.00    +0.000 A 
ATOM     28  N   UNL     1      47.521   3.002  16.089  0.00  0.00    +0.000 N 
ATOM     29  C   UNL     1      47.333   4.239  15.522  0.00  0.00    +0.000 A 
ATOM     30  O   UNL     1      46.570   4.414  14.580  0.00  0.00    +0.000 OA
ATOM     31  C   UNL     1      48.103   5.287  16.154  0.00  0.00    +0.000 A 
ATOM     32  H   UNL     1      47.006   2.242  15.671  0.00  0.00    +0.000 HD
ENDBRANCH  19  22
ENDBRANCH   1  20
TORSDOF 7
ENDMDL
MODEL 2
REMARK VINA RESULT:    -7.744      1.220      1.526
REMARK INTER + INTRA:         -12.119
REMARK INTER:                 -11.029
REMARK INTRA:                  -1.090
REMARK UNBOUND:                -1.206
REMARK  Name = 
REMARK  7 active torsions:
REMARK  status: ('A' for Active; 'I' for Inactive)
REMARK    1  A    between atoms: C_2  and  C_20
REMARK    2  A    between atoms: N_3  and  C_4
REMARK    3  A    between atoms: C_4  and  C_5
REMARK    4  A    between atoms: C_8  and  C_9
REMARK    5  A    between atoms: C_9  and  N_10
REMARK    6  A    between atoms: N_10  and  C_11
REMARK    7  A    between atoms: C_11  and  C_12
REMARK                            x       y       z     vdW  Elec       q    Type
REMARK                         _______ _______ _______ _____ _____    ______ ____
ROOT
ATOM      1  C   UNL     1      48.311   6.827  13.163  0.00  0.00    +0.000 C 
ENDROOT
BRANCH   1   2
ATOM      2  C   UNL     1      47.085   6.173  12.579  0.00  0.00    +0.000 A 
ATOM      3  C   UNL     1      46.412   5.182  13.300  0.00  0.00    +0.000 A 
ATOM      4  C   UNL     1      45.280   4.564  12.766  0.00  0.00    +0.000 A 
ATOM      5  C   UNL     1      44.800   4.916  11.496  0.00  0.00    +0.000 A 
ATOM      6  C   UNL     1      45.507   5.867  10.749  0.00  0.00    +0.000 A 
ATOM      7  C   UNL     1      46.641   6.487  11.284  0.00  0.00    +0.000 A 
BRANCH   5   8
ATOM      8  C   UNL     1      43.525   4.292  10.969  0.00  0.00    +0.000 C 
BRANCH   8   9
ATOM      9  N   UNL     1      43.751   3.754   9.635  0.00  0.00    +0.000 NA
ATOM     10  H   UNL     1      44.316   4.407   9.088  0.00  0.00    +0.000 HD
BRANCH   9  11
ATOM     11  C   UNL     1      44.454   2.462   9.657  0.00  0.00    +0.000 C 
BRANCH  11  12
ATOM     12  C   UNL     1      45.520   2.375   8.572  0.00  0.00    +0.000 A 
ATOM     13  N   UNL     1      46.080   1.163   8.350  0.00  0.00    +0.000 NA
ATOM     14  C   UNL     1      47.073   1.119   7.442  0.00  0.00    +0.000 A 
ATOM     15  C   UNL     1      47.515   2.220   6.747  0.00  0.00    +0.000 A 
ATOM     16  C   UNL     1      46.867   3.398   7.028  0.00  0.00    +0.000 A 
ATOM     17  N   UNL     1      45.871   3.508   7.927  0.00  0.00    +0.000 NA
ENDBRANCH  11  12
ENDBRANCH   9  11
ENDBRANCH   8   9
ENDBRANCH   5   8
ENDBRANCH   1   2
BRANCH   1  20
ATOM     18  O   UNL     1      50.349   6.857  15.183  0.00  0.00    +0.000 OA
ATOM     19  C   UNL     1      49.164   6.903  15.481  0.00  0.00    +0.000 C 
ATOM     20  N   UNL     1      48.132   6.983  14.578  0.00  0.00    +0.000 N 
ATOM     21  H   UNL     1      47.194   6.829  14.913  0.00  0.00    +0.000 HD
BRANCH  19  22
ATOM     22  C   UNL     1      48.656   6.662  16.823  0.00  0.00    +0.000 A 
ATOM     23  C   UNL     1      48.512   7.674  17.757  0.00  0.00    +0.000 A 
ATOM     24  S   UNL     1      48.453   7.053  19.357  0.00  0.00    +0.000 S 
ATOM     25  C   UNL     1      48.483   5.442  18.795  0.00  0.00    +0.000 A 
ATOM     26  N   UNL     1      48.611   4.376  19.627  0.00  0.00    +0.000 NA
ATOM     27  C   UNL     1      48.577   3.229  19.029  0.00  0.00    +0.000 A 
ATOM     28  N   UNL     1      48.374   3.047  17.682  0.00  0.00    +0.000 N 
ATOM     29  C   UNL     1      48.210   4.094  16.807  0.00  0.00    +0.000 A 
ATOM     30  O   UNL     1      47.933   3.918  15.627  0.00  0.00    +0.000 OA
ATOM     31  C   UNL     1      48.383   5.392  17.421  0.00  0.00    +0.000 A 
ATOM     32  H   UNL     1      48.268   2.124  17.290  0.00  0.00    +0.000 HD
ENDBRANCH  19  22
ENDBRANCH   1  20
TORSDOF 7
ENDMDL
MODEL 3
REMARK VINA RESULT:    -7.275      3.184      5.168
REMARK INTER + INTRA:         -11.459
REMARK INTER:                 -10.204
REMARK INTRA:                  -1.254
REMARK UNBOUND:                -1.206
REMARK  Name = 
REMARK  7 active torsions:
REMARK  status: ('A' for Active; 'I' for Inactive)
REMARK    1  A    between atoms: C_2  and  C_20
REMARK    2  A    between atoms: N_3  and  C_4
REMARK    3  A    between atoms: C_4  and  C_5
REMARK    4  A    between atoms: C_8  and  C_9
REMARK    5  A    between atoms: C_9  and  N_10
REMARK    6  A    between atoms: N_10  and  C_11
REMARK    7  A    between atoms: C_11  and  C_12
REMARK                            x       y       z     vdW  Elec       q    Type
REMARK                         _______ _______ _______ _____ _____    ______ ____
ROOT
ATOM      1  C   UNL     1      48.074   6.589  13.366  0.00  0.00    +0.000 C 
ENDROOT
BRANCH   1   2
ATOM      2  C   UNL     1      46.898   5.822  12.817  0.00  0.00    +0.000 A 
ATOM      3  C   UNL     1      46.413   6.111  11.537  0.00  0.00    +0.000 A 
ATOM      4  C   UNL     1      45.320   5.413  11.022  0.00  0.00    +0.000 A 
ATOM      5  C   UNL     1      44.681   4.417  11.776  0.00  0.00    +0.000 A 
ATOM      6  C   UNL     1      45.130   4.168  13.079  0.00  0.00    +0.000 A 
ATOM      7  C   UNL     1      46.225   4.867  13.596  0.00  0.00    +0.000 A 
BRANCH   5   8
ATOM      8  C   UNL     1      43.549   3.616  11.167  0.00  0.00    +0.000 C 
BRANCH   8   9
ATOM      9  N   UNL     1      43.796   3.412   9.746  0.00  0.00    +0.000 NA
ATOM     10  H   UNL     1      44.424   4.138   9.395  0.00  0.00    +0.000 HD
BRANCH   9  11
ATOM     11  C   UNL     1      44.414   2.109   9.460  0.00  0.00    +0.000 C 
BRANCH  11  12
ATOM     12  C   UNL     1      45.552   2.225   8.454  0.00  0.00    +0.000 A 
ATOM     13  N   UNL     1      46.258   1.103   8.185  0.00  0.00    +0.000 NA
ATOM     14  C   UNL     1      47.307   1.241   7.353  0.00  0.00    +0.000 A 
ATOM     15  C   UNL     1      47.666   2.436   6.775  0.00  0.00    +0.000 A 
ATOM     16  C   UNL     1      46.872   3.511   7.094  0.00  0.00    +0.000 A 
ATOM     17  N   UNL     1      45.814   3.438   7.923  0.00  0.00    +0.000 NA
ENDBRANCH  11  12
ENDBRANCH   9  11
ENDBRANCH   8   9
ENDBRANCH   5   8
ENDBRANCH   1   2
BRANCH   1  20
ATOM     18  O   UNL     1      47.996   9.265  14.401  0.00  0.00    +0.000 OA
ATOM     19  C   UNL     1      48.090   9.055  13.200  0.00  0.00    +0.000 C 
ATOM     20  N   UNL     1      48.223   7.812  12.630  0.00  0.00    +0.000 N 
ATOM     21  H   UNL     1      48.107   7.731  11.632  0.00  0.00    +0.000 HD
BRANCH  19  22
ATOM     22  C   UNL     1      47.858  10.066  12.180  0.00  0.00    +0.000 A 
ATOM     23  C   UNL     1      48.891  10.749  11.561  0.00  0.00    +0.000 A 
ATOM     24  S   UNL     1      48.346  12.220  10.862  0.00  0.00    +0.000 S 
ATOM     25  C   UNL     1      46.725  11.879  11.267  0.00  0.00    +0.000 A 
ATOM     26  N   UNL     1      45.721  12.782  11.107  0.00  0.00    +0.000 NA
ATOM     27  C   UNL     1      44.551  12.337  11.432  0.00  0.00    +0.000 A 
ATOM     28  N   UNL     1      44.282  11.056  11.851  0.00  0.00    +0.000 N 
ATOM     29  C   UNL     1      45.258  10.102  11.999  0.00  0.00    +0.000 A 
ATOM     30  O   UNL     1      44.995   8.939  12.279  0.00  0.00    +0.000 OA
ATOM     31  C   UNL     1      46.596  10.606  11.779  0.00  0.00    +0.000 A 
ATOM     32  H   UNL     1      43.334  10.745  12.003  0.00  0.00    +0.000 HD
ENDBRANCH  19  22
ENDBRANCH   1  20
TORSDOF 7
ENDMDL
MODEL 4
REMARK VINA RESULT:    -7.204      2.400      3.174
REMARK INTER + INTRA:         -11.358
REMARK INTER:                 -10.380
REMARK INTRA:                  -0.979
REMARK UNBOUND:                -1.206
REMARK  Name = 
REMARK  7 active torsions:
REMARK  status: ('A' for Active; 'I' for Inactive)
REMARK    1  A    between atoms: C_2  and  C_20
REMARK    2  A    between atoms: N_3  and  C_4
REMARK    3  A    between atoms: C_4  and  C_5
REMARK    4  A    between atoms: C_8  and  C_9
REMARK    5  A    between atoms: C_9  and  N_10
REMARK    6  A    between atoms: N_10  and  C_11
REMARK    7  A    between atoms: C_11  and  C_12
REMARK                            x       y       z     vdW  Elec       q    Type
REMARK                         _______ _______ _______ _____ _____    ______ ____
ROOT
ATOM      1  C   UNL     1      47.359   4.242  15.291  0.00  0.00    +0.000 C 
ENDROOT
BRANCH   1   2
ATOM      2  C   UNL     1      46.693   4.606  13.989  0.00  0.00    +0.000 A 
ATOM      3  C   UNL     1      46.024   3.626  13.249  0.00  0.00    +0.000 A 
ATOM      4  C   UNL     1      45.411   3.951  12.038  0.00  0.00    +0.000 A 
ATOM      5  C   UNL     1      45.460   5.259  11.534  0.00  0.00    +0.000 A 
ATOM      6  C   UNL     1      46.179   6.227  12.245  0.00  0.00    +0.000 A 
ATOM      7  C   UNL     1      46.793   5.903  13.459  0.00  0.00    +0.000 A 
BRANCH   5   8
ATOM      8  C   UNL     1      44.719   5.607  10.260  0.00  0.00    +0.000 C 
BRANCH   8   9
ATOM      9  N   UNL     1      45.489   5.165   9.104  0.00  0.00    +0.000 NA
ATOM     10  H   UNL     1      46.408   4.836   9.405  0.00  0.00    +0.000 HD
BRANCH   9  11
ATOM     11  C   UNL     1      44.836   4.068   8.375  0.00  0.00    +0.000 C 
BRANCH  11  12
ATOM     12  C   UNL     1      45.845   3.057   7.844  0.00  0.00    +0.000 A 
ATOM     13  N   UNL     1      46.664   3.466   6.847  0.00  0.00    +0.000 NA
ATOM     14  C   UNL     1      47.496   2.538   6.338  0.00  0.00    +0.000 A 
ATOM     15  C   UNL     1      47.552   1.240   6.787  0.00  0.00    +0.000 A 
ATOM     16  C   UNL     1      46.696   0.931   7.817  0.00  0.00    +0.000 A 
ATOM     17  N   UNL     1      45.838   1.812   8.365  0.00  0.00    +0.000 NA
ENDBRANCH  11  12
ENDBRANCH   9  11
ENDBRANCH   8   9
ENDBRANCH   5   8
ENDBRANCH   1   2
BRANCH   1  20
ATOM     18  O   UNL     1      49.848   4.741  16.631  0.00  0.00    +0.000 OA
ATOM     19  C   UNL     1      48.943   5.563  16.653  0.00  0.00    +0.000 C 
ATOM     20  N   UNL     1      47.759   5.444  15.967  0.00  0.00    +0.000 N 
ATOM     21  H   UNL     1      47.010   6.079  16.196  0.00  0.00    +0.000 HD
BRANCH  19  22
ATOM     22  C   UNL     1      48.891   6.687  17.576  0.00  0.00    +0.000 A 
ATOM     23  C   UNL     1      49.652   7.830  17.399  0.00  0.00    +0.000 A 
ATOM     24  S   UNL     1      49.830   8.704  18.867  0.00  0.00    +0.000 S 
ATOM     25  C   UNL     1      48.790   7.635  19.696  0.00  0.00    +0.000 A 
ATOM     26  N   UNL     1      48.603   7.686  21.042  0.00  0.00    +0.000 NA
ATOM     27  C   UNL     1      47.751   6.823  21.492  0.00  0.00    +0.000 A 
ATOM     28  N   UNL     1      47.028   5.949  20.717  0.00  0.00    +0.000 N 
ATOM     29  C   UNL     1      47.161   5.882  19.351  0.00  0.00    +0.000 A 
ATOM     30  O   UNL     1      46.442   5.170  18.661  0.00  0.00    +0.000 OA
ATOM     31  C   UNL     1      48.207   6.735  18.831  0.00  0.00    +0.000 A 
ATOM     32  H   UNL     1      46.312   5.364  21.119  0.00  0.00    +0.000 HD
ENDBRANCH  19  22
ENDBRANCH   1  20
TORSDOF 7
ENDMDL
MODEL 5
REMARK VINA RESULT:    -7.068      2.109      2.793
REMARK INTER + INTRA:         -11.167
REMARK INTER:                 -10.319
REMARK INTRA:                  -0.848
REMARK UNBOUND:                -1.206
REMARK  Name = 
REMARK  7 active torsions:
REMARK  status: ('A' for Active; 'I' for Inactive)
REMARK    1  A    between atoms: C_2  and  C_20
REMARK    2  A    between atoms: N_3  and  C_4
REMARK    3  A    between atoms: C_4  and  C_5
REMARK    4  A    between atoms: C_8  and  C_9
REMARK    5  A    between atoms: C_9  and  N_10
REMARK    6  A    between atoms: N_10  and  C_11
REMARK    7  A    between atoms: C_11  and  C_12
REMARK                            x       y       z     vdW  Elec       q    Type
REMARK                         _______ _______ _______ _____ _____    ______ ____
ROOT
ATOM      1  C   UNL     1      48.153   6.583  13.441  0.00  0.00    +0.000 C 
ENDROOT
BRANCH   1   2
ATOM      2  C   UNL     1      46.928   5.973  12.809  0.00  0.00    +0.000 A 
ATOM      3  C   UNL     1      46.335   4.845  13.384  0.00  0.00    +0.000 A 
ATOM      4  C   UNL     1      45.205   4.267  12.803  0.00  0.00    +0.000 A 
ATOM      5  C   UNL     1      44.648   4.797  11.629  0.00  0.00    +0.000 A 
ATOM      6  C   UNL     1      45.276   5.891  11.022  0.00  0.00    +0.000 A 
ATOM      7  C   UNL     1      46.408   6.471  11.603  0.00  0.00    +0.000 A 
BRANCH   5   8
ATOM      8  C   UNL     1      43.376   4.205  11.061  0.00  0.00    +0.000 C 
BRANCH   8   9
ATOM      9  N   UNL     1      43.645   3.610   9.759  0.00  0.00    +0.000 NA
ATOM     10  H   UNL     1      44.047   4.312   9.134  0.00  0.00    +0.000 HD
BRANCH   9  11
ATOM     11  C   UNL     1      44.587   2.484   9.834  0.00  0.00    +0.000 C 
BRANCH  11  12
ATOM     12  C   UNL     1      45.534   2.451   8.641  0.00  0.00    +0.000 A 
ATOM     13  N   UNL     1      46.127   1.270   8.353  0.00  0.00    +0.000 NA
ATOM     14  C   UNL     1      47.017   1.277   7.343  0.00  0.00    +0.000 A 
ATOM     15  C   UNL     1      47.326   2.399   6.611  0.00  0.00    +0.000 A 
ATOM     16  C   UNL     1      46.653   3.543   6.967  0.00  0.00    +0.000 A 
ATOM     17  N   UNL     1      45.755   3.601   7.969  0.00  0.00    +0.000 NA
ENDBRANCH  11  12
ENDBRANCH   9  11
ENDBRANCH   8   9
ENDBRANCH   5   8
ENDBRANCH   1   2
BRANCH   1  20
ATOM     18  O   UNL     1      50.229   7.103  15.354  0.00  0.00    +0.000 OA
ATOM     19  C   UNL     1      49.174   6.584  15.692  0.00  0.00    +0.000 C 
ATOM     20  N   UNL     1      48.099   6.382  14.861  0.00  0.00    +0.000 N 
ATOM     21  H   UNL     1      47.354   5.785  15.184  0.00  0.00    +0.000 HD
BRANCH  19  22
ATOM     22  C   UNL     1      48.975   5.905  16.964  0.00  0.00    +0.000 A 
ATOM     23  C   UNL     1      48.831   4.532  17.059  0.00  0.00    +0.000 A 
ATOM     24  S   UNL     1      48.064   4.078  18.527  0.00  0.00    +0.000 S 
ATOM     25  C   UNL     1      48.047   5.691  19.084  0.00  0.00    +0.000 A 
ATOM     26  N   UNL     1      47.396   6.072  20.215  0.00  0.00    +0.000 NA
ATOM     27  C   UNL     1      47.523   7.326  20.503  0.00  0.00    +0.000 A 
ATOM     28  N   UNL     1      48.285   8.225  19.796  0.00  0.00    +0.000 N 
ATOM     29  C   UNL     1      48.984   7.880  18.665  0.00  0.00    +0.000 A 
ATOM     30  O   UNL     1      49.737   8.663  18.100  0.00  0.00    +0.000 OA
ATOM     31  C   UNL     1      48.751   6.518  18.236  0.00  0.00    +0.000 A 
ATOM     32  H   UNL     1      48.416   9.170  20.124  0.00  0.00    +0.000 HD
ENDBRANCH  19  22
ENDBRANCH   1  20
TORSDOF 7
ENDMDL
MODEL 6
REMARK VINA RESULT:    -6.889      3.120      5.095
REMARK INTER + INTRA:         -10.915
REMARK INTER:                  -9.783
REMARK INTRA:                  -1.132
REMARK UNBOUND:                -1.206
REMARK  Name = 
REMARK  7 active torsions:
REMARK  status: ('A' for Active; 'I' for Inactive)
REMARK    1  A    between atoms: C_2  and  C_20
REMARK    2  A    between atoms: N_3  and  C_4
REMARK    3  A    between atoms: C_4  and  C_5
REMARK    4  A    between atoms: C_8  and  C_9
REMARK    5  A    between atoms: C_9  and  N_10
REMARK    6  A    between atoms: N_10  and  C_11
REMARK    7  A    between atoms: C_11  and  C_12
REMARK                            x       y       z     vdW  Elec       q    Type
REMARK                         _______ _______ _______ _____ _____    ______ ____
ROOT
ATOM      1  C   UNL     1      48.111   6.182  13.887  0.00  0.00    +0.000 C 
ENDROOT
BRANCH   1   2
ATOM      2  C   UNL     1      46.872   5.865  13.089  0.00  0.00    +0.000 A 
ATOM      3  C   UNL     1      46.691   6.436  11.825  0.00  0.00    +0.000 A 
ATOM      4  C   UNL     1      45.545   6.156  11.081  0.00  0.00    +0.000 A 
ATOM      5  C   UNL     1      44.548   5.308  11.585  0.00  0.00    +0.000 A 
ATOM      6  C   UNL     1      44.701   4.783  12.874  0.00  0.00    +0.000 A 
ATOM      7  C   UNL     1      45.851   5.062  13.621  0.00  0.00    +0.000 A 
BRANCH   5   8
ATOM      8  C   UNL     1      43.351   4.953  10.729  0.00  0.00    +0.000 C 
BRANCH   8   9
ATOM      9  N   UNL     1      43.799   4.432   9.444  0.00  0.00    +0.000 NA
ATOM     10  H   UNL     1      44.540   5.026   9.068  0.00  0.00    +0.000 HD
BRANCH   9  11
ATOM     11  C   UNL     1      44.328   3.063   9.542  0.00  0.00    +0.000 C 
BRANCH  11  12
ATOM     12  C   UNL     1      45.410   2.795   8.504  0.00  0.00    +0.000 A 
ATOM     13  N   UNL     1      45.936   1.549   8.465  0.00  0.00    +0.000 NA
ATOM     14  C   UNL     1      46.944   1.351   7.594  0.00  0.00    +0.000 A 
ATOM     15  C   UNL     1      47.432   2.331   6.762  0.00  0.00    +0.000 A 
ATOM     16  C   UNL     1      46.815   3.555   6.862  0.00  0.00    +0.000 A 
ATOM     17  N   UNL     1      45.807   3.817   7.715  0.00  0.00    +0.000 NA
ENDBRANCH  11  12
ENDBRANCH   9  11
ENDBRANCH   8   9
ENDBRANCH   5   8
ENDBRANCH   1   2
BRANCH   1  20
ATOM     18  O   UNL     1      49.130   8.819  14.379  0.00  0.00    +0.000 OA
ATOM     19  C   UNL     1      49.391   8.225  13.342  0.00  0.00    +0.000 C 
ATOM     20  N   UNL     1      49.020   6.931  13.067  0.00  0.00    +0.000 N 
ATOM     21  H   UNL     1      49.121   6.598  12.121  0.00  0.00    +0.000 HD
BRANCH  19  22
ATOM     22  C   UNL     1      49.945   8.864  12.158  0.00  0.00    +0.000 A 
ATOM     23  C   UNL     1      51.190   8.536  11.650  0.00  0.00    +0.000 A 
ATOM     24  S   UNL     1      51.813   9.786  10.651  0.00  0.00    +0.000 S 
ATOM     25  C   UNL     1      50.375  10.694  10.790  0.00  0.00    +0.000 A 
ATOM     26  N   UNL     1      50.256  11.961  10.313  0.00  0.00    +0.000 NA
ATOM     27  C   UNL     1      49.082  12.480  10.475  0.00  0.00    +0.000 A 
ATOM     28  N   UNL     1      48.001  11.831  11.021  0.00  0.00    +0.000 N 
ATOM     29  C   UNL     1      48.066  10.542  11.490  0.00  0.00    +0.000 A 
ATOM     30  O   UNL     1      47.074   9.942  11.884  0.00  0.00    +0.000 OA
ATOM     31  C   UNL     1      49.399   9.981  11.453  0.00  0.00    +0.000 A 
ATOM     32  H   UNL     1      47.088  12.261  11.037  0.00  0.00    +0.000 HD
ENDBRANCH  19  22
ENDBRANCH   1  20
TORSDOF 7
ENDMDL
MODEL 7
REMARK VINA RESULT:    -6.857      2.104      2.633
REMARK INTER + INTRA:         -10.870
REMARK INTER:                 -10.150
REMARK INTRA:                  -0.719
REMARK UNBOUND:                -1.206
REMARK  Name = 
REMARK  7 active torsions:
REMARK  status: ('A' for Active; 'I' for Inactive)
REMARK    1  A    between atoms: C_2  and  C_20
REMARK    2  A    between atoms: N_3  and  C_4
REMARK    3  A    between atoms: C_4  and  C_5
REMARK    4  A    between atoms: C_8  and  C_9
REMARK    5  A    between atoms: C_9  and  N_10
REMARK    6  A    between atoms: N_10  and  C_11
REMARK    7  A    between atoms: C_11  and  C_12
REMARK                            x       y       z     vdW  Elec       q    Type
REMARK                         _______ _______ _______ _____ _____    ______ ____
ROOT
ATOM      1  C   UNL     1      48.905   7.241  14.291  0.00  0.00    +0.000 C 
ENDROOT
BRANCH   1   2
ATOM      2  C   UNL     1      47.633   6.881  13.567  0.00  0.00    +0.000 A 
ATOM      3  C   UNL     1      47.332   5.539  13.309  0.00  0.00    +0.000 A 
ATOM      4  C   UNL     1      46.160   5.195  12.634  0.00  0.00    +0.000 A 
ATOM      5  C   UNL     1      45.267   6.183  12.192  0.00  0.00    +0.000 A 
ATOM      6  C   UNL     1      45.596   7.528  12.398  0.00  0.00    +0.000 A 
ATOM      7  C   UNL     1      46.770   7.874  13.076  0.00  0.00    +0.000 A 
BRANCH   5   8
ATOM      8  C   UNL     1      43.964   5.784  11.533  0.00  0.00    +0.000 C 
BRANCH   8   9
ATOM      9  N   UNL     1      44.205   5.410  10.146  0.00  0.00    +0.000 NA
ATOM     10  H   UNL     1      45.156   5.667   9.877  0.00  0.00    +0.000 HD
BRANCH   9  11
ATOM     11  C   UNL     1      44.048   3.966   9.913  0.00  0.00    +0.000 C 
BRANCH  11  12
ATOM     12  C   UNL     1      45.064   3.437   8.908  0.00  0.00    +0.000 A 
ATOM     13  N   UNL     1      45.304   2.106   8.913  0.00  0.00    +0.000 NA
ATOM     14  C   UNL     1      46.259   1.667   8.072  0.00  0.00    +0.000 A 
ATOM     15  C   UNL     1      46.964   2.491   7.227  0.00  0.00    +0.000 A 
ATOM     16  C   UNL     1      46.629   3.822   7.281  0.00  0.00    +0.000 A 
ATOM     17  N   UNL     1      45.688   4.323   8.103  0.00  0.00    +0.000 NA
ENDBRANCH  11  12
ENDBRANCH   9  11
ENDBRANCH   8   9
ENDBRANCH   5   8
ENDBRANCH   1   2
BRANCH   1  20
ATOM     18  O   UNL     1      50.413   6.450  16.601  0.00  0.00    +0.000 OA
ATOM     19  C   UNL     1      49.341   7.028  16.714  0.00  0.00    +0.000 C 
ATOM     20  N   UNL     1      48.601   7.519  15.666  0.00  0.00    +0.000 N 
ATOM     21  H   UNL     1      47.654   7.811  15.847  0.00  0.00    +0.000 HD
BRANCH  19  22
ATOM     22  C   UNL     1      48.582   7.094  17.954  0.00  0.00    +0.000 A 
ATOM     23  C   UNL     1      48.075   8.282  18.454  0.00  0.00    +0.000 A 
ATOM     24  S   UNL     1      47.747   8.170  20.136  0.00  0.00    +0.000 S 
ATOM     25  C   UNL     1      48.151   6.513  20.163  0.00  0.00    +0.000 A 
ATOM     26  N   UNL     1      48.246   5.799  21.316  0.00  0.00    +0.000 NA
ATOM     27  C   UNL     1      48.526   4.548  21.143  0.00  0.00    +0.000 A 
ATOM     28  N   UNL     1      48.667   3.932  19.922  0.00  0.00    +0.000 N 
ATOM     29  C   UNL     1      48.550   4.607  18.731  0.00  0.00    +0.000 A 
ATOM     30  O   UNL     1      48.580   4.030  17.651  0.00  0.00    +0.000 OA
ATOM     31  C   UNL     1      48.377   6.034  18.891  0.00  0.00    +0.000 A 
ATOM     32  H   UNL     1      48.796   2.934  19.852  0.00  0.00    +0.000 HD
ENDBRANCH  19  22
ENDBRANCH   1  20
TORSDOF 7
ENDMDL
MODEL 8
REMARK VINA RESULT:    -6.814      3.280      8.210
REMARK INTER + INTRA:         -10.809
REMARK INTER:                  -9.965
REMARK INTRA:                  -0.843
REMARK UNBOUND:                -1.206
REMARK  Name = 
REMARK  7 active torsions:
REMARK  status: ('A' for Active; 'I' for Inactive)
REMARK    1  A    between atoms: C_2  and  C_20
REMARK    2  A    between atoms: N_3  and  C_4
REMARK    3  A    between atoms: C_4  and  C_5
REMARK    4  A    between atoms: C_8  and  C_9
REMARK    5  A    between atoms: C_9  and  N_10
REMARK    6  A    between atoms: N_10  and  C_11
REMARK    7  A    between atoms: C_11  and  C_12
REMARK                            x       y       z     vdW  Elec       q    Type
REMARK                         _______ _______ _______ _____ _____    ______ ____
ROOT
ATOM      1  C   UNL     1      47.582   6.621  12.853  0.00  0.00    +0.000 C 
ENDROOT
BRANCH   1   2
ATOM      2  C   UNL     1      47.762   5.990  14.210  0.00  0.00    +0.000 A 
ATOM      3  C   UNL     1      48.656   6.551  15.127  0.00  0.00    +0.000 A 
ATOM      4  C   UNL     1      48.836   5.971  16.384  0.00  0.00    +0.000 A 
ATOM      5  C   UNL     1      48.134   4.812  16.749  0.00  0.00    +0.000 A 
ATOM      6  C   UNL     1      47.283   4.217  15.810  0.00  0.00    +0.000 A 
ATOM      7  C   UNL     1      47.101   4.799  14.550  0.00  0.00    +0.000 A 
BRANCH   5   8
ATOM      8  C   UNL     1      48.283   4.245  18.145  0.00  0.00    +0.000 C 
BRANCH   8   9
ATOM      9  N   UNL     1      49.647   3.773  18.344  0.00  0.00    +0.000 NA
ATOM     10  H   UNL     1      49.753   3.408  19.293  0.00  0.00    +0.000 HD
BRANCH   9  11
ATOM     11  C   UNL     1      50.017   2.700  17.409  0.00  0.00    +0.000 C 
BRANCH  11  12
ATOM     12  C   UNL     1      51.458   2.245  17.605  0.00  0.00    +0.000 A 
ATOM     13  N   UNL     1      52.351   3.176  18.014  0.00  0.00    +0.000 NA
ATOM     14  C   UNL     1      53.633   2.775  18.108  0.00  0.00    +0.000 A 
ATOM     15  C   UNL     1      54.050   1.496  17.827  0.00  0.00    +0.000 A 
ATOM     16  C   UNL     1      53.064   0.621  17.442  0.00  0.00    +0.000 A 
ATOM     17  N   UNL     1      51.767   0.962  17.324  0.00  0.00    +0.000 NA
ENDBRANCH  11  12
ENDBRANCH   9  11
ENDBRANCH   8   9
ENDBRANCH   5   8
ENDBRANCH   1   2
BRANCH   1  20
ATOM     18  O   UNL     1      45.225   7.410  11.418  0.00  0.00    +0.000 OA
ATOM     19  C   UNL     1      45.570   6.238  11.469  0.00  0.00    +0.000 C 
ATOM     20  N   UNL     1      46.728   5.788  12.056  0.00  0.00    +0.000 N 
ATOM     21  H   UNL     1      46.829   4.796  12.208  0.00  0.00    +0.000 HD
BRANCH  19  22
ATOM     22  C   UNL     1      44.708   5.122  11.109  0.00  0.00    +0.000 A 
ATOM     23  C   UNL     1      43.656   4.708  11.908  0.00  0.00    +0.000 A 
ATOM     24  S   UNL     1      43.196   3.091  11.557  0.00  0.00    +0.000 S 
ATOM     25  C   UNL     1      44.302   2.996  10.262  0.00  0.00    +0.000 A 
ATOM     26  N   UNL     1      44.559   1.838   9.598  0.00  0.00    +0.000 NA
ATOM     27  C   UNL     1      45.398   1.962   8.620  0.00  0.00    +0.000 A 
ATOM     28  N   UNL     1      45.963   3.146   8.211  0.00  0.00    +0.000 N 
ATOM     29  C   UNL     1      45.710   4.345   8.832  0.00  0.00    +0.000 A 
ATOM     30  O   UNL     1      46.141   5.406   8.399  0.00  0.00    +0.000 OA
ATOM     31  C   UNL     1      44.887   4.219  10.015  0.00  0.00    +0.000 A 
ATOM     32  H   UNL     1      46.539   3.191   7.384  0.00  0.00    +0.000 HD
ENDBRANCH  19  22
ENDBRANCH   1  20
TORSDOF 7
ENDMDL
MODEL 9
REMARK VINA RESULT:    -6.758      3.034      7.603
REMARK INTER + INTRA:         -10.730
REMARK INTER:                  -9.345
REMARK INTRA:                  -1.385
REMARK UNBOUND:                -1.206
REMARK  Name = 
REMARK  7 active torsions:
REMARK  status: ('A' for Active; 'I' for Inactive)
REMARK    1  A    between atoms: C_2  and  C_20
REMARK    2  A    between atoms: N_3  and  C_4
REMARK    3  A    between atoms: C_4  and  C_5
REMARK    4  A    between atoms: C_8  and  C_9
REMARK    5  A    between atoms: C_9  and  N_10
REMARK    6  A    between atoms: N_10  and  C_11
REMARK    7  A    between atoms: C_11  and  C_12
REMARK                            x       y       z     vdW  Elec       q    Type
REMARK                         _______ _______ _______ _____ _____    ______ ____
ROOT
ATOM      1  C   UNL     1      46.530   8.450  12.968  0.00  0.00    +0.000 C 
ENDROOT
BRANCH   1   2
ATOM      2  C   UNL     1      47.644   8.127  13.930  0.00  0.00    +0.000 A 
ATOM      3  C   UNL     1      48.283   9.157  14.629  0.00  0.00    +0.000 A 
ATOM      4  C   UNL     1      49.320   8.870  15.517  0.00  0.00    +0.000 A 
ATOM      5  C   UNL     1      49.751   7.551  15.719  0.00  0.00    +0.000 A 
ATOM      6  C   UNL     1      49.152   6.526  14.976  0.00  0.00    +0.000 A 
ATOM      7  C   UNL     1      48.111   6.812  14.087  0.00  0.00    +0.000 A 
BRANCH   5   8
ATOM      8  C   UNL     1      50.823   7.254  16.746  0.00  0.00    +0.000 C 
BRANCH   8   9
ATOM      9  N   UNL     1      51.345   5.909  16.543  0.00  0.00    +0.000 NA
ATOM     10  H   UNL     1      52.352   5.949  16.376  0.00  0.00    +0.000 HD
BRANCH   9  11
ATOM     11  C   UNL     1      51.117   5.032  17.701  0.00  0.00    +0.000 C 
BRANCH  11  12
ATOM     12  C   UNL     1      49.772   4.320  17.622  0.00  0.00    +0.000 A 
ATOM     13  N   UNL     1      49.736   3.136  16.968  0.00  0.00    +0.000 NA
ATOM     14  C   UNL     1      48.526   2.559  16.842  0.00  0.00    +0.000 A 
ATOM     15  C   UNL     1      47.369   3.103  17.347  0.00  0.00    +0.000 A 
ATOM     16  C   UNL     1      47.516   4.295  18.014  0.00  0.00    +0.000 A 
ATOM     17  N   UNL     1      48.696   4.924  18.169  0.00  0.00    +0.000 NA
ENDBRANCH  11  12
ENDBRANCH   9  11
ENDBRANCH   8   9
ENDBRANCH   5   8
ENDBRANCH   1   2
BRANCH   1  20
ATOM     18  O   UNL     1      44.285   7.850  11.283  0.00  0.00    +0.000 OA
ATOM     19  C   UNL     1      45.276   7.133  11.294  0.00  0.00    +0.000 C 
ATOM     20  N   UNL     1      46.425   7.395  11.999  0.00  0.00    +0.000 N 
ATOM     21  H   UNL     1      47.107   6.659  12.089  0.00  0.00    +0.000 HD
BRANCH  19  22
ATOM     22  C   UNL     1      45.311   5.790  10.735  0.00  0.00    +0.000 A 
ATOM     23  C   UNL     1      45.679   5.539   9.424  0.00  0.00    +0.000 A 
ATOM     24  S   UNL     1      45.098   4.015   8.886  0.00  0.00    +0.000 S 
ATOM     25  C   UNL     1      44.478   3.641  10.431  0.00  0.00    +0.000 A 
ATOM     26  N   UNL     1      43.707   2.547  10.668  0.00  0.00    +0.000 NA
ATOM     27  C   UNL     1      43.358   2.403  11.906  0.00  0.00    +0.000 A 
ATOM     28  N   UNL     1      43.752   3.221  12.938  0.00  0.00    +0.000 N 
ATOM     29  C   UNL     1      44.555   4.319  12.750  0.00  0.00    +0.000 A 
ATOM     30  O   UNL     1      44.980   4.983  13.688  0.00  0.00    +0.000 OA
ATOM     31  C   UNL     1      44.848   4.590  11.360  0.00  0.00    +0.000 A 
ATOM     32  H   UNL     1      43.520   3.003  13.894  0.00  0.00    +0.000 HD
ENDBRANCH  19  22
ENDBRANCH   1  20
TORSDOF 7
ENDMDL
