MODEL 1
REMARK VINA RESULT:    -7.544      0.000      0.000
REMARK INTER + INTRA:         -10.029
REMARK INTER:                  -9.308
REMARK INTRA:                  -0.721
REMARK UNBOUND:                -0.721
REMARK  Name = 
REMARK  4 active torsions:
REMARK  status: ('A' for Active; 'I' for Inactive)
REMARK    1  A    between atoms: C_2  and  C_5
REMARK    2  A    between atoms: C_10  and  C_11
REMARK    3  A    between atoms: C_11  and  N_12
REMARK    4  A    between atoms: C_17  and  C_18
REMARK                            x       y       z     vdW  Elec       q    Type
REMARK                         _______ _______ _______ _____ _____    ______ ____
ROOT
ATOM      1  N   UNL     1      45.579   5.326  13.998  0.00  0.00    +0.000 N 
ATOM      2  C   UNL     1      44.802   5.044  12.872  0.00  0.00    +0.000 A 
ATOM      3  C   UNL     1      43.462   5.414  12.925  0.00  0.00    +0.000 A 
ATOM      4  C   UNL     1      42.641   5.155  11.840  0.00  0.00    +0.000 A 
ATOM      5  C   UNL     1      43.194   4.579  10.704  0.00  0.00    +0.000 A 
ATOM      6  C   UNL     1      44.556   4.272  10.690  0.00  0.00    +0.000 A 
ATOM      7  N   UNL     1      45.346   4.479  11.778  0.00  0.00    +0.000 NA
ATOM      8  H   UNL     1      45.732   6.335  14.028  0.00  0.00    +0.000 HD
ENDROOT
BRANCH   6   9
ATOM      9  C   UNL     1      45.228   3.717   9.503  0.00  0.00    +0.000 A 
ATOM     10  C   UNL     1      45.374   2.336   9.285  0.00  0.00    +0.000 A 
ATOM     11  C   UNL     1      46.031   1.857   8.155  0.00  0.00    +0.000 A 
ATOM     12  C   UNL     1      46.533   2.779   7.250  0.00  0.00    +0.000 A 
ATOM     13  N   UNL     1      46.410   4.113   7.400  0.00  0.00    +0.000 NA
ATOM     14  C   UNL     1      45.757   4.543   8.512  0.00  0.00    +0.000 A 
ENDBRANCH   6   9
BRANCH   1  15
ATOM     15  C   UNL     1      46.794   4.568  14.156  0.00  0.00    +0.000 C 
BRANCH  15  21
ATOM     16  C   UNL     1      48.259   4.746  16.341  0.00  0.00    +0.000 A 
ATOM     17  C   UNL     1      49.109   5.566  17.120  0.00  0.00    +0.000 A 
ATOM     18  C   UNL     1      49.539   6.814  16.674  0.00  0.00    +0.000 A 
ATOM     19  C   UNL     1      49.135   7.270  15.429  0.00  0.00    +0.000 A 
ATOM     20  C   UNL     1      48.263   6.502  14.659  0.00  0.00    +0.000 A 
ATOM     21  C   UNL     1      47.784   5.246  15.101  0.00  0.00    +0.000 A 
BRANCH  16  23
ATOM     22  F   UNL     1      48.613   3.104  18.064  0.00  0.00    +0.000 F 
ATOM     23  C   UNL     1      47.940   3.369  16.899  0.00  0.00    +0.000 C 
ATOM     24  F   UNL     1      48.282   2.339  16.076  0.00  0.00    +0.000 F 
ATOM     25  F   UNL     1      46.625   3.207  17.230  0.00  0.00    +0.000 F 
ENDBRANCH  16  23
ENDBRANCH  15  21
ENDBRANCH   1  15
TORSDOF 4
ENDMDL
MODEL 2
REMARK VINA RESULT:    -7.480      2.807      7.203
REMARK INTER + INTRA:          -9.950
REMARK INTER:                  -9.024
REMARK INTRA:                  -0.926
REMARK UNBOUND:                -0.721
REMARK  Name = 
REMARK  4 active torsions:
REMARK  status: ('A' for Active; 'I' for Inactive)
REMARK    1  A    between atoms: C_2  and  C_5
REMARK    2  A    between atoms: C_10  and  C_11
REMARK    3  A    between atoms: C_11  and  N_12
REMARK    4  A    between atoms: C_17  and  C_18
REMARK                            x       y       z     vdW  Elec       q    Type
REMARK                         _______ _______ _______ _____ _____    ______ ____
ROOT
ATOM      1  N   UNL     1      45.834   6.930  11.196  0.00  0.00    +0.000 N 
ATOM      2  C   UNL     1      46.964   6.875  12.016  0.00  0.00    +0.000 A 
ATOM      3  C   UNL     1      48.091   7.563  11.580  0.00  0.00    +0.000 A 
ATOM      4  C   UNL     1      49.243   7.540  12.349  0.00  0.00    +0.000 A 
ATOM      5  C   UNL     1      49.223   6.871  13.566  0.00  0.00    +0.000 A 
ATOM      6  C   UNL     1      48.048   6.237  13.975  0.00  0.00    +0.000 A 
ATOM      7  N   UNL     1      46.936   6.218  13.191  0.00  0.00    +0.000 NA
ATOM      8  H   UNL     1      45.441   7.870  11.269  0.00  0.00    +0.000 HD
ENDROOT
BRANCH   6   9
ATOM      9  C   UNL     1      47.929   5.560  15.277  0.00  0.00    +0.000 A 
ATOM     10  C   UNL     1      48.585   6.012  16.434  0.00  0.00    +0.000 A 
ATOM     11  C   UNL     1      48.455   5.330  17.642  0.00  0.00    +0.000 A 
ATOM     12  C   UNL     1      47.658   4.196  17.671  0.00  0.00    +0.000 A 
ATOM     13  N   UNL     1      46.995   3.725  16.596  0.00  0.00    +0.000 NA
ATOM     14  C   UNL     1      47.141   4.421  15.437  0.00  0.00    +0.000 A 
ENDBRANCH   6   9
BRANCH   1  15
ATOM     15  C   UNL     1      44.851   5.892  11.372  0.00  0.00    +0.000 C 
BRANCH  15  21
ATOM     16  C   UNL     1      44.452   3.472  10.405  0.00  0.00    +0.000 A 
ATOM     17  C   UNL     1      44.755   2.557   9.369  0.00  0.00    +0.000 A 
ATOM     18  C   UNL     1      45.499   2.931   8.252  0.00  0.00    +0.000 A 
ATOM     19  C   UNL     1      45.951   4.236   8.138  0.00  0.00    +0.000 A 
ATOM     20  C   UNL     1      45.704   5.147   9.165  0.00  0.00    +0.000 A 
ATOM     21  C   UNL     1      44.980   4.786  10.326  0.00  0.00    +0.000 A 
BRANCH  16  23
ATOM     22  F   UNL     1      44.191   2.928  12.735  0.00  0.00    +0.000 F 
ATOM     23  C   UNL     1      43.554   2.965  11.521  0.00  0.00    +0.000 C 
ATOM     24  F   UNL     1      43.105   1.690  11.343  0.00  0.00    +0.000 F 
ATOM     25  F   UNL     1      42.461   3.755  11.741  0.00  0.00    +0.000 F 
ENDBRANCH  16  23
ENDBRANCH  15  21
ENDBRANCH   1  15
TORSDOF 4
ENDMDL
MODEL 3
REMARK VINA RESULT:    -7.329      3.656      4.472
REMARK INTER + INTRA:          -9.764
REMARK INTER:                  -8.833
REMARK INTRA:                  -0.931
REMARK UNBOUND:                -0.721
REMARK  Name = 
REMARK  4 active torsions:
REMARK  status: ('A' for Active; 'I' for Inactive)
REMARK    1  A    between atoms: C_2  and  C_5
REMARK    2  A    between atoms: C_10  and  C_11
REMARK    3  A    between atoms: C_11  and  N_12
REMARK    4  A    between atoms: C_17  and  C_18
REMARK                            x       y       z     vdW  Elec       q    Type
REMARK                         _______ _______ _______ _____ _____    ______ ____
ROOT
ATOM      1  N   UNL     1      45.100   6.183  13.136  0.00  0.00    +0.000 N 
ATOM      2  C   UNL     1      44.719   5.044  12.422  0.00  0.00    +0.000 A 
ATOM      3  C   UNL     1      43.693   4.277  12.964  0.00  0.00    +0.000 A 
ATOM      4  C   UNL     1      43.277   3.133  12.302  0.00  0.00    +0.000 A 
ATOM      5  C   UNL     1      43.862   2.813  11.084  0.00  0.00    +0.000 A 
ATOM      6  C   UNL     1      44.854   3.646  10.566  0.00  0.00    +0.000 A 
ATOM      7  N   UNL     1      45.297   4.739  11.245  0.00  0.00    +0.000 NA
ATOM      8  H   UNL     1      44.359   6.878  13.034  0.00  0.00    +0.000 HD
ENDROOT
BRANCH   6   9
ATOM      9  C   UNL     1      45.478   3.408   9.253  0.00  0.00    +0.000 A 
ATOM     10  C   UNL     1      45.776   2.122   8.772  0.00  0.00    +0.000 A 
ATOM     11  C   UNL     1      46.381   1.946   7.530  0.00  0.00    +0.000 A 
ATOM     12  C   UNL     1      46.678   3.074   6.781  0.00  0.00    +0.000 A 
ATOM     13  N   UNL     1      46.403   4.330   7.186  0.00  0.00    +0.000 NA
ATOM     14  C   UNL     1      45.806   4.461   8.400  0.00  0.00    +0.000 A 
ENDBRANCH   6   9
BRANCH   1  15
ATOM     15  C   UNL     1      46.412   6.713  12.864  0.00  0.00    +0.000 C 
BRANCH  15  21
ATOM     16  C   UNL     1      47.472   8.988  12.059  0.00  0.00    +0.000 A 
ATOM     17  C   UNL     1      47.239  10.352  11.762  0.00  0.00    +0.000 A 
ATOM     18  C   UNL     1      45.956  10.894  11.755  0.00  0.00    +0.000 A 
ATOM     19  C   UNL     1      44.869  10.081  12.037  0.00  0.00    +0.000 A 
ATOM     20  C   UNL     1      45.074   8.743  12.375  0.00  0.00    +0.000 A 
ATOM     21  C   UNL     1      46.368   8.174  12.422  0.00  0.00    +0.000 A 
BRANCH  16  23
ATOM     22  F   UNL     1      49.768   9.488  11.537  0.00  0.00    +0.000 F 
ATOM     23  C   UNL     1      48.906   8.500  11.940  0.00  0.00    +0.000 C 
ATOM     24  F   UNL     1      49.086   7.509  11.022  0.00  0.00    +0.000 F 
ATOM     25  F   UNL     1      49.432   8.061  13.122  0.00  0.00    +0.000 F 
ENDBRANCH  16  23
ENDBRANCH  15  21
ENDBRANCH   1  15
TORSDOF 4
ENDMDL
MODEL 4
REMARK VINA RESULT:    -7.304      2.012      2.545
REMARK INTER + INTRA:          -9.734
REMARK INTER:                  -8.991
REMARK INTRA:                  -0.743
REMARK UNBOUND:                -0.721
REMARK  Name = 
REMARK  4 active torsions:
REMARK  status: ('A' for Active; 'I' for Inactive)
REMARK    1  A    between atoms: C_2  and  C_5
REMARK    2  A    between atoms: C_10  and  C_11
REMARK    3  A    between atoms: C_11  and  N_12
REMARK    4  A    between atoms: C_17  and  C_18
REMARK                            x       y       z     vdW  Elec       q    Type
REMARK                         _______ _______ _______ _____ _____    ______ ____
ROOT
ATOM      1  N   UNL     1      45.704   5.426  13.905  0.00  0.00    +0.000 N 
ATOM      2  C   UNL     1      44.895   5.085  12.819  0.00  0.00    +0.000 A 
ATOM      3  C   UNL     1      43.544   5.400  12.918  0.00  0.00    +0.000 A 
ATOM      4  C   UNL     1      42.693   5.081  11.873  0.00  0.00    +0.000 A 
ATOM      5  C   UNL     1      43.224   4.503  10.728  0.00  0.00    +0.000 A 
ATOM      6  C   UNL     1      44.597   4.253  10.665  0.00  0.00    +0.000 A 
ATOM      7  N   UNL     1      45.420   4.519  11.716  0.00  0.00    +0.000 NA
ATOM      8  H   UNL     1      45.814   6.441  13.908  0.00  0.00    +0.000 HD
ENDROOT
BRANCH   6   9
ATOM      9  C   UNL     1      45.244   3.700   9.464  0.00  0.00    +0.000 A 
ATOM     10  C   UNL     1      45.399   2.320   9.249  0.00  0.00    +0.000 A 
ATOM     11  C   UNL     1      46.033   1.842   8.104  0.00  0.00    +0.000 A 
ATOM     12  C   UNL     1      46.503   2.765   7.183  0.00  0.00    +0.000 A 
ATOM     13  N   UNL     1      46.370   4.098   7.331  0.00  0.00    +0.000 NA
ATOM     14  C   UNL     1      45.741   4.526   8.457  0.00  0.00    +0.000 A 
ENDBRANCH   6   9
BRANCH   1  15
ATOM     15  C   UNL     1      46.956   4.724  14.031  0.00  0.00    +0.000 C 
BRANCH  15  21
ATOM     16  C   UNL     1      48.500   6.015  15.734  0.00  0.00    +0.000 A 
ATOM     17  C   UNL     1      49.088   6.010  17.021  0.00  0.00    +0.000 A 
ATOM     18  C   UNL     1      48.777   5.037  17.968  0.00  0.00    +0.000 A 
ATOM     19  C   UNL     1      47.861   4.046  17.654  0.00  0.00    +0.000 A 
ATOM     20  C   UNL     1      47.299   4.001  16.378  0.00  0.00    +0.000 A 
ATOM     21  C   UNL     1      47.620   4.957  15.386  0.00  0.00    +0.000 A 
BRANCH  16  23
ATOM     22  F   UNL     1      47.747   7.906  14.450  0.00  0.00    +0.000 F 
ATOM     23  C   UNL     1      48.850   7.183  14.829  0.00  0.00    +0.000 C 
ATOM     24  F   UNL     1      49.431   6.824  13.650  0.00  0.00    +0.000 F 
ATOM     25  F   UNL     1      49.665   8.106  15.421  0.00  0.00    +0.000 F 
ENDBRANCH  16  23
ENDBRANCH  15  21
ENDBRANCH   1  15
TORSDOF 4
ENDMDL
MODEL 5
REMARK VINA RESULT:    -7.261      2.708      4.232
REMARK INTER + INTRA:          -9.680
REMARK INTER:                  -8.601
REMARK INTRA:                  -1.079
REMARK UNBOUND:                -0.721
REMARK  Name = 
REMARK  4 active torsions:
REMARK  status: ('A' for Active; 'I' for Inactive)
REMARK    1  A    between atoms: C_2  and  C_5
REMARK    2  A    between atoms: C_10  and  C_11
REMARK    3  A    between atoms: C_11  and  N_12
REMARK    4  A    between atoms: C_17  and  C_18
REMARK                            x       y       z     vdW  Elec       q    Type
REMARK                         _______ _______ _______ _____ _____    ______ ____
ROOT
ATOM      1  N   UNL     1      49.491   7.039  15.176  0.00  0.00    +0.000 N 
ATOM      2  C   UNL     1      48.665   7.054  14.050  0.00  0.00    +0.000 A 
ATOM      3  C   UNL     1      49.069   7.852  12.985  0.00  0.00    +0.000 A 
ATOM      4  C   UNL     1      48.288   7.910  11.843  0.00  0.00    +0.000 A 
ATOM      5  C   UNL     1      47.145   7.125  11.772  0.00  0.00    +0.000 A 
ATOM      6  C   UNL     1      46.814   6.306  12.853  0.00  0.00    +0.000 A 
ATOM      7  N   UNL     1      47.556   6.293  13.994  0.00  0.00    +0.000 NA
ATOM      8  H   UNL     1      50.333   6.512  14.940  0.00  0.00    +0.000 HD
ENDROOT
BRANCH   6   9
ATOM      9  C   UNL     1      45.653   5.400  12.831  0.00  0.00    +0.000 A 
ATOM     10  C   UNL     1      44.327   5.857  12.912  0.00  0.00    +0.000 A 
ATOM     11  C   UNL     1      43.261   4.961  12.902  0.00  0.00    +0.000 A 
ATOM     12  C   UNL     1      43.544   3.608  12.807  0.00  0.00    +0.000 A 
ATOM     13  N   UNL     1      44.795   3.114  12.713  0.00  0.00    +0.000 NA
ATOM     14  C   UNL     1      45.809   4.019  12.718  0.00  0.00    +0.000 A 
ENDBRANCH   6   9
BRANCH   1  15
ATOM     15  C   UNL     1      48.892   6.618  16.417  0.00  0.00    +0.000 C 
BRANCH  15  21
ATOM     16  C   UNL     1      48.812   4.148  17.338  0.00  0.00    +0.000 A 
ATOM     17  C   UNL     1      49.553   3.079  17.895  0.00  0.00    +0.000 A 
ATOM     18  C   UNL     1      50.940   3.127  18.010  0.00  0.00    +0.000 A 
ATOM     19  C   UNL     1      51.625   4.246  17.561  0.00  0.00    +0.000 A 
ATOM     20  C   UNL     1      50.917   5.332  17.048  0.00  0.00    +0.000 A 
ATOM     21  C   UNL     1      49.505   5.324  16.950  0.00  0.00    +0.000 A 
BRANCH  16  23
ATOM     22  F   UNL     1      46.915   2.692  17.605  0.00  0.00    +0.000 F 
ATOM     23  C   UNL     1      47.317   3.933  17.182  0.00  0.00    +0.000 C 
ATOM     24  F   UNL     1      46.872   4.005  15.896  0.00  0.00    +0.000 F 
ATOM     25  F   UNL     1      46.562   4.798  17.923  0.00  0.00    +0.000 F 
ENDBRANCH  16  23
ENDBRANCH  15  21
ENDBRANCH   1  15
TORSDOF 4
ENDMDL
MODEL 6
REMARK VINA RESULT:    -6.946      3.663      7.619
REMARK INTER + INTRA:          -9.292
REMARK INTER:                  -8.462
REMARK INTRA:                  -0.830
REMARK UNBOUND:                -0.721
REMARK  Name = 
REMARK  4 active torsions:
REMARK  status: ('A' for Active; 'I' for Inactive)
REMARK    1  A    between atoms: C_2  and  C_5
REMARK    2  A    between atoms: C_10  and  C_11
REMARK    3  A    between atoms: C_11  and  N_12
REMARK    4  A    between atoms: C_17  and  C_18
REMARK                            x       y       z     vdW  Elec       q    Type
REMARK                         _______ _______ _______ _____ _____    ______ ____
ROOT
ATOM      1  N   UNL     1      46.619   4.300  15.874  0.00  0.00    +0.000 N 
ATOM      2  C   UNL     1      47.545   4.375  16.917  0.00  0.00    +0.000 A 
ATOM      3  C   UNL     1      47.171   5.107  18.038  0.00  0.00    +0.000 A 
ATOM      4  C   UNL     1      48.051   5.220  19.102  0.00  0.00    +0.000 A 
ATOM      5  C   UNL     1      49.266   4.551  19.040  0.00  0.00    +0.000 A 
ATOM      6  C   UNL     1      49.569   3.792  17.909  0.00  0.00    +0.000 A 
ATOM      7  N   UNL     1      48.723   3.727  16.844  0.00  0.00    +0.000 NA
ATOM      8  H   UNL     1      45.859   3.687  16.173  0.00  0.00    +0.000 HD
ENDROOT
BRANCH   6   9
ATOM      9  C   UNL     1      50.808   3.005  17.794  0.00  0.00    +0.000 A 
ATOM     10  C   UNL     1      52.067   3.509  18.161  0.00  0.00    +0.000 A 
ATOM     11  C   UNL     1      53.216   2.733  18.021  0.00  0.00    +0.000 A 
ATOM     12  C   UNL     1      53.081   1.451  17.513  0.00  0.00    +0.000 A 
ATOM     13  N   UNL     1      51.898   0.911  17.158  0.00  0.00    +0.000 NA
ATOM     14  C   UNL     1      50.799   1.696  17.315  0.00  0.00    +0.000 A 
ENDBRANCH   6   9
BRANCH   1  15
ATOM     15  C   UNL     1      47.132   3.965  14.570  0.00  0.00    +0.000 C 
BRANCH  15  21
ATOM     16  C   UNL     1      46.069   5.209  12.502  0.00  0.00    +0.000 A 
ATOM     17  C   UNL     1      46.153   6.321  11.631  0.00  0.00    +0.000 A 
ATOM     18  C   UNL     1      47.069   7.350  11.839  0.00  0.00    +0.000 A 
ATOM     19  C   UNL     1      47.921   7.297  12.931  0.00  0.00    +0.000 A 
ATOM     20  C   UNL     1      47.889   6.192  13.781  0.00  0.00    +0.000 A 
ATOM     21  C   UNL     1      46.992   5.117  13.576  0.00  0.00    +0.000 A 
BRANCH  16  23
ATOM     22  F   UNL     1      45.446   2.934  12.028  0.00  0.00    +0.000 F 
ATOM     23  C   UNL     1      44.966   4.204  12.220  0.00  0.00    +0.000 C 
ATOM     24  F   UNL     1      44.249   4.462  11.090  0.00  0.00    +0.000 F 
ATOM     25  F   UNL     1      44.074   4.072  13.247  0.00  0.00    +0.000 F 
ENDBRANCH  16  23
ENDBRANCH  15  21
ENDBRANCH   1  15
TORSDOF 4
ENDMDL
MODEL 7
REMARK VINA RESULT:    -6.645      4.188      7.332
REMARK INTER + INTRA:          -8.921
REMARK INTER:                  -8.138
REMARK INTRA:                  -0.782
REMARK UNBOUND:                -0.721
REMARK  Name = 
REMARK  4 active torsions:
REMARK  status: ('A' for Active; 'I' for Inactive)
REMARK    1  A    between atoms: C_2  and  C_5
REMARK    2  A    between atoms: C_10  and  C_11
REMARK    3  A    between atoms: C_11  and  N_12
REMARK    4  A    between atoms: C_17  and  C_18
REMARK                            x       y       z     vdW  Elec       q    Type
REMARK                         _______ _______ _______ _____ _____    ______ ____
ROOT
ATOM      1  N   UNL     1      46.425   5.734  12.143  0.00  0.00    +0.000 N 
ATOM      2  C   UNL     1      47.115   6.838  12.650  0.00  0.00    +0.000 A 
ATOM      3  C   UNL     1      47.794   6.657  13.851  0.00  0.00    +0.000 A 
ATOM      4  C   UNL     1      48.492   7.718  14.404  0.00  0.00    +0.000 A 
ATOM      5  C   UNL     1      48.540   8.922  13.714  0.00  0.00    +0.000 A 
ATOM      6  C   UNL     1      47.879   9.031  12.489  0.00  0.00    +0.000 A 
ATOM      7  N   UNL     1      47.150   8.003  11.976  0.00  0.00    +0.000 NA
ATOM      8  H   UNL     1      47.115   5.066  11.796  0.00  0.00    +0.000 HD
ENDROOT
BRANCH   6   9
ATOM      9  C   UNL     1      47.933  10.253  11.669  0.00  0.00    +0.000 A 
ATOM     10  C   UNL     1      49.100  10.680  11.014  0.00  0.00    +0.000 A 
ATOM     11  C   UNL     1      49.108  11.852  10.261  0.00  0.00    +0.000 A 
ATOM     12  C   UNL     1      47.934  12.582  10.174  0.00  0.00    +0.000 A 
ATOM     13  N   UNL     1      46.782  12.213  10.769  0.00  0.00    +0.000 NA
ATOM     14  C   UNL     1      46.811  11.061  11.490  0.00  0.00    +0.000 A 
ENDBRANCH   6   9
BRANCH   1  15
ATOM     15  C   UNL     1      45.374   6.003  11.195  0.00  0.00    +0.000 C 
BRANCH  15  21
ATOM     16  C   UNL     1      44.402   3.667  10.453  0.00  0.00    +0.000 A 
ATOM     17  C   UNL     1      44.393   2.663   9.457  0.00  0.00    +0.000 A 
ATOM     18  C   UNL     1      45.049   2.830   8.239  0.00  0.00    +0.000 A 
ATOM     19  C   UNL     1      45.725   4.013   7.983  0.00  0.00    +0.000 A 
ATOM     20  C   UNL     1      45.786   5.002   8.964  0.00  0.00    +0.000 A 
ATOM     21  C   UNL     1      45.157   4.846  10.222  0.00  0.00    +0.000 A 
BRANCH  16  23
ATOM     22  F   UNL     1      42.910   2.201  11.642  0.00  0.00    +0.000 F 
ATOM     23  C   UNL     1      43.571   3.401  11.696  0.00  0.00    +0.000 C 
ATOM     24  F   UNL     1      42.583   4.314  11.915  0.00  0.00    +0.000 F 
ATOM     25  F   UNL     1      44.313   3.322  12.841  0.00  0.00    +0.000 F 
ENDBRANCH  16  23
ENDBRANCH  15  21
ENDBRANCH   1  15
TORSDOF 4
ENDMDL
MODEL 8
REMARK VINA RESULT:    -6.597      2.156      3.411
REMARK INTER + INTRA:          -8.861
REMARK INTER:                  -7.864
REMARK INTRA:                  -0.997
REMARK UNBOUND:                -0.721
REMARK  Name = 
REMARK  4 active torsions:
REMARK  status: ('A' for Active; 'I' for Inactive)
REMARK    1  A    between atoms: C_2  and  C_5
REMARK    2  A    between atoms: C_10  and  C_11
REMARK    3  A    between atoms: C_11  and  N_12
REMARK    4  A    between atoms: C_17  and  C_18
REMARK                            x       y       z     vdW  Elec       q    Type
REMARK                         _______ _______ _______ _____ _____    ______ ____
ROOT
ATOM      1  N   UNL     1      48.673   7.380  14.430  0.00  0.00    +0.000 N 
ATOM      2  C   UNL     1      47.455   7.487  13.754  0.00  0.00    +0.000 A 
ATOM      3  C   UNL     1      46.987   8.772  13.501  0.00  0.00    +0.000 A 
ATOM      4  C   UNL     1      45.782   8.940  12.839  0.00  0.00    +0.000 A 
ATOM      5  C   UNL     1      45.098   7.815  12.397  0.00  0.00    +0.000 A 
ATOM      6  C   UNL     1      45.640   6.551  12.638  0.00  0.00    +0.000 A 
ATOM      7  N   UNL     1      46.797   6.390  13.335  0.00  0.00    +0.000 NA
ATOM      8  H   UNL     1      49.414   7.656  13.784  0.00  0.00    +0.000 HD
ENDROOT
BRANCH   6   9
ATOM      9  C   UNL     1      45.006   5.315  12.148  0.00  0.00    +0.000 A 
ATOM     10  C   UNL     1      44.859   5.023  10.781  0.00  0.00    +0.000 A 
ATOM     11  C   UNL     1      44.239   3.848  10.364  0.00  0.00    +0.000 A 
ATOM     12  C   UNL     1      43.775   2.973  11.334  0.00  0.00    +0.000 A 
ATOM     13  N   UNL     1      43.901   3.194  12.658  0.00  0.00    +0.000 NA
ATOM     14  C   UNL     1      44.517   4.349  13.026  0.00  0.00    +0.000 A 
ENDBRANCH   6   9
BRANCH   1  15
ATOM     15  C   UNL     1      48.941   6.131  15.095  0.00  0.00    +0.000 C 
BRANCH  15  21
ATOM     16  C   UNL     1      47.858   5.045  17.240  0.00  0.00    +0.000 A 
ATOM     17  C   UNL     1      47.390   5.264  18.557  0.00  0.00    +0.000 A 
ATOM     18  C   UNL     1      47.558   6.486  19.203  0.00  0.00    +0.000 A 
ATOM     19  C   UNL     1      48.210   7.521  18.550  0.00  0.00    +0.000 A 
ATOM     20  C   UNL     1      48.643   7.346  17.236  0.00  0.00    +0.000 A 
ATOM     21  C   UNL     1      48.456   6.127  16.543  0.00  0.00    +0.000 A 
BRANCH  16  23
ATOM     22  F   UNL     1      46.831   2.876  17.423  0.00  0.00    +0.000 F 
ATOM     23  C   UNL     1      47.696   3.641  16.683  0.00  0.00    +0.000 C 
ATOM     24  F   UNL     1      48.847   2.911  16.661  0.00  0.00    +0.000 F 
ATOM     25  F   UNL     1      47.171   3.612  15.422  0.00  0.00    +0.000 F 
ENDBRANCH  16  23
ENDBRANCH  15  21
ENDBRANCH   1  15
TORSDOF 4
ENDMDL
MODEL 9
REMARK VINA RESULT:    -6.448      3.600      7.728
REMARK INTER + INTRA:          -8.677
REMARK INTER:                  -7.900
REMARK INTRA:                  -0.777
REMARK UNBOUND:                -0.721
REMARK  Name = 
REMARK  4 active torsions:
REMARK  status: ('A' for Active; 'I' for Inactive)
REMARK    1  A    between atoms: C_2  and  C_5
REMARK    2  A    between atoms: C_10  and  C_11
REMARK    3  A    between atoms: C_11  and  N_12
REMARK    4  A    between atoms: C_17  and  C_18
REMARK                            x       y       z     vdW  Elec       q    Type
REMARK                         _______ _______ _______ _____ _____    ______ ____
ROOT
ATOM      1  N   UNL     1      46.650   3.950  14.740  0.00  0.00    +0.000 N 
ATOM      2  C   UNL     1      47.399   4.431  15.816  0.00  0.00    +0.000 A 
ATOM      3  C   UNL     1      46.995   4.041  17.088  0.00  0.00    +0.000 A 
ATOM      4  C   UNL     1      47.697   4.491  18.194  0.00  0.00    +0.000 A 
ATOM      5  C   UNL     1      48.823   5.279  17.997  0.00  0.00    +0.000 A 
ATOM      6  C   UNL     1      49.210   5.600  16.695  0.00  0.00    +0.000 A 
ATOM      7  N   UNL     1      48.486   5.200  15.614  0.00  0.00    +0.000 NA
ATOM      8  H   UNL     1      46.855   2.955  14.635  0.00  0.00    +0.000 HD
ENDROOT
BRANCH   6   9
ATOM      9  C   UNL     1      50.425   6.379  16.402  0.00  0.00    +0.000 A 
ATOM     10  C   UNL     1      51.687   6.047  16.922  0.00  0.00    +0.000 A 
ATOM     11  C   UNL     1      52.807   6.823  16.630  0.00  0.00    +0.000 A 
ATOM     12  C   UNL     1      52.642   7.928  15.810  0.00  0.00    +0.000 A 
ATOM     13  N   UNL     1      51.459   8.285  15.272  0.00  0.00    +0.000 NA
ATOM     14  C   UNL     1      50.390   7.501  15.574  0.00  0.00    +0.000 A 
ENDBRANCH   6   9
BRANCH   1  15
ATOM     15  C   UNL     1      46.747   4.680  13.501  0.00  0.00    +0.000 C 
BRANCH  15  21
ATOM     16  C   UNL     1      44.793   5.706  12.058  0.00  0.00    +0.000 A 
ATOM     17  C   UNL     1      43.552   5.466  11.423  0.00  0.00    +0.000 A 
ATOM     18  C   UNL     1      43.001   4.188  11.346  0.00  0.00    +0.000 A 
ATOM     19  C   UNL     1      43.684   3.115  11.897  0.00  0.00    +0.000 A 
ATOM     20  C   UNL     1      44.888   3.330  12.567  0.00  0.00    +0.000 A 
ATOM     21  C   UNL     1      45.455   4.621  12.688  0.00  0.00    +0.000 A 
BRANCH  16  23
ATOM     22  F   UNL     1      46.588   7.189  11.449  0.00  0.00    +0.000 F 
ATOM     23  C   UNL     1      45.330   7.126  11.991  0.00  0.00    +0.000 C 
ATOM     24  F   UNL     1      45.460   7.733  13.204  0.00  0.00    +0.000 F 
ATOM     25  F   UNL     1      44.584   7.953  11.199  0.00  0.00    +0.000 F 
ENDBRANCH  16  23
ENDBRANCH  15  21
ENDBRANCH   1  15
TORSDOF 4
ENDMDL
