MODEL 1
REMARK VINA RESULT:    -7.903      0.000      0.000
REMARK INTER + INTRA:         -10.650
REMARK INTER:                 -10.213
REMARK INTRA:                  -0.437
REMARK UNBOUND:                -0.437
REMARK  Name = 
REMARK  5 active torsions:
REMARK  status: ('A' for Active; 'I' for Inactive)
REMARK    1  A    between atoms: C_2  and  C_4
REMARK    2  A    between atoms: C_8  and  C_9
REMARK    3  A    between atoms: C_9  and  O_10
REMARK    4  A    between atoms: O_10  and  C_11
REMARK    5  A    between atoms: C_16  and  N_17
REMARK                            x       y       z     vdW  Elec       q    Type
REMARK                         _______ _______ _______ _____ _____    ______ ____
ROOT
ATOM      1  C   UNL     1      44.693   4.553  11.822  0.00  0.00    +0.000 A 
ATOM      2  C   UNL     1      45.447   3.609  12.506  0.00  0.00    +0.000 A 
ATOM      3  C   UNL     1      46.420   4.041  13.392  0.00  0.00    +0.000 A 
ATOM      4  F   UNL     1      47.144   3.138  14.069  0.00  0.00    +0.000 F 
ATOM      5  C   UNL     1      46.670   5.398  13.585  0.00  0.00    +0.000 A 
ATOM      6  C   UNL     1      45.960   6.369  12.868  0.00  0.00    +0.000 A 
ATOM      7  C   UNL     1      44.968   5.912  11.989  0.00  0.00    +0.000 A 
ENDROOT
BRANCH   6   8
ATOM      8  N   UNL     1      46.264   7.711  12.975  0.00  0.00    +0.000 N 
ATOM      9  C   UNL     1      45.271   8.756  12.684  0.00  0.00    +0.000 C 
ATOM     10  C   UNL     1      45.969   9.945  11.988  0.00  0.00    +0.000 C 
ATOM     11  N   UNL     1      47.121  10.484  12.746  0.00  0.00    +0.000 NA
ATOM     12  C   UNL     1      48.070   9.380  13.019  0.00  0.00    +0.000 C 
ATOM     13  C   UNL     1      47.429   8.173  13.741  0.00  0.00    +0.000 C 
ATOM     14  H   UNL     1      46.773  10.830  13.639  0.00  0.00    +0.000 HD
ENDBRANCH   6   8
BRANCH   1  15
ATOM     15  O   UNL     1      43.724   4.059  10.994  0.00  0.00    +0.000 OA
BRANCH  15  16
ATOM     16  C   UNL     1      44.036   2.809  10.373  0.00  0.00    +0.000 C 
BRANCH  16  21
ATOM     17  C   UNL     1      46.544   2.117   7.591  0.00  0.00    +0.000 A 
ATOM     18  C   UNL     1      46.778   3.405   7.098  0.00  0.00    +0.000 A 
ATOM     19  C   UNL     1      46.141   4.502   7.677  0.00  0.00    +0.000 A 
ATOM     20  C   UNL     1      45.259   4.313   8.738  0.00  0.00    +0.000 A 
ATOM     21  C   UNL     1      44.983   3.027   9.220  0.00  0.00    +0.000 A 
ATOM     22  C   UNL     1      45.649   1.931   8.652  0.00  0.00    +0.000 A 
BRANCH  17  24
ATOM     23  N   UNL     1      46.873  -0.298   7.544  0.00  0.00    +0.000 N 
ATOM     24  C   UNL     1      47.193   0.916   7.004  0.00  0.00    +0.000 C 
ATOM     25  O   UNL     1      47.959   0.998   6.052  0.00  0.00    +0.000 OA
ATOM     26  H   UNL     1      47.252  -1.110   7.075  0.00  0.00    +0.000 HD
ATOM     27  H   UNL     1      46.072  -0.432   8.144  0.00  0.00    +0.000 HD
ENDBRANCH  17  24
ENDBRANCH  16  21
ENDBRANCH  15  16
ENDBRANCH   1  15
TORSDOF 5
ENDMDL
MODEL 2
REMARK VINA RESULT:    -7.532      2.734      3.952
REMARK INTER + INTRA:         -10.171
REMARK INTER:                  -9.362
REMARK INTRA:                  -0.809
REMARK UNBOUND:                -0.437
REMARK  Name = 
REMARK  5 active torsions:
REMARK  status: ('A' for Active; 'I' for Inactive)
REMARK    1  A    between atoms: C_2  and  C_4
REMARK    2  A    between atoms: C_8  and  C_9
REMARK    3  A    between atoms: C_9  and  O_10
REMARK    4  A    between atoms: O_10  and  C_11
REMARK    5  A    between atoms: C_16  and  N_17
REMARK                            x       y       z     vdW  Elec       q    Type
REMARK                         _______ _______ _______ _____ _____    ______ ____
ROOT
ATOM      1  C   UNL     1      45.898   5.595  12.048  0.00  0.00    +0.000 A 
ATOM      2  C   UNL     1      46.638   6.589  11.421  0.00  0.00    +0.000 A 
ATOM      3  C   UNL     1      47.783   7.064  12.039  0.00  0.00    +0.000 A 
ATOM      4  F   UNL     1      48.512   8.014  11.436  0.00  0.00    +0.000 F 
ATOM      5  C   UNL     1      48.186   6.581  13.282  0.00  0.00    +0.000 A 
ATOM      6  C   UNL     1      47.430   5.617  13.959  0.00  0.00    +0.000 A 
ATOM      7  C   UNL     1      46.284   5.137  13.309  0.00  0.00    +0.000 A 
ENDROOT
BRANCH   6   8
ATOM      8  N   UNL     1      47.763   5.203  15.233  0.00  0.00    +0.000 N 
ATOM      9  C   UNL     1      48.526   6.061  16.151  0.00  0.00    +0.000 C 
ATOM     10  C   UNL     1      49.501   5.189  16.974  0.00  0.00    +0.000 C 
ATOM     11  N   UNL     1      48.841   4.074  17.690  0.00  0.00    +0.000 NA
ATOM     12  C   UNL     1      48.079   3.264  16.712  0.00  0.00    +0.000 C 
ATOM     13  C   UNL     1      47.067   4.083  15.879  0.00  0.00    +0.000 C 
ATOM     14  H   UNL     1      48.178   4.477  18.351  0.00  0.00    +0.000 HD
ENDBRANCH   6   8
BRANCH   1  15
ATOM     15  O   UNL     1      44.803   5.145  11.367  0.00  0.00    +0.000 OA
BRANCH  15  16
ATOM     16  C   UNL     1      44.857   5.316   9.948  0.00  0.00    +0.000 C 
BRANCH  16  21
ATOM     17  C   UNL     1      46.361   2.807   7.507  0.00  0.00    +0.000 A 
ATOM     18  C   UNL     1      45.863   1.598   8.006  0.00  0.00    +0.000 A 
ATOM     19  C   UNL     1      45.025   1.594   9.120  0.00  0.00    +0.000 A 
ATOM     20  C   UNL     1      44.693   2.793   9.746  0.00  0.00    +0.000 A 
ATOM     21  C   UNL     1      45.213   4.009   9.284  0.00  0.00    +0.000 A 
ATOM     22  C   UNL     1      46.033   4.010   8.146  0.00  0.00    +0.000 A 
BRANCH  17  24
ATOM     23  N   UNL     1      48.577   2.540   6.526  0.00  0.00    +0.000 N 
ATOM     24  C   UNL     1      47.264   2.865   6.329  0.00  0.00    +0.000 C 
ATOM     25  O   UNL     1      46.849   3.156   5.213  0.00  0.00    +0.000 OA
ATOM     26  H   UNL     1      49.156   2.496   5.697  0.00  0.00    +0.000 HD
ATOM     27  H   UNL     1      48.899   2.058   7.352  0.00  0.00    +0.000 HD
ENDBRANCH  17  24
ENDBRANCH  16  21
ENDBRANCH  15  16
ENDBRANCH   1  15
TORSDOF 5
ENDMDL
MODEL 3
REMARK VINA RESULT:    -7.514      2.856      7.167
REMARK INTER + INTRA:         -10.148
REMARK INTER:                  -9.294
REMARK INTRA:                  -0.854
REMARK UNBOUND:                -0.437
REMARK  Name = 
REMARK  5 active torsions:
REMARK  status: ('A' for Active; 'I' for Inactive)
REMARK    1  A    between atoms: C_2  and  C_4
REMARK    2  A    between atoms: C_8  and  C_9
REMARK    3  A    between atoms: C_9  and  O_10
REMARK    4  A    between atoms: O_10  and  C_11
REMARK    5  A    between atoms: C_16  and  N_17
REMARK                            x       y       z     vdW  Elec       q    Type
REMARK                         _______ _______ _______ _____ _____    ______ ____
ROOT
ATOM      1  C   UNL     1      44.936   4.766   9.755  0.00  0.00    +0.000 A 
ATOM      2  C   UNL     1      44.100   3.888  10.432  0.00  0.00    +0.000 A 
ATOM      3  C   UNL     1      44.176   2.534  10.147  0.00  0.00    +0.000 A 
ATOM      4  F   UNL     1      43.383   1.677  10.805  0.00  0.00    +0.000 F 
ATOM      5  C   UNL     1      45.052   2.048   9.180  0.00  0.00    +0.000 A 
ATOM      6  C   UNL     1      45.868   2.918   8.446  0.00  0.00    +0.000 A 
ATOM      7  C   UNL     1      45.789   4.282   8.761  0.00  0.00    +0.000 A 
ENDROOT
BRANCH   6   8
ATOM      8  N   UNL     1      46.668   2.461   7.418  0.00  0.00    +0.000 N 
ATOM      9  C   UNL     1      47.289   3.381   6.453  0.00  0.00    +0.000 C 
ATOM     10  C   UNL     1      47.285   2.731   5.051  0.00  0.00    +0.000 C 
ATOM     11  N   UNL     1      47.917   1.394   5.014  0.00  0.00    +0.000 NA
ATOM     12  C   UNL     1      47.258   0.527   6.018  0.00  0.00    +0.000 C 
ATOM     13  C   UNL     1      47.258   1.117   7.447  0.00  0.00    +0.000 C 
ATOM     14  H   UNL     1      48.894   1.503   5.284  0.00  0.00    +0.000 HD
ENDBRANCH   6   8
BRANCH   1  15
ATOM     15  O   UNL     1      44.838   6.081  10.112  0.00  0.00    +0.000 OA
BRANCH  15  16
ATOM     16  C   UNL     1      44.509   6.315  11.484  0.00  0.00    +0.000 C 
BRANCH  16  21
ATOM     17  C   UNL     1      47.124   5.369  14.088  0.00  0.00    +0.000 A 
ATOM     18  C   UNL     1      48.076   6.379  13.908  0.00  0.00    +0.000 A 
ATOM     19  C   UNL     1      47.865   7.378  12.959  0.00  0.00    +0.000 A 
ATOM     20  C   UNL     1      46.712   7.364  12.178  0.00  0.00    +0.000 A 
ATOM     21  C   UNL     1      45.766   6.340  12.318  0.00  0.00    +0.000 A 
ATOM     22  C   UNL     1      45.970   5.353  13.294  0.00  0.00    +0.000 A 
BRANCH  17  24
ATOM     23  N   UNL     1      47.207   4.611  16.403  0.00  0.00    +0.000 N 
ATOM     24  C   UNL     1      47.305   4.279  15.081  0.00  0.00    +0.000 C 
ATOM     25  O   UNL     1      47.500   3.120  14.737  0.00  0.00    +0.000 OA
ATOM     26  H   UNL     1      47.242   3.842  17.061  0.00  0.00    +0.000 HD
ATOM     27  H   UNL     1      46.803   5.481  16.717  0.00  0.00    +0.000 HD
ENDBRANCH  17  24
ENDBRANCH  16  21
ENDBRANCH  15  16
ENDBRANCH   1  15
TORSDOF 5
ENDMDL
MODEL 4
REMARK VINA RESULT:    -7.265      1.977      2.549
REMARK INTER + INTRA:          -9.826
REMARK INTER:                  -9.443
REMARK INTRA:                  -0.383
REMARK UNBOUND:                -0.437
REMARK  Name = 
REMARK  5 active torsions:
REMARK  status: ('A' for Active; 'I' for Inactive)
REMARK    1  A    between atoms: C_2  and  C_4
REMARK    2  A    between atoms: C_8  and  C_9
REMARK    3  A    between atoms: C_9  and  O_10
REMARK    4  A    between atoms: O_10  and  C_11
REMARK    5  A    between atoms: C_16  and  N_17
REMARK                            x       y       z     vdW  Elec       q    Type
REMARK                         _______ _______ _______ _____ _____    ______ ____
ROOT
ATOM      1  C   UNL     1      44.799   4.763  11.760  0.00  0.00    +0.000 A 
ATOM      2  C   UNL     1      43.718   5.545  11.375  0.00  0.00    +0.000 A 
ATOM      3  C   UNL     1      43.817   6.923  11.475  0.00  0.00    +0.000 A 
ATOM      4  F   UNL     1      42.785   7.688  11.093  0.00  0.00    +0.000 F 
ATOM      5  C   UNL     1      44.966   7.530  11.977  0.00  0.00    +0.000 A 
ATOM      6  C   UNL     1      46.050   6.762  12.420  0.00  0.00    +0.000 A 
ATOM      7  C   UNL     1      45.937   5.370  12.295  0.00  0.00    +0.000 A 
ENDROOT
BRANCH   6   8
ATOM      8  N   UNL     1      47.153   7.344  13.011  0.00  0.00    +0.000 N 
ATOM      9  C   UNL     1      48.473   6.696  12.993  0.00  0.00    +0.000 C 
ATOM     10  C   UNL     1      49.188   6.957  14.338  0.00  0.00    +0.000 C 
ATOM     11  N   UNL     1      49.289   8.391  14.689  0.00  0.00    +0.000 NA
ATOM     12  C   UNL     1      47.932   8.983  14.671  0.00  0.00    +0.000 C 
ATOM     13  C   UNL     1      47.180   8.776  13.336  0.00  0.00    +0.000 C 
ATOM     14  H   UNL     1      49.844   8.850  13.968  0.00  0.00    +0.000 HD
ENDBRANCH   6   8
BRANCH   1  15
ATOM     15  O   UNL     1      44.649   3.414  11.598  0.00  0.00    +0.000 OA
BRANCH  15  16
ATOM     16  C   UNL     1      44.012   3.015  10.381  0.00  0.00    +0.000 C 
BRANCH  16  21
ATOM     17  C   UNL     1      46.481   1.925   7.692  0.00  0.00    +0.000 A 
ATOM     18  C   UNL     1      46.860   3.155   7.144  0.00  0.00    +0.000 A 
ATOM     19  C   UNL     1      46.333   4.340   7.656  0.00  0.00    +0.000 A 
ATOM     20  C   UNL     1      45.418   4.299   8.704  0.00  0.00    +0.000 A 
ATOM     21  C   UNL     1      44.998   3.075   9.240  0.00  0.00    +0.000 A 
ATOM     22  C   UNL     1      45.552   1.888   8.740  0.00  0.00    +0.000 A 
BRANCH  17  24
ATOM     23  N   UNL     1      47.567   0.636   5.931  0.00  0.00    +0.000 N 
ATOM     24  C   UNL     1      47.008   0.635   7.178  0.00  0.00    +0.000 C 
ATOM     25  O   UNL     1      46.980  -0.388   7.853  0.00  0.00    +0.000 OA
ATOM     26  H   UNL     1      48.001  -0.229   5.634  0.00  0.00    +0.000 HD
ATOM     27  H   UNL     1      47.837   1.485   5.457  0.00  0.00    +0.000 HD
ENDBRANCH  17  24
ENDBRANCH  16  21
ENDBRANCH  15  16
ENDBRANCH   1  15
TORSDOF 5
ENDMDL
MODEL 5
REMARK VINA RESULT:    -7.234      4.139      8.043
REMARK INTER + INTRA:          -9.786
REMARK INTER:                  -8.973
REMARK INTRA:                  -0.814
REMARK UNBOUND:                -0.437
REMARK  Name = 
REMARK  5 active torsions:
REMARK  status: ('A' for Active; 'I' for Inactive)
REMARK    1  A    between atoms: C_2  and  C_4
REMARK    2  A    between atoms: C_8  and  C_9
REMARK    3  A    between atoms: C_9  and  O_10
REMARK    4  A    between atoms: O_10  and  C_11
REMARK    5  A    between atoms: C_16  and  N_17
REMARK                            x       y       z     vdW  Elec       q    Type
REMARK                         _______ _______ _______ _____ _____    ______ ____
ROOT
ATOM      1  C   UNL     1      48.007   6.801  13.699  0.00  0.00    +0.000 A 
ATOM      2  C   UNL     1      47.772   8.133  13.385  0.00  0.00    +0.000 A 
ATOM      3  C   UNL     1      46.543   8.491  12.855  0.00  0.00    +0.000 A 
ATOM      4  F   UNL     1      46.301   9.776  12.562  0.00  0.00    +0.000 F 
ATOM      5  C   UNL     1      45.558   7.537  12.609  0.00  0.00    +0.000 A 
ATOM      6  C   UNL     1      45.789   6.181  12.867  0.00  0.00    +0.000 A 
ATOM      7  C   UNL     1      47.032   5.842  13.420  0.00  0.00    +0.000 A 
ENDROOT
BRANCH   6   8
ATOM      8  N   UNL     1      44.860   5.215  12.536  0.00  0.00    +0.000 N 
ATOM      9  C   UNL     1      45.256   3.832  12.232  0.00  0.00    +0.000 C 
ATOM     10  C   UNL     1      44.365   3.283  11.096  0.00  0.00    +0.000 C 
ATOM     11  N   UNL     1      42.915   3.386  11.376  0.00  0.00    +0.000 NA
ATOM     12  C   UNL     1      42.589   4.797  11.691  0.00  0.00    +0.000 C 
ATOM     13  C   UNL     1      43.434   5.389  12.841  0.00  0.00    +0.000 C 
ATOM     14  H   UNL     1      42.716   2.824  12.203  0.00  0.00    +0.000 HD
ENDBRANCH   6   8
BRANCH   1  15
ATOM     15  O   UNL     1      49.224   6.523  14.256  0.00  0.00    +0.000 OA
BRANCH  15  16
ATOM     16  C   UNL     1      49.590   7.353  15.362  0.00  0.00    +0.000 C 
BRANCH  16  21
ATOM     17  C   UNL     1      47.884   5.082  17.901  0.00  0.00    +0.000 A 
ATOM     18  C   UNL     1      47.544   5.992  18.907  0.00  0.00    +0.000 A 
ATOM     19  C   UNL     1      47.847   7.345  18.758  0.00  0.00    +0.000 A 
ATOM     20  C   UNL     1      48.503   7.789  17.612  0.00  0.00    +0.000 A 
ATOM     21  C   UNL     1      48.885   6.886  16.612  0.00  0.00    +0.000 A 
ATOM     22  C   UNL     1      48.552   5.531  16.754  0.00  0.00    +0.000 A 
BRANCH  17  24
ATOM     23  N   UNL     1      48.334   2.905  18.902  0.00  0.00    +0.000 N 
ATOM     24  C   UNL     1      47.589   3.630  18.014  0.00  0.00    +0.000 C 
ATOM     25  O   UNL     1      46.691   3.103  17.369  0.00  0.00    +0.000 OA
ATOM     26  H   UNL     1      48.059   1.940  19.032  0.00  0.00    +0.000 HD
ATOM     27  H   UNL     1      48.893   3.337  19.622  0.00  0.00    +0.000 HD
ENDBRANCH  17  24
ENDBRANCH  16  21
ENDBRANCH  15  16
ENDBRANCH   1  15
TORSDOF 5
ENDMDL
MODEL 6
REMARK VINA RESULT:    -7.188      4.575      7.862
REMARK INTER + INTRA:          -9.727
REMARK INTER:                  -8.938
REMARK INTRA:                  -0.788
REMARK UNBOUND:                -0.437
REMARK  Name = 
REMARK  5 active torsions:
REMARK  status: ('A' for Active; 'I' for Inactive)
REMARK    1  A    between atoms: C_2  and  C_4
REMARK    2  A    between atoms: C_8  and  C_9
REMARK    3  A    between atoms: C_9  and  O_10
REMARK    4  A    between atoms: O_10  and  C_11
REMARK    5  A    between atoms: C_16  and  N_17
REMARK                            x       y       z     vdW  Elec       q    Type
REMARK                         _______ _______ _______ _____ _____    ______ ____
ROOT
ATOM      1  C   UNL     1      48.074   6.692  13.931  0.00  0.00    +0.000 A 
ATOM      2  C   UNL     1      48.140   7.893  13.238  0.00  0.00    +0.000 A 
ATOM      3  C   UNL     1      47.122   8.217  12.357  0.00  0.00    +0.000 A 
ATOM      4  F   UNL     1      47.169   9.381  11.693  0.00  0.00    +0.000 F 
ATOM      5  C   UNL     1      46.054   7.350  12.138  0.00  0.00    +0.000 A 
ATOM      6  C   UNL     1      45.990   6.110  12.785  0.00  0.00    +0.000 A 
ATOM      7  C   UNL     1      47.021   5.808  13.685  0.00  0.00    +0.000 A 
ENDROOT
BRANCH   6   8
ATOM      8  N   UNL     1      44.991   5.200  12.503  0.00  0.00    +0.000 N 
ATOM      9  C   UNL     1      45.288   3.791  12.205  0.00  0.00    +0.000 C 
ATOM     10  C   UNL     1      44.321   3.285  11.111  0.00  0.00    +0.000 C 
ATOM     11  N   UNL     1      42.893   3.482  11.443  0.00  0.00    +0.000 NA
ATOM     12  C   UNL     1      42.668   4.914  11.749  0.00  0.00    +0.000 C 
ATOM     13  C   UNL     1      43.591   5.467  12.858  0.00  0.00    +0.000 C 
ATOM     14  H   UNL     1      42.691   2.944  12.285  0.00  0.00    +0.000 HD
ENDBRANCH   6   8
BRANCH   1  15
ATOM     15  O   UNL     1      49.090   6.453  14.813  0.00  0.00    +0.000 OA
BRANCH  15  16
ATOM     16  C   UNL     1      48.861   6.922  16.145  0.00  0.00    +0.000 C 
BRANCH  16  21
ATOM     17  C   UNL     1      49.464   3.447  17.587  0.00  0.00    +0.000 A 
ATOM     18  C   UNL     1      48.929   3.581  18.873  0.00  0.00    +0.000 A 
ATOM     19  C   UNL     1      48.355   4.788  19.269  0.00  0.00    +0.000 A 
ATOM     20  C   UNL     1      48.326   5.867  18.389  0.00  0.00    +0.000 A 
ATOM     21  C   UNL     1      48.891   5.764  17.111  0.00  0.00    +0.000 A 
ATOM     22  C   UNL     1      49.442   4.538  16.709  0.00  0.00    +0.000 A 
BRANCH  17  24
ATOM     23  N   UNL     1      51.043   1.621  17.923  0.00  0.00    +0.000 N 
ATOM     24  C   UNL     1      50.092   2.185  17.119  0.00  0.00    +0.000 C 
ATOM     25  O   UNL     1      49.753   1.645  16.073  0.00  0.00    +0.000 OA
ATOM     26  H   UNL     1      51.394   0.717  17.634  0.00  0.00    +0.000 HD
ATOM     27  H   UNL     1      51.166   1.887  18.889  0.00  0.00    +0.000 HD
ENDBRANCH  17  24
ENDBRANCH  16  21
ENDBRANCH  15  16
ENDBRANCH   1  15
TORSDOF 5
ENDMDL
MODEL 7
REMARK VINA RESULT:    -6.973      5.137      8.085
REMARK INTER + INTRA:          -9.449
REMARK INTER:                  -8.699
REMARK INTRA:                  -0.750
REMARK UNBOUND:                -0.437
REMARK  Name = 
REMARK  5 active torsions:
REMARK  status: ('A' for Active; 'I' for Inactive)
REMARK    1  A    between atoms: C_2  and  C_4
REMARK    2  A    between atoms: C_8  and  C_9
REMARK    3  A    between atoms: C_9  and  O_10
REMARK    4  A    between atoms: O_10  and  C_11
REMARK    5  A    between atoms: C_16  and  N_17
REMARK                            x       y       z     vdW  Elec       q    Type
REMARK                         _______ _______ _______ _____ _____    ______ ____
ROOT
ATOM      1  C   UNL     1      48.090   6.141  14.383  0.00  0.00    +0.000 A 
ATOM      2  C   UNL     1      48.650   6.962  13.413  0.00  0.00    +0.000 A 
ATOM      3  C   UNL     1      47.999   7.107  12.199  0.00  0.00    +0.000 A 
ATOM      4  F   UNL     1      48.523   7.908  11.261  0.00  0.00    +0.000 F 
ATOM      5  C   UNL     1      46.814   6.424  11.929  0.00  0.00    +0.000 A 
ATOM      6  C   UNL     1      46.258   5.550  12.870  0.00  0.00    +0.000 A 
ATOM      7  C   UNL     1      46.922   5.431  14.099  0.00  0.00    +0.000 A 
ENDROOT
BRANCH   6   8
ATOM      8  N   UNL     1      45.140   4.794  12.579  0.00  0.00    +0.000 N 
ATOM      9  C   UNL     1      45.233   3.355  12.291  0.00  0.00    +0.000 C 
ATOM     10  C   UNL     1      44.216   2.988  11.186  0.00  0.00    +0.000 C 
ATOM     11  N   UNL     1      42.828   3.393  11.499  0.00  0.00    +0.000 NA
ATOM     12  C   UNL     1      42.810   4.844  11.796  0.00  0.00    +0.000 C 
ATOM     13  C   UNL     1      43.790   5.263  12.915  0.00  0.00    +0.000 C 
ATOM     14  H   UNL     1      42.540   2.895  12.340  0.00  0.00    +0.000 HD
ENDBRANCH   6   8
BRANCH   1  15
ATOM     15  O   UNL     1      48.762   6.075  15.571  0.00  0.00    +0.000 OA
BRANCH  15  16
ATOM     16  C   UNL     1      48.165   5.232  16.561  0.00  0.00    +0.000 C 
BRANCH  16  21
ATOM     17  C   UNL     1      51.198   3.182  17.614  0.00  0.00    +0.000 A 
ATOM     18  C   UNL     1      50.764   1.880  17.343  0.00  0.00    +0.000 A 
ATOM     19  C   UNL     1      49.497   1.663  16.801  0.00  0.00    +0.000 A 
ATOM     20  C   UNL     1      48.658   2.744  16.542  0.00  0.00    +0.000 A 
ATOM     21  C   UNL     1      49.061   4.051  16.842  0.00  0.00    +0.000 A 
ATOM     22  C   UNL     1      50.346   4.265  17.361  0.00  0.00    +0.000 A 
BRANCH  17  24
ATOM     23  N   UNL     1      52.991   2.612  19.163  0.00  0.00    +0.000 N 
ATOM     24  C   UNL     1      52.535   3.464  18.197  0.00  0.00    +0.000 C 
ATOM     25  O   UNL     1      53.222   4.401  17.809  0.00  0.00    +0.000 OA
ATOM     26  H   UNL     1      53.939   2.766  19.483  0.00  0.00    +0.000 HD
ATOM     27  H   UNL     1      52.581   1.705  19.326  0.00  0.00    +0.000 HD
ENDBRANCH  17  24
ENDBRANCH  16  21
ENDBRANCH  15  16
ENDBRANCH   1  15
TORSDOF 5
ENDMDL
MODEL 8
REMARK VINA RESULT:    -6.662      4.818      8.580
REMARK INTER + INTRA:          -9.046
REMARK INTER:                  -8.419
REMARK INTRA:                  -0.627
REMARK UNBOUND:                -0.437
REMARK  Name = 
REMARK  5 active torsions:
REMARK  status: ('A' for Active; 'I' for Inactive)
REMARK    1  A    between atoms: C_2  and  C_4
REMARK    2  A    between atoms: C_8  and  C_9
REMARK    3  A    between atoms: C_9  and  O_10
REMARK    4  A    between atoms: O_10  and  C_11
REMARK    5  A    between atoms: C_16  and  N_17
REMARK                            x       y       z     vdW  Elec       q    Type
REMARK                         _______ _______ _______ _____ _____    ______ ____
ROOT
ATOM      1  C   UNL     1      47.669   6.396  13.774  0.00  0.00    +0.000 A 
ATOM      2  C   UNL     1      47.492   7.736  13.461  0.00  0.00    +0.000 A 
ATOM      3  C   UNL     1      46.398   8.108  12.696  0.00  0.00    +0.000 A 
ATOM      4  F   UNL     1      46.210   9.401  12.399  0.00  0.00    +0.000 F 
ATOM      5  C   UNL     1      45.496   7.160  12.218  0.00  0.00    +0.000 A 
ATOM      6  C   UNL     1      45.681   5.797  12.475  0.00  0.00    +0.000 A 
ATOM      7  C   UNL     1      46.784   5.443  13.266  0.00  0.00    +0.000 A 
ENDROOT
BRANCH   6   8
ATOM      8  N   UNL     1      44.852   4.839  11.926  0.00  0.00    +0.000 N 
ATOM      9  C   UNL     1      43.682   4.322  12.650  0.00  0.00    +0.000 C 
ATOM     10  C   UNL     1      43.526   2.812  12.358  0.00  0.00    +0.000 C 
ATOM     11  N   UNL     1      43.461   2.491  10.915  0.00  0.00    +0.000 NA
ATOM     12  C   UNL     1      44.656   3.055  10.246  0.00  0.00    +0.000 C 
ATOM     13  C   UNL     1      44.845   4.570  10.483  0.00  0.00    +0.000 C 
ATOM     14  H   UNL     1      42.637   2.951  10.530  0.00  0.00    +0.000 HD
ENDBRANCH   6   8
BRANCH   1  15
ATOM     15  O   UNL     1      48.745   6.103  14.564  0.00  0.00    +0.000 OA
BRANCH  15  16
ATOM     16  C   UNL     1      48.645   6.554  15.918  0.00  0.00    +0.000 C 
BRANCH  16  21
ATOM     17  C   UNL     1      48.745   4.402  19.060  0.00  0.00    +0.000 A 
ATOM     18  C   UNL     1      48.240   3.187  18.583  0.00  0.00    +0.000 A 
ATOM     19  C   UNL     1      47.886   3.056  17.241  0.00  0.00    +0.000 A 
ATOM     20  C   UNL     1      48.020   4.139  16.377  0.00  0.00    +0.000 A 
ATOM     21  C   UNL     1      48.488   5.374  16.844  0.00  0.00    +0.000 A 
ATOM     22  C   UNL     1      48.869   5.492  18.189  0.00  0.00    +0.000 A 
BRANCH  17  24
ATOM     23  N   UNL     1      50.463   4.544  20.783  0.00  0.00    +0.000 N 
ATOM     24  C   UNL     1      49.131   4.594  20.481  0.00  0.00    +0.000 C 
ATOM     25  O   UNL     1      48.298   4.825  21.350  0.00  0.00    +0.000 OA
ATOM     26  H   UNL     1      50.714   4.767  21.738  0.00  0.00    +0.000 HD
ATOM     27  H   UNL     1      51.183   4.612  20.079  0.00  0.00    +0.000 HD
ENDBRANCH  17  24
ENDBRANCH  16  21
ENDBRANCH  15  16
ENDBRANCH   1  15
TORSDOF 5
ENDMDL
MODEL 9
REMARK VINA RESULT:    -6.656      4.853      6.367
REMARK INTER + INTRA:          -9.039
REMARK INTER:                  -8.407
REMARK INTRA:                  -0.632
REMARK UNBOUND:                -0.437
REMARK  Name = 
REMARK  5 active torsions:
REMARK  status: ('A' for Active; 'I' for Inactive)
REMARK    1  A    between atoms: C_2  and  C_4
REMARK    2  A    between atoms: C_8  and  C_9
REMARK    3  A    between atoms: C_9  and  O_10
REMARK    4  A    between atoms: O_10  and  C_11
REMARK    5  A    between atoms: C_16  and  N_17
REMARK                            x       y       z     vdW  Elec       q    Type
REMARK                         _______ _______ _______ _____ _____    ______ ____
ROOT
ATOM      1  C   UNL     1      47.528   3.949  16.569  0.00  0.00    +0.000 A 
ATOM      2  C   UNL     1      48.441   2.903  16.588  0.00  0.00    +0.000 A 
ATOM      3  C   UNL     1      49.389   2.858  17.596  0.00  0.00    +0.000 A 
ATOM      4  F   UNL     1      50.266   1.845  17.632  0.00  0.00    +0.000 F 
ATOM      5  C   UNL     1      49.458   3.855  18.568  0.00  0.00    +0.000 A 
ATOM      6  C   UNL     1      48.584   4.948  18.540  0.00  0.00    +0.000 A 
ATOM      7  C   UNL     1      47.620   4.965  17.523  0.00  0.00    +0.000 A 
ENDROOT
BRANCH   6   8
ATOM      8  N   UNL     1      48.704   5.990  19.437  0.00  0.00    +0.000 N 
ATOM      9  C   UNL     1      50.016   6.453  19.914  0.00  0.00    +0.000 C 
ATOM     10  C   UNL     1      49.907   6.848  21.404  0.00  0.00    +0.000 C 
ATOM     11  N   UNL     1      48.845   7.842  21.679  0.00  0.00    +0.000 NA
ATOM     12  C   UNL     1      47.559   7.321  21.158  0.00  0.00    +0.000 C 
ATOM     13  C   UNL     1      47.604   6.936  19.662  0.00  0.00    +0.000 C 
ATOM     14  H   UNL     1      49.072   8.692  21.166  0.00  0.00    +0.000 HD
ENDBRANCH   6   8
BRANCH   1  15
ATOM     15  O   UNL     1      46.595   3.911  15.572  0.00  0.00    +0.000 OA
BRANCH  15  16
ATOM     16  C   UNL     1      47.098   3.548  14.283  0.00  0.00    +0.000 C 
BRANCH  16  21
ATOM     17  C   UNL     1      44.962   4.706  11.348  0.00  0.00    +0.000 A 
ATOM     18  C   UNL     1      45.361   6.041  11.221  0.00  0.00    +0.000 A 
ATOM     19  C   UNL     1      46.335   6.564  12.071  0.00  0.00    +0.000 A 
ATOM     20  C   UNL     1      46.902   5.760  13.057  0.00  0.00    +0.000 A 
ATOM     21  C   UNL     1      46.488   4.432  13.223  0.00  0.00    +0.000 A 
ATOM     22  C   UNL     1      45.528   3.904  12.348  0.00  0.00    +0.000 A 
BRANCH  17  24
ATOM     23  N   UNL     1      43.890   4.511   9.168  0.00  0.00    +0.000 N 
ATOM     24  C   UNL     1      43.925   4.104  10.472  0.00  0.00    +0.000 C 
ATOM     25  O   UNL     1      43.149   3.250  10.884  0.00  0.00    +0.000 OA
ATOM     26  H   UNL     1      43.239   4.025   8.565  0.00  0.00    +0.000 HD
ATOM     27  H   UNL     1      44.654   5.007   8.732  0.00  0.00    +0.000 HD
ENDBRANCH  17  24
ENDBRANCH  16  21
ENDBRANCH  15  16
ENDBRANCH   1  15
TORSDOF 5
ENDMDL
