MODEL 1
REMARK VINA RESULT:    -8.567      0.000      0.000
REMARK INTER + INTRA:         -12.028
REMARK INTER:                 -11.072
REMARK INTRA:                  -0.956
REMARK UNBOUND:                -0.956
REMARK  Name = 
REMARK  5 active torsions:
REMARK  status: ('A' for Active; 'I' for Inactive)
REMARK    1  A    between atoms: C_2  and  C_20
REMARK    2  A    between atoms: N_3  and  C_4
REMARK    3  A    between atoms: C_4  and  C_5
REMARK    4  A    between atoms: C_8  and  C_9
REMARK    5  A    between atoms: C_9  and  N_10
REMARK                            x       y       z     vdW  Elec       q    Type
REMARK                         _______ _______ _______ _____ _____    ______ ____
ROOT
ATOM      1  C   UNL     1      47.277   8.202  13.541  0.00  0.00    +0.000 C 
ENDROOT
BRANCH   1   2
ATOM      2  C   UNL     1      46.305   7.311  12.812  0.00  0.00    +0.000 A 
ATOM      3  C   UNL     1      46.488   5.924  12.810  0.00  0.00    +0.000 A 
ATOM      4  C   UNL     1      45.600   5.093  12.124  0.00  0.00    +0.000 A 
ATOM      5  C   UNL     1      44.524   5.634  11.405  0.00  0.00    +0.000 A 
ATOM      6  C   UNL     1      44.341   7.023  11.407  0.00  0.00    +0.000 A 
ATOM      7  C   UNL     1      45.229   7.854  12.095  0.00  0.00    +0.000 A 
BRANCH   5   8
ATOM      8  C   UNL     1      43.590   4.731  10.635  0.00  0.00    +0.000 C 
BRANCH   8   9
ATOM      9  N   UNL     1      43.919   4.750   9.225  0.00  0.00    +0.000 N 
ATOM     10  C   UNL     1      44.819   3.837   8.712  0.00  0.00    +0.000 A 
ATOM     11  C   UNL     1      44.932   2.529   9.179  0.00  0.00    +0.000 A 
ATOM     12  C   UNL     1      45.814   1.642   8.561  0.00  0.00    +0.000 A 
ATOM     13  C   UNL     1      46.551   2.074   7.471  0.00  0.00    +0.000 A 
ATOM     14 CL   UNL     1      47.622   1.011   6.658  0.00  0.00    +0.000 Cl
ATOM     15  C   UNL     1      46.385   3.384   7.059  0.00  0.00    +0.000 A 
ATOM     16  N   UNL     1      45.547   4.269   7.660  0.00  0.00    +0.000 NA
ATOM     17  H   UNL     1      44.122   5.665   8.831  0.00  0.00    +0.000 HD
ENDBRANCH   8   9
ENDBRANCH   5   8
ENDBRANCH   1   2
BRANCH   1  20
ATOM     18  O   UNL     1      49.731   6.901  14.022  0.00  0.00    +0.000 OA
ATOM     19  C   UNL     1      48.937   7.042  14.948  0.00  0.00    +0.000 C 
ATOM     20  N   UNL     1      47.701   7.604  14.782  0.00  0.00    +0.000 N 
ATOM     21  H   UNL     1      47.162   7.863  15.601  0.00  0.00    +0.000 HD
BRANCH  19  22
ATOM     22  C   UNL     1      49.250   6.555  16.301  0.00  0.00    +0.000 A 
ATOM     23  C   UNL     1      49.998   7.348  17.163  0.00  0.00    +0.000 A 
ATOM     24  S   UNL     1      50.284   6.627  18.679  0.00  0.00    +0.000 S 
ATOM     25  C   UNL     1      49.381   5.249  18.260  0.00  0.00    +0.000 A 
ATOM     26  N   UNL     1      49.201   4.231  19.142  0.00  0.00    +0.000 NA
ATOM     27  C   UNL     1      48.458   3.272  18.710  0.00  0.00    +0.000 A 
ATOM     28  N   UNL     1      47.883   3.229  17.466  0.00  0.00    +0.000 N 
ATOM     29  C   UNL     1      48.100   4.195  16.513  0.00  0.00    +0.000 A 
ATOM     30  O   UNL     1      47.682   4.058  15.367  0.00  0.00    +0.000 OA
ATOM     31  C   UNL     1      48.889   5.326  16.965  0.00  0.00    +0.000 A 
ATOM     32  H   UNL     1      47.336   2.433  17.176  0.00  0.00    +0.000 HD
ENDBRANCH  19  22
ENDBRANCH   1  20
TORSDOF 5
ENDMDL
MODEL 2
REMARK VINA RESULT:    -8.529      1.330      1.522
REMARK INTER + INTRA:         -11.978
REMARK INTER:                 -11.089
REMARK INTRA:                  -0.890
REMARK UNBOUND:                -0.956
REMARK  Name = 
REMARK  5 active torsions:
REMARK  status: ('A' for Active; 'I' for Inactive)
REMARK    1  A    between atoms: C_2  and  C_20
REMARK    2  A    between atoms: N_3  and  C_4
REMARK    3  A    between atoms: C_4  and  C_5
REMARK    4  A    between atoms: C_8  and  C_9
REMARK    5  A    between atoms: C_9  and  N_10
REMARK                            x       y       z     vdW  Elec       q    Type
REMARK                         _______ _______ _______ _____ _____    ______ ____
ROOT
ATOM      1  C   UNL     1      48.323   6.690  13.668  0.00  0.00    +0.000 C 
ENDROOT
BRANCH   1   2
ATOM      2  C   UNL     1      47.122   6.148  12.937  0.00  0.00    +0.000 A 
ATOM      3  C   UNL     1      46.566   4.920  13.313  0.00  0.00    +0.000 A 
ATOM      4  C   UNL     1      45.462   4.403  12.631  0.00  0.00    +0.000 A 
ATOM      5  C   UNL     1      44.907   5.091  11.542  0.00  0.00    +0.000 A 
ATOM      6  C   UNL     1      45.464   6.321  11.166  0.00  0.00    +0.000 A 
ATOM      7  C   UNL     1      46.568   6.838  11.850  0.00  0.00    +0.000 A 
BRANCH   5   8
ATOM      8  C   UNL     1      43.737   4.508  10.787  0.00  0.00    +0.000 C 
BRANCH   8   9
ATOM      9  N   UNL     1      43.968   4.589   9.360  0.00  0.00    +0.000 N 
ATOM     10  C   UNL     1      44.867   3.733   8.754  0.00  0.00    +0.000 A 
ATOM     11  C   UNL     1      45.064   2.416   9.164  0.00  0.00    +0.000 A 
ATOM     12  C   UNL     1      45.937   1.589   8.456  0.00  0.00    +0.000 A 
ATOM     13  C   UNL     1      46.579   2.089   7.336  0.00  0.00    +0.000 A 
ATOM     14 CL   UNL     1      47.634   1.101   6.414  0.00  0.00    +0.000 Cl
ATOM     15  C   UNL     1      46.333   3.404   6.985  0.00  0.00    +0.000 A 
ATOM     16  N   UNL     1      45.503   4.231   7.673  0.00  0.00    +0.000 NA
ATOM     17  H   UNL     1      44.106   5.525   8.988  0.00  0.00    +0.000 HD
ENDBRANCH   8   9
ENDBRANCH   5   8
ENDBRANCH   1   2
BRANCH   1  20
ATOM     18  O   UNL     1      50.306   6.541  15.664  0.00  0.00    +0.000 OA
ATOM     19  C   UNL     1      49.132   6.680  15.997  0.00  0.00    +0.000 C 
ATOM     20  N   UNL     1      48.106   6.697  15.092  0.00  0.00    +0.000 N 
ATOM     21  H   UNL     1      47.185   6.995  15.395  0.00  0.00    +0.000 HD
BRANCH  19  22
ATOM     22  C   UNL     1      48.747   6.782  17.413  0.00  0.00    +0.000 A 
ATOM     23  C   UNL     1      48.334   8.004  17.929  0.00  0.00    +0.000 A 
ATOM     24  S   UNL     1      47.944   7.949  19.587  0.00  0.00    +0.000 S 
ATOM     25  C   UNL     1      48.267   6.282  19.667  0.00  0.00    +0.000 A 
ATOM     26  N   UNL     1      48.100   5.589  20.824  0.00  0.00    +0.000 NA
ATOM     27  C   UNL     1      48.336   4.325  20.731  0.00  0.00    +0.000 A 
ATOM     28  N   UNL     1      48.736   3.688  19.586  0.00  0.00    +0.000 N 
ATOM     29  C   UNL     1      48.995   4.358  18.414  0.00  0.00    +0.000 A 
ATOM     30  O   UNL     1      49.481   3.777  17.447  0.00  0.00    +0.000 OA
ATOM     31  C   UNL     1      48.695   5.777  18.448  0.00  0.00    +0.000 A 
ATOM     32  H   UNL     1      48.936   2.699  19.586  0.00  0.00    +0.000 HD
ENDBRANCH  19  22
ENDBRANCH   1  20
TORSDOF 5
ENDMDL
MODEL 3
REMARK VINA RESULT:    -8.419      1.916      2.380
REMARK INTER + INTRA:         -11.836
REMARK INTER:                 -10.860
REMARK INTRA:                  -0.976
REMARK UNBOUND:                -0.956
REMARK  Name = 
REMARK  5 active torsions:
REMARK  status: ('A' for Active; 'I' for Inactive)
REMARK    1  A    between atoms: C_2  and  C_20
REMARK    2  A    between atoms: N_3  and  C_4
REMARK    3  A    between atoms: C_4  and  C_5
REMARK    4  A    between atoms: C_8  and  C_9
REMARK    5  A    between atoms: C_9  and  N_10
REMARK                            x       y       z     vdW  Elec       q    Type
REMARK                         _______ _______ _______ _____ _____    ______ ____
ROOT
ATOM      1  C   UNL     1      48.050   6.789  13.838  0.00  0.00    +0.000 C 
ENDROOT
BRANCH   1   2
ATOM      2  C   UNL     1      46.897   6.219  13.054  0.00  0.00    +0.000 A 
ATOM      3  C   UNL     1      46.435   4.926  13.322  0.00  0.00    +0.000 A 
ATOM      4  C   UNL     1      45.377   4.385  12.589  0.00  0.00    +0.000 A 
ATOM      5  C   UNL     1      44.773   5.118  11.556  0.00  0.00    +0.000 A 
ATOM      6  C   UNL     1      45.235   6.413  11.288  0.00  0.00    +0.000 A 
ATOM      7  C   UNL     1      46.294   6.954  12.023  0.00  0.00    +0.000 A 
BRANCH   5   8
ATOM      8  C   UNL     1      43.654   4.512  10.744  0.00  0.00    +0.000 C 
BRANCH   8   9
ATOM      9  N   UNL     1      43.944   4.616   9.329  0.00  0.00    +0.000 N 
ATOM     10  C   UNL     1      44.865   3.767   8.747  0.00  0.00    +0.000 A 
ATOM     11  C   UNL     1      45.041   2.442   9.143  0.00  0.00    +0.000 A 
ATOM     12  C   UNL     1      45.940   1.623   8.458  0.00  0.00    +0.000 A 
ATOM     13  C   UNL     1      46.630   2.140   7.375  0.00  0.00    +0.000 A 
ATOM     14 CL   UNL     1      47.720   1.163   6.481  0.00  0.00    +0.000 Cl
ATOM     15  C   UNL     1      46.403   3.462   7.035  0.00  0.00    +0.000 A 
ATOM     16  N   UNL     1      45.547   4.280   7.702  0.00  0.00    +0.000 NA
ATOM     17  H   UNL     1      44.101   5.557   8.979  0.00  0.00    +0.000 HD
ENDBRANCH   8   9
ENDBRANCH   5   8
ENDBRANCH   1   2
BRANCH   1  20
ATOM     18  O   UNL     1      50.226   6.486  15.603  0.00  0.00    +0.000 OA
ATOM     19  C   UNL     1      49.085   6.331  16.029  0.00  0.00    +0.000 C 
ATOM     20  N   UNL     1      47.982   6.397  15.223  0.00  0.00    +0.000 N 
ATOM     21  H   UNL     1      47.062   6.445  15.648  0.00  0.00    +0.000 HD
BRANCH  19  22
ATOM     22  C   UNL     1      48.836   6.003  17.441  0.00  0.00    +0.000 A 
ATOM     23  C   UNL     1      49.131   4.731  17.915  0.00  0.00    +0.000 A 
ATOM     24  S   UNL     1      48.764   4.515  19.566  0.00  0.00    +0.000 S 
ATOM     25  C   UNL     1      48.243   6.125  19.720  0.00  0.00    +0.000 A 
ATOM     26  N   UNL     1      47.815   6.614  20.914  0.00  0.00    +0.000 NA
ATOM     27  C   UNL     1      47.493   7.862  20.899  0.00  0.00    +0.000 A 
ATOM     28  N   UNL     1      47.548   8.668  19.792  0.00  0.00    +0.000 N 
ATOM     29  C   UNL     1      47.898   8.202  18.548  0.00  0.00    +0.000 A 
ATOM     30  O   UNL     1      47.807   8.918  17.555  0.00  0.00    +0.000 OA
ATOM     31  C   UNL     1      48.320   6.814  18.518  0.00  0.00    +0.000 A 
ATOM     32  H   UNL     1      47.252   9.632  19.838  0.00  0.00    +0.000 HD
ENDBRANCH  19  22
ENDBRANCH   1  20
TORSDOF 5
ENDMDL
MODEL 4
REMARK VINA RESULT:    -7.471      3.154      5.231
REMARK INTER + INTRA:         -10.611
REMARK INTER:                  -9.591
REMARK INTRA:                  -1.020
REMARK UNBOUND:                -0.956
REMARK  Name = 
REMARK  5 active torsions:
REMARK  status: ('A' for Active; 'I' for Inactive)
REMARK    1  A    between atoms: C_2  and  C_20
REMARK    2  A    between atoms: N_3  and  C_4
REMARK    3  A    between atoms: C_4  and  C_5
REMARK    4  A    between atoms: C_8  and  C_9
REMARK    5  A    between atoms: C_9  and  N_10
REMARK                            x       y       z     vdW  Elec       q    Type
REMARK                         _______ _______ _______ _____ _____    ______ ____
ROOT
ATOM      1  C   UNL     1      48.083   6.155  14.064  0.00  0.00    +0.000 C 
ENDROOT
BRANCH   1   2
ATOM      2  C   UNL     1      46.946   5.693  13.191  0.00  0.00    +0.000 A 
ATOM      3  C   UNL     1      46.474   6.511  12.159  0.00  0.00    +0.000 A 
ATOM      4  C   UNL     1      45.410   6.097  11.355  0.00  0.00    +0.000 A 
ATOM      5  C   UNL     1      44.778   4.865  11.583  0.00  0.00    +0.000 A 
ATOM      6  C   UNL     1      45.251   4.046  12.617  0.00  0.00    +0.000 A 
ATOM      7  C   UNL     1      46.317   4.461  13.420  0.00  0.00    +0.000 A 
BRANCH   5   8
ATOM      8  C   UNL     1      43.605   4.441  10.734  0.00  0.00    +0.000 C 
BRANCH   8   9
ATOM      9  N   UNL     1      43.923   4.581   9.328  0.00  0.00    +0.000 N 
ATOM     10  C   UNL     1      44.852   3.743   8.742  0.00  0.00    +0.000 A 
ATOM     11  C   UNL     1      45.014   2.408   9.106  0.00  0.00    +0.000 A 
ATOM     12  C   UNL     1      45.923   1.603   8.417  0.00  0.00    +0.000 A 
ATOM     13  C   UNL     1      46.636   2.145   7.361  0.00  0.00    +0.000 A 
ATOM     14 CL   UNL     1      47.739   1.187   6.463  0.00  0.00    +0.000 Cl
ATOM     15  C   UNL     1      46.421   3.476   7.053  0.00  0.00    +0.000 A 
ATOM     16  N   UNL     1      45.556   4.281   7.724  0.00  0.00    +0.000 NA
ATOM     17  H   UNL     1      44.091   5.530   9.006  0.00  0.00    +0.000 HD
ENDBRANCH   8   9
ENDBRANCH   5   8
ENDBRANCH   1   2
BRANCH   1  20
ATOM     18  O   UNL     1      48.636   8.807  14.841  0.00  0.00    +0.000 OA
ATOM     19  C   UNL     1      49.189   8.348  13.845  0.00  0.00    +0.000 C 
ATOM     20  N   UNL     1      48.926   7.094  13.367  0.00  0.00    +0.000 N 
ATOM     21  H   UNL     1      49.535   6.697  12.661  0.00  0.00    +0.000 HD
BRANCH  19  22
ATOM     22  C   UNL     1      50.140   9.153  13.062  0.00  0.00    +0.000 A 
ATOM     23  C   UNL     1      51.501   9.061  13.326  0.00  0.00    +0.000 A 
ATOM     24  S   UNL     1      52.458  10.072  12.343  0.00  0.00    +0.000 S 
ATOM     25  C   UNL     1      51.095  10.634  11.496  0.00  0.00    +0.000 A 
ATOM     26  N   UNL     1      51.220  11.523  10.476  0.00  0.00    +0.000 NA
ATOM     27  C   UNL     1      50.112  11.828   9.892  0.00  0.00    +0.000 A 
ATOM     28  N   UNL     1      48.883  11.334  10.242  0.00  0.00    +0.000 N 
ATOM     29  C   UNL     1      48.697  10.496  11.315  0.00  0.00    +0.000 A 
ATOM     30  O   UNL     1      47.569  10.180  11.684  0.00  0.00    +0.000 OA
ATOM     31  C   UNL     1      49.919  10.078  11.977  0.00  0.00    +0.000 A 
ATOM     32  H   UNL     1      48.048  11.637   9.765  0.00  0.00    +0.000 HD
ENDBRANCH  19  22
ENDBRANCH   1  20
TORSDOF 5
ENDMDL
MODEL 5
REMARK VINA RESULT:    -7.244      3.982      5.061
REMARK INTER + INTRA:         -10.318
REMARK INTER:                  -9.293
REMARK INTRA:                  -1.025
REMARK UNBOUND:                -0.956
REMARK  Name = 
REMARK  5 active torsions:
REMARK  status: ('A' for Active; 'I' for Inactive)
REMARK    1  A    between atoms: C_2  and  C_20
REMARK    2  A    between atoms: N_3  and  C_4
REMARK    3  A    between atoms: C_4  and  C_5
REMARK    4  A    between atoms: C_8  and  C_9
REMARK    5  A    between atoms: C_9  and  N_10
REMARK                            x       y       z     vdW  Elec       q    Type
REMARK                         _______ _______ _______ _____ _____    ______ ____
ROOT
ATOM      1  C   UNL     1      45.875   8.014  13.317  0.00  0.00    +0.000 C 
ENDROOT
BRANCH   1   2
ATOM      2  C   UNL     1      45.424   6.784  12.572  0.00  0.00    +0.000 A 
ATOM      3  C   UNL     1      44.795   6.907  11.328  0.00  0.00    +0.000 A 
ATOM      4  C   UNL     1      44.361   5.774  10.638  0.00  0.00    +0.000 A 
ATOM      5  C   UNL     1      44.524   4.494  11.190  0.00  0.00    +0.000 A 
ATOM      6  C   UNL     1      45.154   4.371  12.435  0.00  0.00    +0.000 A 
ATOM      7  C   UNL     1      45.590   5.506  13.124  0.00  0.00    +0.000 A 
BRANCH   5   8
ATOM      8  C   UNL     1      44.018   3.276  10.454  0.00  0.00    +0.000 C 
BRANCH   8   9
ATOM      9  N   UNL     1      45.116   2.389  10.134  0.00  0.00    +0.000 N 
ATOM     10  C   UNL     1      45.655   2.387   8.862  0.00  0.00    +0.000 A 
ATOM     11  C   UNL     1      45.760   3.531   8.074  0.00  0.00    +0.000 A 
ATOM     12  C   UNL     1      46.384   3.464   6.827  0.00  0.00    +0.000 A 
ATOM     13  C   UNL     1      46.912   2.257   6.403  0.00  0.00    +0.000 A 
ATOM     14 CL   UNL     1      47.717   2.133   4.894  0.00  0.00    +0.000 Cl
ATOM     15  C   UNL     1      46.775   1.163   7.238  0.00  0.00    +0.000 A 
ATOM     16  N   UNL     1      46.154   1.203   8.446  0.00  0.00    +0.000 NA
ATOM     17  H   UNL     1      45.013   1.427  10.446  0.00  0.00    +0.000 HD
ENDBRANCH   8   9
ENDBRANCH   5   8
ENDBRANCH   1   2
BRANCH   1  20
ATOM     18  O   UNL     1      46.339  10.254  11.672  0.00  0.00    +0.000 OA
ATOM     19  C   UNL     1      47.298   9.609  12.088  0.00  0.00    +0.000 C 
ATOM     20  N   UNL     1      47.153   8.474  12.837  0.00  0.00    +0.000 N 
ATOM     21  H   UNL     1      47.964   8.085  13.305  0.00  0.00    +0.000 HD
BRANCH  19  22
ATOM     22  C   UNL     1      48.678   9.992  11.752  0.00  0.00    +0.000 A 
ATOM     23  C   UNL     1      49.027  11.336  11.700  0.00  0.00    +0.000 A 
ATOM     24  S   UNL     1      50.657  11.603  11.279  0.00  0.00    +0.000 S 
ATOM     25  C   UNL     1      50.969   9.934  11.198  0.00  0.00    +0.000 A 
ATOM     26  N   UNL     1      52.211   9.465  10.906  0.00  0.00    +0.000 NA
ATOM     27  C   UNL     1      52.317   8.180  10.924  0.00  0.00    +0.000 A 
ATOM     28  N   UNL     1      51.289   7.316  11.196  0.00  0.00    +0.000 N 
ATOM     29  C   UNL     1      50.001   7.739  11.418  0.00  0.00    +0.000 A 
ATOM     30  O   UNL     1      49.080   6.933  11.524  0.00  0.00    +0.000 OA
ATOM     31  C   UNL     1      49.835   9.180  11.461  0.00  0.00    +0.000 A 
ATOM     32  H   UNL     1      51.430   6.317  11.163  0.00  0.00    +0.000 HD
ENDBRANCH  19  22
ENDBRANCH   1  20
TORSDOF 5
ENDMDL
MODEL 6
REMARK VINA RESULT:    -7.109      4.387      6.324
REMARK INTER + INTRA:         -10.143
REMARK INTER:                  -9.083
REMARK INTRA:                  -1.060
REMARK UNBOUND:                -0.956
REMARK  Name = 
REMARK  5 active torsions:
REMARK  status: ('A' for Active; 'I' for Inactive)
REMARK    1  A    between atoms: C_2  and  C_20
REMARK    2  A    between atoms: N_3  and  C_4
REMARK    3  A    between atoms: C_4  and  C_5
REMARK    4  A    between atoms: C_8  and  C_9
REMARK    5  A    between atoms: C_9  and  N_10
REMARK                            x       y       z     vdW  Elec       q    Type
REMARK                         _______ _______ _______ _____ _____    ______ ____
ROOT
ATOM      1  C   UNL     1      46.171   5.035  13.179  0.00  0.00    +0.000 C 
ENDROOT
BRANCH   1   2
ATOM      2  C   UNL     1      45.693   6.349  12.617  0.00  0.00    +0.000 A 
ATOM      3  C   UNL     1      46.252   7.550  13.067  0.00  0.00    +0.000 A 
ATOM      4  C   UNL     1      45.805   8.773  12.562  0.00  0.00    +0.000 A 
ATOM      5  C   UNL     1      44.770   8.821  11.616  0.00  0.00    +0.000 A 
ATOM      6  C   UNL     1      44.211   7.618  11.166  0.00  0.00    +0.000 A 
ATOM      7  C   UNL     1      44.661   6.395  11.670  0.00  0.00    +0.000 A 
BRANCH   5   8
ATOM      8  C   UNL     1      44.266  10.149  11.103  0.00  0.00    +0.000 C 
BRANCH   8   9
ATOM      9  N   UNL     1      43.364  10.750  12.063  0.00  0.00    +0.000 N 
ATOM     10  C   UNL     1      42.067  11.053  11.696  0.00  0.00    +0.000 A 
ATOM     11  C   UNL     1      41.323  10.283  10.805  0.00  0.00    +0.000 A 
ATOM     12  C   UNL     1      39.993  10.612  10.541  0.00  0.00    +0.000 A 
ATOM     13  C   UNL     1      39.425  11.694  11.191  0.00  0.00    +0.000 A 
ATOM     14 CL   UNL     1      37.785  12.117  10.924  0.00  0.00    +0.000 Cl
ATOM     15  C   UNL     1      40.221  12.411  12.066  0.00  0.00    +0.000 A 
ATOM     16  N   UNL     1      41.523  12.119  12.321  0.00  0.00    +0.000 NA
ATOM     17  H   UNL     1      43.742  11.526  12.599  0.00  0.00    +0.000 HD
ENDBRANCH   8   9
ENDBRANCH   5   8
ENDBRANCH   1   2
BRANCH   1  20
ATOM     18  O   UNL     1      47.461   3.059  14.719  0.00  0.00    +0.000 OA
ATOM     19  C   UNL     1      47.387   4.204  15.157  0.00  0.00    +0.000 C 
ATOM     20  N   UNL     1      46.722   5.203  14.500  0.00  0.00    +0.000 N 
ATOM     21  H   UNL     1      46.843   6.162  14.806  0.00  0.00    +0.000 HD
BRANCH  19  22
ATOM     22  C   UNL     1      47.968   4.562  16.460  0.00  0.00    +0.000 A 
ATOM     23  C   UNL     1      47.602   3.851  17.596  0.00  0.00    +0.000 A 
ATOM     24  S   UNL     1      48.352   4.408  19.021  0.00  0.00    +0.000 S 
ATOM     25  C   UNL     1      49.229   5.588  18.168  0.00  0.00    +0.000 A 
ATOM     26  N   UNL     1      50.104   6.410  18.805  0.00  0.00    +0.000 NA
ATOM     27  C   UNL     1      50.735   7.225  18.030  0.00  0.00    +0.000 A 
ATOM     28  N   UNL     1      50.562   7.303  16.673  0.00  0.00    +0.000 N 
ATOM     29  C   UNL     1      49.634   6.549  15.996  0.00  0.00    +0.000 A 
ATOM     30  O   UNL     1      49.411   6.740  14.804  0.00  0.00    +0.000 OA
ATOM     31  C   UNL     1      48.932   5.577  16.813  0.00  0.00    +0.000 A 
ATOM     32  H   UNL     1      51.065   7.986  16.126  0.00  0.00    +0.000 HD
ENDBRANCH  19  22
ENDBRANCH   1  20
TORSDOF 5
ENDMDL
MODEL 7
REMARK VINA RESULT:    -7.105      4.460      6.022
REMARK INTER + INTRA:         -10.137
REMARK INTER:                  -9.388
REMARK INTRA:                  -0.749
REMARK UNBOUND:                -0.956
REMARK  Name = 
REMARK  5 active torsions:
REMARK  status: ('A' for Active; 'I' for Inactive)
REMARK    1  A    between atoms: C_2  and  C_20
REMARK    2  A    between atoms: N_3  and  C_4
REMARK    3  A    between atoms: C_4  and  C_5
REMARK    4  A    between atoms: C_8  and  C_9
REMARK    5  A    between atoms: C_9  and  N_10
REMARK                            x       y       z     vdW  Elec       q    Type
REMARK                         _______ _______ _______ _____ _____    ______ ____
ROOT
ATOM      1  C   UNL     1      46.435   4.439  14.069  0.00  0.00    +0.000 C 
ENDROOT
BRANCH   1   2
ATOM      2  C   UNL     1      45.993   5.691  13.356  0.00  0.00    +0.000 A 
ATOM      3  C   UNL     1      44.722   5.758  12.777  0.00  0.00    +0.000 A 
ATOM      4  C   UNL     1      44.310   6.909  12.102  0.00  0.00    +0.000 A 
ATOM      5  C   UNL     1      45.172   8.008  11.970  0.00  0.00    +0.000 A 
ATOM      6  C   UNL     1      46.445   7.941  12.550  0.00  0.00    +0.000 A 
ATOM      7  C   UNL     1      46.856   6.789  13.227  0.00  0.00    +0.000 A 
BRANCH   5   8
ATOM      8  C   UNL     1      44.733   9.235  11.206  0.00  0.00    +0.000 C 
BRANCH   8   9
ATOM      9  N   UNL     1      43.955  10.108  12.060  0.00  0.00    +0.000 N 
ATOM     10  C   UNL     1      42.802  10.698  11.579  0.00  0.00    +0.000 A 
ATOM     11  C   UNL     1      41.944  10.076  10.675  0.00  0.00    +0.000 A 
ATOM     12  C   UNL     1      40.759  10.706  10.291  0.00  0.00    +0.000 A 
ATOM     13  C   UNL     1      40.446  11.939  10.838  0.00  0.00    +0.000 A 
ATOM     14 CL   UNL     1      38.986  12.737  10.422  0.00  0.00    +0.000 Cl
ATOM     15  C   UNL     1      41.342  12.496  11.732  0.00  0.00    +0.000 A 
ATOM     16  N   UNL     1      42.509  11.907  12.102  0.00  0.00    +0.000 NA
ATOM     17  H   UNL     1      44.484  10.801  12.582  0.00  0.00    +0.000 HD
ENDBRANCH   8   9
ENDBRANCH   5   8
ENDBRANCH   1   2
BRANCH   1  20
ATOM     18  O   UNL     1      46.589   3.482  16.715  0.00  0.00    +0.000 OA
ATOM     19  C   UNL     1      47.506   4.169  16.273  0.00  0.00    +0.000 C 
ATOM     20  N   UNL     1      47.477   4.724  15.023  0.00  0.00    +0.000 N 
ATOM     21  H   UNL     1      48.326   5.123  14.640  0.00  0.00    +0.000 HD
BRANCH  19  22
ATOM     22  C   UNL     1      48.683   4.489  17.095  0.00  0.00    +0.000 A 
ATOM     23  C   UNL     1      48.753   5.711  17.753  0.00  0.00    +0.000 A 
ATOM     24  S   UNL     1      50.190   5.927  18.643  0.00  0.00    +0.000 S 
ATOM     25  C   UNL     1      50.752   4.379  18.222  0.00  0.00    +0.000 A 
ATOM     26  N   UNL     1      51.939   3.911  18.689  0.00  0.00    +0.000 NA
ATOM     27  C   UNL     1      52.220   2.706  18.330  0.00  0.00    +0.000 A 
ATOM     28  N   UNL     1      51.425   1.923  17.534  0.00  0.00    +0.000 N 
ATOM     29  C   UNL     1      50.255   2.379  16.974  0.00  0.00    +0.000 A 
ATOM     30  O   UNL     1      49.637   1.699  16.159  0.00  0.00    +0.000 OA
ATOM     31  C   UNL     1      49.865   3.714  17.388  0.00  0.00    +0.000 A 
ATOM     32  H   UNL     1      51.716   0.996  17.262  0.00  0.00    +0.000 HD
ENDBRANCH  19  22
ENDBRANCH   1  20
TORSDOF 5
ENDMDL
MODEL 8
REMARK VINA RESULT:    -6.959      4.886     10.109
REMARK INTER + INTRA:          -9.949
REMARK INTER:                  -9.195
REMARK INTRA:                  -0.753
REMARK UNBOUND:                -0.956
REMARK  Name = 
REMARK  5 active torsions:
REMARK  status: ('A' for Active; 'I' for Inactive)
REMARK    1  A    between atoms: C_2  and  C_20
REMARK    2  A    between atoms: N_3  and  C_4
REMARK    3  A    between atoms: C_4  and  C_5
REMARK    4  A    between atoms: C_8  and  C_9
REMARK    5  A    between atoms: C_9  and  N_10
REMARK                            x       y       z     vdW  Elec       q    Type
REMARK                         _______ _______ _______ _____ _____    ______ ____
ROOT
ATOM      1  C   UNL     1      47.665   3.682  16.490  0.00  0.00    +0.000 C 
ENDROOT
BRANCH   1   2
ATOM      2  C   UNL     1      47.889   4.336  17.828  0.00  0.00    +0.000 A 
ATOM      3  C   UNL     1      46.985   5.292  18.304  0.00  0.00    +0.000 A 
ATOM      4  C   UNL     1      47.194   5.914  19.537  0.00  0.00    +0.000 A 
ATOM      5  C   UNL     1      48.325   5.610  20.309  0.00  0.00    +0.000 A 
ATOM      6  C   UNL     1      49.230   4.652  19.833  0.00  0.00    +0.000 A 
ATOM      7  C   UNL     1      49.019   4.029  18.599  0.00  0.00    +0.000 A 
BRANCH   5   8
ATOM      8  C   UNL     1      48.563   6.314  21.623  0.00  0.00    +0.000 C 
BRANCH   8   9
ATOM      9  N   UNL     1      49.128   7.628  21.396  0.00  0.00    +0.000 N 
ATOM     10  C   UNL     1      48.298   8.714  21.199  0.00  0.00    +0.000 A 
ATOM     11  C   UNL     1      47.067   8.861  21.835  0.00  0.00    +0.000 A 
ATOM     12  C   UNL     1      46.317  10.022  21.642  0.00  0.00    +0.000 A 
ATOM     13  C   UNL     1      46.824  11.024  20.832  0.00  0.00    +0.000 A 
ATOM     14 CL   UNL     1      45.954  12.482  20.592  0.00  0.00    +0.000 Cl
ATOM     15  C   UNL     1      48.054  10.811  20.236  0.00  0.00    +0.000 A 
ATOM     16  N   UNL     1      48.790   9.681  20.396  0.00  0.00    +0.000 NA
ATOM     17  H   UNL     1      49.888   7.671  20.723  0.00  0.00    +0.000 HD
ENDBRANCH   8   9
ENDBRANCH   5   8
ENDBRANCH   1   2
BRANCH   1  20
ATOM     18  O   UNL     1      47.148   3.195  13.763  0.00  0.00    +0.000 OA
ATOM     19  C   UNL     1      46.810   4.269  14.252  0.00  0.00    +0.000 C 
ATOM     20  N   UNL     1      47.082   4.606  15.550  0.00  0.00    +0.000 N 
ATOM     21  H   UNL     1      46.627   5.416  15.956  0.00  0.00    +0.000 HD
BRANCH  19  22
ATOM     22  C   UNL     1      46.132   5.296  13.446  0.00  0.00    +0.000 A 
ATOM     23  C   UNL     1      46.766   6.508  13.199  0.00  0.00    +0.000 A 
ATOM     24  S   UNL     1      45.835   7.588  12.267  0.00  0.00    +0.000 S 
ATOM     25  C   UNL     1      44.571   6.462  12.118  0.00  0.00    +0.000 A 
ATOM     26  N   UNL     1      43.454   6.750  11.400  0.00  0.00    +0.000 NA
ATOM     27  C   UNL     1      42.597   5.790  11.331  0.00  0.00    +0.000 A 
ATOM     28  N   UNL     1      42.749   4.565  11.927  0.00  0.00    +0.000 N 
ATOM     29  C   UNL     1      43.823   4.254  12.727  0.00  0.00    +0.000 A 
ATOM     30  O   UNL     1      43.861   3.199  13.353  0.00  0.00    +0.000 OA
ATOM     31  C   UNL     1      44.844   5.283  12.796  0.00  0.00    +0.000 A 
ATOM     32  H   UNL     1      42.026   3.864  11.861  0.00  0.00    +0.000 HD
ENDBRANCH  19  22
ENDBRANCH   1  20
TORSDOF 5
ENDMDL
MODEL 9
REMARK VINA RESULT:    -6.797      4.238      8.765
REMARK INTER + INTRA:          -9.739
REMARK INTER:                  -8.651
REMARK INTRA:                  -1.088
REMARK UNBOUND:                -0.956
REMARK  Name = 
REMARK  5 active torsions:
REMARK  status: ('A' for Active; 'I' for Inactive)
REMARK    1  A    between atoms: C_2  and  C_20
REMARK    2  A    between atoms: N_3  and  C_4
REMARK    3  A    between atoms: C_4  and  C_5
REMARK    4  A    between atoms: C_8  and  C_9
REMARK    5  A    between atoms: C_9  and  N_10
REMARK                            x       y       z     vdW  Elec       q    Type
REMARK                         _______ _______ _______ _____ _____    ______ ____
ROOT
ATOM      1  C   UNL     1      48.522   7.470  14.457  0.00  0.00    +0.000 C 
ENDROOT
BRANCH   1   2
ATOM      2  C   UNL     1      48.985   6.574  15.577  0.00  0.00    +0.000 A 
ATOM      3  C   UNL     1      50.262   6.735  16.123  0.00  0.00    +0.000 A 
ATOM      4  C   UNL     1      50.705   5.899  17.150  0.00  0.00    +0.000 A 
ATOM      5  C   UNL     1      49.887   4.868  17.636  0.00  0.00    +0.000 A 
ATOM      6  C   UNL     1      48.607   4.707  17.089  0.00  0.00    +0.000 A 
ATOM      7  C   UNL     1      48.165   5.545  16.062  0.00  0.00    +0.000 A 
BRANCH   5   8
ATOM      8  C   UNL     1      50.387   3.945  18.722  0.00  0.00    +0.000 C 
BRANCH   8   9
ATOM      9  N   UNL     1      51.834   3.953  18.763  0.00  0.00    +0.000 N 
ATOM     10  C   UNL     1      52.539   2.787  18.535  0.00  0.00    +0.000 A 
ATOM     11  C   UNL     1      52.122   1.804  17.640  0.00  0.00    +0.000 A 
ATOM     12  C   UNL     1      52.926   0.686  17.409  0.00  0.00    +0.000 A 
ATOM     13  C   UNL     1      54.142   0.585  18.062  0.00  0.00    +0.000 A 
ATOM     14 CL   UNL     1      55.179  -0.753  17.785  0.00  0.00    +0.000 Cl
ATOM     15  C   UNL     1      54.494   1.600  18.933  0.00  0.00    +0.000 A 
ATOM     16  N   UNL     1      53.717   2.685  19.187  0.00  0.00    +0.000 NA
ATOM     17  H   UNL     1      52.251   4.438  19.553  0.00  0.00    +0.000 HD
ENDBRANCH   8   9
ENDBRANCH   5   8
ENDBRANCH   1   2
BRANCH   1  20
ATOM     18  O   UNL     1      47.741   7.470  11.749  0.00  0.00    +0.000 OA
ATOM     19  C   UNL     1      46.975   7.010  12.592  0.00  0.00    +0.000 C 
ATOM     20  N   UNL     1      47.253   7.032  13.932  0.00  0.00    +0.000 N 
ATOM     21  H   UNL     1      46.682   6.483  14.564  0.00  0.00    +0.000 HD
BRANCH  19  22
ATOM     22  C   UNL     1      45.669   6.451  12.212  0.00  0.00    +0.000 A 
ATOM     23  C   UNL     1      44.706   7.276  11.643  0.00  0.00    +0.000 A 
ATOM     24  S   UNL     1      43.246   6.473  11.282  0.00  0.00    +0.000 S 
ATOM     25  C   UNL     1      43.862   4.985  11.827  0.00  0.00    +0.000 A 
ATOM     26  N   UNL     1      43.115   3.852  11.767  0.00  0.00    +0.000 NA
ATOM     27  C   UNL     1      43.721   2.788  12.170  0.00  0.00    +0.000 A 
ATOM     28  N   UNL     1      45.008   2.754  12.641  0.00  0.00    +0.000 N 
ATOM     29  C   UNL     1      45.774   3.884  12.795  0.00  0.00    +0.000 A 
ATOM     30  O   UNL     1      46.871   3.836  13.345  0.00  0.00    +0.000 OA
ATOM     31  C   UNL     1      45.158   5.104  12.307  0.00  0.00    +0.000 A 
ATOM     32  H   UNL     1      45.415   1.892  12.972  0.00  0.00    +0.000 HD
ENDBRANCH  19  22
ENDBRANCH   1  20
TORSDOF 5
ENDMDL
