MODEL 1
REMARK VINA RESULT:    -7.107      0.000      0.000
REMARK INTER + INTRA:         -10.405
REMARK INTER:                 -10.015
REMARK INTRA:                  -0.390
REMARK UNBOUND:                -0.390
REMARK  Name = 
REMARK  8 active torsions:
REMARK  status: ('A' for Active; 'I' for Inactive)
REMARK    1  A    between atoms: C_1  and  C_2
REMARK    2  A    between atoms: C_2  and  O_3
REMARK    3  A    between atoms: O_3  and  C_4
REMARK    4  A    between atoms: C_6  and  C_7
REMARK    5  A    between atoms: C_12  and  N_13
REMARK    6  A    between atoms: N_13  and  C_14
REMARK    7  A    between atoms: C_14  and  C_15
REMARK    8  A    between atoms: C_19  and  N_20
REMARK                            x       y       z     vdW  Elec       q    Type
REMARK                         _______ _______ _______ _____ _____    ______ ____
ROOT
ATOM      1  N   UNL     1      43.830   5.447   9.892  0.00  0.00    +0.000 N 
ATOM      2  H   UNL     1      43.050   5.752   9.327  0.00  0.00    +0.000 HD
ENDROOT
BRANCH   1   8
ATOM      3  C   UNL     1      44.368   3.066   9.812  0.00  0.00    +0.000 A 
ATOM      4  C   UNL     1      45.145   2.061   9.225  0.00  0.00    +0.000 A 
ATOM      5  C   UNL     1      46.096   2.365   8.257  0.00  0.00    +0.000 A 
ATOM      6  C   UNL     1      46.248   3.690   7.921  0.00  0.00    +0.000 A 
ATOM      7  N   UNL     1      45.535   4.693   8.485  0.00  0.00    +0.000 NA
ATOM      8  C   UNL     1      44.602   4.402   9.419  0.00  0.00    +0.000 A 
BRANCH   5   9
ATOM      9  C   UNL     1      46.854   1.248   7.644  0.00  0.00    +0.000 C 
ATOM     10  N   UNL     1      47.836   1.536   6.730  0.00  0.00    +0.000 N 
ATOM     11  O   UNL     1      46.618   0.085   7.935  0.00  0.00    +0.000 OA
ATOM     12  H   UNL     1      48.106   2.448   6.414  0.00  0.00    +0.000 HD
ATOM     13  H   UNL     1      48.311   0.737   6.334  0.00  0.00    +0.000 HD
ENDBRANCH   5   9
BRANCH   3  14
ATOM     14  O   UNL     1      43.385   2.798  10.747  0.00  0.00    +0.000 OA
BRANCH  14  16
ATOM     15  C   UNL     1      45.019   3.068  12.512  0.00  0.00    +0.000 C 
ATOM     16  C   UNL     1      43.861   2.251  11.986  0.00  0.00    +0.000 C 
ENDBRANCH  14  16
ENDBRANCH   3  14
ENDBRANCH   1   8
BRANCH   1  17
ATOM     17  C   UNL     1      43.881   5.826  11.291  0.00  0.00    +0.000 C 
BRANCH  17  18
ATOM     18  C   UNL     1      44.826   6.986  11.503  0.00  0.00    +0.000 A 
ATOM     19  C   UNL     1      44.401   8.305  11.333  0.00  0.00    +0.000 A 
ATOM     20  C   UNL     1      45.256   9.356  11.651  0.00  0.00    +0.000 A 
ATOM     21  C   UNL     1      46.539   9.096  12.137  0.00  0.00    +0.000 A 
ATOM     22  C   UNL     1      47.012   7.789  12.309  0.00  0.00    +0.000 A 
ATOM     23  C   UNL     1      46.131   6.749  11.972  0.00  0.00    +0.000 A 
BRANCH  22  24
ATOM     24  N   UNL     1      48.285   7.528  12.768  0.00  0.00    +0.000 N 
ATOM     25  C   UNL     1      48.538   6.720  13.965  0.00  0.00    +0.000 C 
ATOM     26  C   UNL     1      49.680   7.363  14.792  0.00  0.00    +0.000 C 
ATOM     27  N   UNL     1      50.911   7.639  14.018  0.00  0.00    +0.000 NA
ATOM     28  C   UNL     1      50.556   8.459  12.836  0.00  0.00    +0.000 C 
ATOM     29  C   UNL     1      49.471   7.813  11.951  0.00  0.00    +0.000 C 
ATOM     30  H   UNL     1      51.271   6.748  13.679  0.00  0.00    +0.000 HD
ENDBRANCH  22  24
ENDBRANCH  17  18
ENDBRANCH   1  17
TORSDOF 7
ENDMDL
MODEL 2
REMARK VINA RESULT:    -6.889      2.712      6.860
REMARK INTER + INTRA:         -10.098
REMARK INTER:                  -9.077
REMARK INTRA:                  -1.021
REMARK UNBOUND:                -0.390
REMARK  Name = 
REMARK  8 active torsions:
REMARK  status: ('A' for Active; 'I' for Inactive)
REMARK    1  A    between atoms: C_1  and  C_2
REMARK    2  A    between atoms: C_2  and  O_3
REMARK    3  A    between atoms: O_3  and  C_4
REMARK    4  A    between atoms: C_6  and  C_7
REMARK    5  A    between atoms: C_12  and  N_13
REMARK    6  A    between atoms: N_13  and  C_14
REMARK    7  A    between atoms: C_14  and  C_15
REMARK    8  A    between atoms: C_19  and  N_20
REMARK                            x       y       z     vdW  Elec       q    Type
REMARK                         _______ _______ _______ _____ _____    ______ ____
ROOT
ATOM      1  N   UNL     1      44.902   7.427  12.737  0.00  0.00    +0.000 N 
ATOM      2  H   UNL     1      44.483   7.610  13.638  0.00  0.00    +0.000 HD
ENDROOT
BRANCH   1   8
ATOM      3  C   UNL     1      47.285   7.084  12.325  0.00  0.00    +0.000 A 
ATOM      4  C   UNL     1      48.514   7.673  12.007  0.00  0.00    +0.000 A 
ATOM      5  C   UNL     1      48.624   9.048  11.830  0.00  0.00    +0.000 A 
ATOM      6  C   UNL     1      47.482   9.796  12.000  0.00  0.00    +0.000 A 
ATOM      7  N   UNL     1      46.282   9.268  12.334  0.00  0.00    +0.000 NA
ATOM      8  C   UNL     1      46.167   7.929  12.497  0.00  0.00    +0.000 A 
BRANCH   5   9
ATOM      9  C   UNL     1      49.946   9.603  11.451  0.00  0.00    +0.000 C 
ATOM     10  N   UNL     1      50.053  10.947  11.199  0.00  0.00    +0.000 N 
ATOM     11  O   UNL     1      50.932   8.887  11.359  0.00  0.00    +0.000 OA
ATOM     12  H   UNL     1      49.313  11.621  11.237  0.00  0.00    +0.000 HD
ATOM     13  H   UNL     1      50.973  11.268  10.931  0.00  0.00    +0.000 HD
ENDBRANCH   5   9
BRANCH   3  14
ATOM     14  O   UNL     1      47.128   5.718  12.469  0.00  0.00    +0.000 OA
BRANCH  14  16
ATOM     15  C   UNL     1      46.997   3.749  13.870  0.00  0.00    +0.000 C 
ATOM     16  C   UNL     1      47.032   5.259  13.826  0.00  0.00    +0.000 C 
ENDBRANCH  14  16
ENDBRANCH   3  14
ENDBRANCH   1   8
BRANCH   1  17
ATOM     17  C   UNL     1      44.055   7.007  11.636  0.00  0.00    +0.000 C 
BRANCH  17  18
ATOM     18  C   UNL     1      44.068   5.503  11.488  0.00  0.00    +0.000 A 
ATOM     19  C   UNL     1      43.490   4.676  12.452  0.00  0.00    +0.000 A 
ATOM     20  C   UNL     1      43.410   3.304  12.233  0.00  0.00    +0.000 A 
ATOM     21  C   UNL     1      43.908   2.752  11.050  0.00  0.00    +0.000 A 
ATOM     22  C   UNL     1      44.508   3.542  10.062  0.00  0.00    +0.000 A 
ATOM     23  C   UNL     1      44.583   4.921  10.315  0.00  0.00    +0.000 A 
BRANCH  22  24
ATOM     24  N   UNL     1      45.020   2.998   8.903  0.00  0.00    +0.000 N 
ATOM     25  C   UNL     1      45.177   1.552   8.716  0.00  0.00    +0.000 C 
ATOM     26  C   UNL     1      46.525   1.266   8.009  0.00  0.00    +0.000 C 
ATOM     27  N   UNL     1      46.731   2.030   6.758  0.00  0.00    +0.000 NA
ATOM     28  C   UNL     1      46.556   3.472   7.047  0.00  0.00    +0.000 C 
ATOM     29  C   UNL     1      45.192   3.803   7.688  0.00  0.00    +0.000 C 
ATOM     30  H   UNL     1      46.001   1.755   6.103  0.00  0.00    +0.000 HD
ENDBRANCH  22  24
ENDBRANCH  17  18
ENDBRANCH   1  17
TORSDOF 7
ENDMDL
MODEL 3
REMARK VINA RESULT:    -6.706      2.615      4.898
REMARK INTER + INTRA:          -9.841
REMARK INTER:                  -9.140
REMARK INTRA:                  -0.701
REMARK UNBOUND:                -0.390
REMARK  Name = 
REMARK  8 active torsions:
REMARK  status: ('A' for Active; 'I' for Inactive)
REMARK    1  A    between atoms: C_1  and  C_2
REMARK    2  A    between atoms: C_2  and  O_3
REMARK    3  A    between atoms: O_3  and  C_4
REMARK    4  A    between atoms: C_6  and  C_7
REMARK    5  A    between atoms: C_12  and  N_13
REMARK    6  A    between atoms: N_13  and  C_14
REMARK    7  A    between atoms: C_14  and  C_15
REMARK    8  A    between atoms: C_19  and  N_20
REMARK                            x       y       z     vdW  Elec       q    Type
REMARK                         _______ _______ _______ _____ _____    ______ ____
ROOT
ATOM      1  N   UNL     1      44.613   5.752  10.148  0.00  0.00    +0.000 N 
ATOM      2  H   UNL     1      43.649   5.989   9.962  0.00  0.00    +0.000 HD
ENDROOT
BRANCH   1   8
ATOM      3  C   UNL     1      44.700   3.375   9.592  0.00  0.00    +0.000 A 
ATOM      4  C   UNL     1      45.266   2.383   8.784  0.00  0.00    +0.000 A 
ATOM      5  C   UNL     1      46.237   2.697   7.838  0.00  0.00    +0.000 A 
ATOM      6  C   UNL     1      46.623   4.014   7.750  0.00  0.00    +0.000 A 
ATOM      7  N   UNL     1      46.120   4.998   8.531  0.00  0.00    +0.000 NA
ATOM      8  C   UNL     1      45.168   4.699   9.445  0.00  0.00    +0.000 A 
BRANCH   5   9
ATOM      9  C   UNL     1      46.764   1.605   6.985  0.00  0.00    +0.000 C 
ATOM     10  N   UNL     1      47.052   1.871   5.670  0.00  0.00    +0.000 N 
ATOM     11  O   UNL     1      46.940   0.480   7.429  0.00  0.00    +0.000 OA
ATOM     12  H   UNL     1      46.939   2.750   5.203  0.00  0.00    +0.000 HD
ATOM     13  H   UNL     1      47.394   1.088   5.132  0.00  0.00    +0.000 HD
ENDBRANCH   5   9
BRANCH   3  14
ATOM     14  O   UNL     1      43.705   3.109  10.514  0.00  0.00    +0.000 OA
BRANCH  14  16
ATOM     15  C   UNL     1      43.442   3.612  12.867  0.00  0.00    +0.000 C 
ATOM     16  C   UNL     1      44.172   2.786  11.832  0.00  0.00    +0.000 C 
ENDBRANCH  14  16
ENDBRANCH   3  14
ENDBRANCH   1   8
BRANCH   1  17
ATOM     17  C   UNL     1      45.239   6.236  11.364  0.00  0.00    +0.000 C 
BRANCH  17  18
ATOM     18  C   UNL     1      45.032   7.725  11.522  0.00  0.00    +0.000 A 
ATOM     19  C   UNL     1      45.989   8.525  12.150  0.00  0.00    +0.000 A 
ATOM     20  C   UNL     1      45.830   9.907  12.175  0.00  0.00    +0.000 A 
ATOM     21  C   UNL     1      44.715  10.497  11.576  0.00  0.00    +0.000 A 
ATOM     22  C   UNL     1      43.724   9.733  10.947  0.00  0.00    +0.000 A 
ATOM     23  C   UNL     1      43.907   8.340  10.945  0.00  0.00    +0.000 A 
BRANCH  22  24
ATOM     24  N   UNL     1      42.612  10.309  10.372  0.00  0.00    +0.000 N 
ATOM     25  C   UNL     1      42.664  11.001   9.081  0.00  0.00    +0.000 C 
ATOM     26  C   UNL     1      41.798  12.284   9.146  0.00  0.00    +0.000 C 
ATOM     27  N   UNL     1      40.414  12.061   9.620  0.00  0.00    +0.000 NA
ATOM     28  C   UNL     1      40.464  11.364  10.926  0.00  0.00    +0.000 C 
ATOM     29  C   UNL     1      41.260  10.043  10.879  0.00  0.00    +0.000 C 
ATOM     30  H   UNL     1      39.955  11.441   8.955  0.00  0.00    +0.000 HD
ENDBRANCH  22  24
ENDBRANCH  17  18
ENDBRANCH   1  17
TORSDOF 7
ENDMDL
MODEL 4
REMARK VINA RESULT:    -6.644      5.032      8.296
REMARK INTER + INTRA:          -9.753
REMARK INTER:                  -8.895
REMARK INTRA:                  -0.857
REMARK UNBOUND:                -0.390
REMARK  Name = 
REMARK  8 active torsions:
REMARK  status: ('A' for Active; 'I' for Inactive)
REMARK    1  A    between atoms: C_1  and  C_2
REMARK    2  A    between atoms: C_2  and  O_3
REMARK    3  A    between atoms: O_3  and  C_4
REMARK    4  A    between atoms: C_6  and  C_7
REMARK    5  A    between atoms: C_12  and  N_13
REMARK    6  A    between atoms: N_13  and  C_14
REMARK    7  A    between atoms: C_14  and  C_15
REMARK    8  A    between atoms: C_19  and  N_20
REMARK                            x       y       z     vdW  Elec       q    Type
REMARK                         _______ _______ _______ _____ _____    ______ ____
ROOT
ATOM      1  N   UNL     1      48.080   4.421  16.882  0.00  0.00    +0.000 N 
ATOM      2  H   UNL     1      47.972   5.334  17.301  0.00  0.00    +0.000 HD
ENDROOT
BRANCH   1   8
ATOM      3  C   UNL     1      50.355   4.346  17.770  0.00  0.00    +0.000 A 
ATOM      4  C   UNL     1      51.493   3.566  18.006  0.00  0.00    +0.000 A 
ATOM      5  C   UNL     1      51.541   2.233  17.616  0.00  0.00    +0.000 A 
ATOM      6  C   UNL     1      50.435   1.726  16.975  0.00  0.00    +0.000 A 
ATOM      7  N   UNL     1      49.326   2.453  16.704  0.00  0.00    +0.000 NA
ATOM      8  C   UNL     1      49.270   3.749  17.091  0.00  0.00    +0.000 A 
BRANCH   5   9
ATOM      9  C   UNL     1      52.760   1.452  17.936  0.00  0.00    +0.000 C 
ATOM     10  N   UNL     1      53.095   0.387  17.138  0.00  0.00    +0.000 N 
ATOM     11  O   UNL     1      53.464   1.738  18.893  0.00  0.00    +0.000 OA
ATOM     12  H   UNL     1      52.588   0.062  16.338  0.00  0.00    +0.000 HD
ATOM     13  H   UNL     1      53.927  -0.117  17.411  0.00  0.00    +0.000 HD
ENDBRANCH   5   9
BRANCH   3  14
ATOM     14  O   UNL     1      50.254   5.662  18.179  0.00  0.00    +0.000 OA
BRANCH  14  16
ATOM     15  C   UNL     1      50.132   7.884  17.226  0.00  0.00    +0.000 C 
ATOM     16  C   UNL     1      50.936   6.609  17.344  0.00  0.00    +0.000 C 
ENDBRANCH  14  16
ENDBRANCH   3  14
ENDBRANCH   1   8
BRANCH   1  17
ATOM     17  C   UNL     1      47.193   4.029  15.803  0.00  0.00    +0.000 C 
BRANCH  17  18
ATOM     18  C   UNL     1      47.191   5.066  14.703  0.00  0.00    +0.000 A 
ATOM     19  C   UNL     1      48.135   6.094  14.676  0.00  0.00    +0.000 A 
ATOM     20  C   UNL     1      48.185   6.962  13.589  0.00  0.00    +0.000 A 
ATOM     21  C   UNL     1      47.293   6.809  12.526  0.00  0.00    +0.000 A 
ATOM     22  C   UNL     1      46.321   5.801  12.517  0.00  0.00    +0.000 A 
ATOM     23  C   UNL     1      46.288   4.946  13.631  0.00  0.00    +0.000 A 
BRANCH  22  24
ATOM     24  N   UNL     1      45.424   5.660  11.480  0.00  0.00    +0.000 N 
ATOM     25  C   UNL     1      43.976   5.779  11.672  0.00  0.00    +0.000 C 
ATOM     26  C   UNL     1      43.252   4.690  10.840  0.00  0.00    +0.000 C 
ATOM     27  N   UNL     1      43.639   4.657   9.412  0.00  0.00    +0.000 NA
ATOM     28  C   UNL     1      45.113   4.532   9.321  0.00  0.00    +0.000 C 
ATOM     29  C   UNL     1      45.865   5.644  10.080  0.00  0.00    +0.000 C 
ATOM     30  H   UNL     1      43.379   5.552   8.999  0.00  0.00    +0.000 HD
ENDBRANCH  22  24
ENDBRANCH  17  18
ENDBRANCH   1  17
TORSDOF 7
ENDMDL
MODEL 5
REMARK VINA RESULT:    -6.632      3.866      6.305
REMARK INTER + INTRA:          -9.736
REMARK INTER:                  -8.888
REMARK INTRA:                  -0.848
REMARK UNBOUND:                -0.390
REMARK  Name = 
REMARK  8 active torsions:
REMARK  status: ('A' for Active; 'I' for Inactive)
REMARK    1  A    between atoms: C_1  and  C_2
REMARK    2  A    between atoms: C_2  and  O_3
REMARK    3  A    between atoms: O_3  and  C_4
REMARK    4  A    between atoms: C_6  and  C_7
REMARK    5  A    between atoms: C_12  and  N_13
REMARK    6  A    between atoms: N_13  and  C_14
REMARK    7  A    between atoms: C_14  and  C_15
REMARK    8  A    between atoms: C_19  and  N_20
REMARK                            x       y       z     vdW  Elec       q    Type
REMARK                         _______ _______ _______ _____ _____    ______ ____
ROOT
ATOM      1  N   UNL     1      47.313   5.063  15.019  0.00  0.00    +0.000 N 
ATOM      2  H   UNL     1      47.815   5.939  15.052  0.00  0.00    +0.000 HD
ENDROOT
BRANCH   1   8
ATOM      3  C   UNL     1      46.147   5.832  13.015  0.00  0.00    +0.000 A 
ATOM      4  C   UNL     1      45.416   5.474  11.876  0.00  0.00    +0.000 A 
ATOM      5  C   UNL     1      45.103   4.144  11.616  0.00  0.00    +0.000 A 
ATOM      6  C   UNL     1      45.526   3.209  12.531  0.00  0.00    +0.000 A 
ATOM      7  N   UNL     1      46.211   3.518  13.657  0.00  0.00    +0.000 NA
ATOM      8  C   UNL     1      46.527   4.809  13.910  0.00  0.00    +0.000 A 
BRANCH   5   9
ATOM      9  C   UNL     1      44.365   3.829  10.370  0.00  0.00    +0.000 C 
ATOM     10  N   UNL     1      44.442   4.701   9.314  0.00  0.00    +0.000 N 
ATOM     11  O   UNL     1      43.691   2.814  10.270  0.00  0.00    +0.000 OA
ATOM     12  H   UNL     1      44.955   5.561   9.289  0.00  0.00    +0.000 HD
ATOM     13  H   UNL     1      43.908   4.444   8.496  0.00  0.00    +0.000 HD
ENDBRANCH   5   9
BRANCH   3  14
ATOM     14  O   UNL     1      46.512   7.138  13.287  0.00  0.00    +0.000 OA
BRANCH  14  16
ATOM     15  C   UNL     1      48.548   7.497  12.029  0.00  0.00    +0.000 C 
ATOM     16  C   UNL     1      47.085   7.849  12.180  0.00  0.00    +0.000 C 
ENDBRANCH  14  16
ENDBRANCH   3  14
ENDBRANCH   1   8
BRANCH   1  17
ATOM     17  C   UNL     1      47.123   4.310  16.244  0.00  0.00    +0.000 C 
BRANCH  17  18
ATOM     18  C   UNL     1      48.441   3.787  16.767  0.00  0.00    +0.000 A 
ATOM     19  C   UNL     1      48.785   2.440  16.643  0.00  0.00    +0.000 A 
ATOM     20  C   UNL     1      50.053   2.010  17.024  0.00  0.00    +0.000 A 
ATOM     21  C   UNL     1      50.981   2.921  17.532  0.00  0.00    +0.000 A 
ATOM     22  C   UNL     1      50.674   4.279  17.686  0.00  0.00    +0.000 A 
ATOM     23  C   UNL     1      49.385   4.683  17.302  0.00  0.00    +0.000 A 
BRANCH  22  24
ATOM     24  N   UNL     1      51.580   5.178  18.206  0.00  0.00    +0.000 N 
ATOM     25  C   UNL     1      51.712   5.417  19.647  0.00  0.00    +0.000 C 
ATOM     26  C   UNL     1      51.897   6.933  19.905  0.00  0.00    +0.000 C 
ATOM     27  N   UNL     1      52.986   7.557  19.120  0.00  0.00    +0.000 NA
ATOM     28  C   UNL     1      52.765   7.265  17.685  0.00  0.00    +0.000 C 
ATOM     29  C   UNL     1      52.648   5.757  17.382  0.00  0.00    +0.000 C 
ATOM     30  H   UNL     1      53.860   7.112  19.396  0.00  0.00    +0.000 HD
ENDBRANCH  22  24
ENDBRANCH  17  18
ENDBRANCH   1  17
TORSDOF 7
ENDMDL
MODEL 6
REMARK VINA RESULT:    -6.576      3.806      5.890
REMARK INTER + INTRA:          -9.657
REMARK INTER:                  -8.626
REMARK INTRA:                  -1.031
REMARK UNBOUND:                -0.390
REMARK  Name = 
REMARK  8 active torsions:
REMARK  status: ('A' for Active; 'I' for Inactive)
REMARK    1  A    between atoms: C_1  and  C_2
REMARK    2  A    between atoms: C_2  and  O_3
REMARK    3  A    between atoms: O_3  and  C_4
REMARK    4  A    between atoms: C_6  and  C_7
REMARK    5  A    between atoms: C_12  and  N_13
REMARK    6  A    between atoms: N_13  and  C_14
REMARK    7  A    between atoms: C_14  and  C_15
REMARK    8  A    between atoms: C_19  and  N_20
REMARK                            x       y       z     vdW  Elec       q    Type
REMARK                         _______ _______ _______ _____ _____    ______ ____
ROOT
ATOM      1  N   UNL     1      46.255   4.565  14.731  0.00  0.00    +0.000 N 
ATOM      2  H   UNL     1      45.580   4.883  15.411  0.00  0.00    +0.000 HD
ENDROOT
BRANCH   1   8
ATOM      3  C   UNL     1      46.087   5.835  12.650  0.00  0.00    +0.000 A 
ATOM      4  C   UNL     1      45.789   5.806  11.283  0.00  0.00    +0.000 A 
ATOM      5  C   UNL     1      45.370   4.633  10.666  0.00  0.00    +0.000 A 
ATOM      6  C   UNL     1      45.244   3.517  11.460  0.00  0.00    +0.000 A 
ATOM      7  N   UNL     1      45.495   3.510  12.790  0.00  0.00    +0.000 NA
ATOM      8  C   UNL     1      45.914   4.647  13.393  0.00  0.00    +0.000 A 
BRANCH   5   9
ATOM      9  C   UNL     1      45.114   4.661   9.206  0.00  0.00    +0.000 C 
ATOM     10  N   UNL     1      43.897   4.233   8.738  0.00  0.00    +0.000 N 
ATOM     11  O   UNL     1      45.963   5.053   8.420  0.00  0.00    +0.000 OA
ATOM     12  H   UNL     1      43.136   3.887   9.289  0.00  0.00    +0.000 HD
ATOM     13  H   UNL     1      43.783   4.261   7.734  0.00  0.00    +0.000 HD
ENDBRANCH   5   9
BRANCH   3  14
ATOM     14  O   UNL     1      46.545   6.971  13.291  0.00  0.00    +0.000 OA
BRANCH  14  16
ATOM     15  C   UNL     1      48.958   6.966  13.482  0.00  0.00    +0.000 C 
ATOM     16  C   UNL     1      47.756   7.522  12.752  0.00  0.00    +0.000 C 
ENDBRANCH  14  16
ENDBRANCH   3  14
ENDBRANCH   1   8
BRANCH   1  17
ATOM     17  C   UNL     1      47.343   3.708  15.162  0.00  0.00    +0.000 C 
BRANCH  17  18
ATOM     18  C   UNL     1      47.780   4.056  16.566  0.00  0.00    +0.000 A 
ATOM     19  C   UNL     1      47.968   3.064  17.531  0.00  0.00    +0.000 A 
ATOM     20  C   UNL     1      48.486   3.399  18.779  0.00  0.00    +0.000 A 
ATOM     21  C   UNL     1      48.815   4.724  19.070  0.00  0.00    +0.000 A 
ATOM     22  C   UNL     1      48.630   5.753  18.138  0.00  0.00    +0.000 A 
ATOM     23  C   UNL     1      48.098   5.387  16.891  0.00  0.00    +0.000 A 
BRANCH  22  24
ATOM     24  N   UNL     1      48.934   7.065  18.428  0.00  0.00    +0.000 N 
ATOM     25  C   UNL     1      49.708   7.449  19.613  0.00  0.00    +0.000 C 
ATOM     26  C   UNL     1      49.090   8.721  20.246  0.00  0.00    +0.000 C 
ATOM     27  N   UNL     1      48.902   9.843  19.298  0.00  0.00    +0.000 NA
ATOM     28  C   UNL     1      48.110   9.361  18.142  0.00  0.00    +0.000 C 
ATOM     29  C   UNL     1      48.736   8.136  17.444  0.00  0.00    +0.000 C 
ATOM     30  H   UNL     1      49.821  10.114  18.953  0.00  0.00    +0.000 HD
ENDBRANCH  22  24
ENDBRANCH  17  18
ENDBRANCH   1  17
TORSDOF 7
ENDMDL
MODEL 7
REMARK VINA RESULT:    -6.574      3.283      5.530
REMARK INTER + INTRA:          -9.653
REMARK INTER:                  -8.554
REMARK INTRA:                  -1.099
REMARK UNBOUND:                -0.390
REMARK  Name = 
REMARK  8 active torsions:
REMARK  status: ('A' for Active; 'I' for Inactive)
REMARK    1  A    between atoms: C_1  and  C_2
REMARK    2  A    between atoms: C_2  and  O_3
REMARK    3  A    between atoms: O_3  and  C_4
REMARK    4  A    between atoms: C_6  and  C_7
REMARK    5  A    between atoms: C_12  and  N_13
REMARK    6  A    between atoms: N_13  and  C_14
REMARK    7  A    between atoms: C_14  and  C_15
REMARK    8  A    between atoms: C_19  and  N_20
REMARK                            x       y       z     vdW  Elec       q    Type
REMARK                         _______ _______ _______ _____ _____    ______ ____
ROOT
ATOM      1  N   UNL     1      47.239   6.992  13.737  0.00  0.00    +0.000 N 
ATOM      2  H   UNL     1      46.910   7.038  14.691  0.00  0.00    +0.000 HD
ENDROOT
BRANCH   1   8
ATOM      3  C   UNL     1      45.998   4.942  13.259  0.00  0.00    +0.000 A 
ATOM      4  C   UNL     1      45.255   4.216  12.322  0.00  0.00    +0.000 A 
ATOM      5  C   UNL     1      45.041   4.710  11.040  0.00  0.00    +0.000 A 
ATOM      6  C   UNL     1      45.606   5.927  10.734  0.00  0.00    +0.000 A 
ATOM      7  N   UNL     1      46.353   6.647  11.603  0.00  0.00    +0.000 NA
ATOM      8  C   UNL     1      46.555   6.175  12.855  0.00  0.00    +0.000 A 
BRANCH   5   9
ATOM      9  C   UNL     1      44.208   3.911  10.110  0.00  0.00    +0.000 C 
ATOM     10  N   UNL     1      44.083   4.325   8.808  0.00  0.00    +0.000 N 
ATOM     11  O   UNL     1      43.634   2.899  10.482  0.00  0.00    +0.000 OA
ATOM     12  H   UNL     1      44.501   5.139   8.400  0.00  0.00    +0.000 HD
ATOM     13  H   UNL     1      43.493   3.751   8.223  0.00  0.00    +0.000 HD
ENDBRANCH   5   9
BRANCH   3  14
ATOM     14  O   UNL     1      46.198   4.503  14.555  0.00  0.00    +0.000 OA
BRANCH  14  16
ATOM     15  C   UNL     1      47.645   3.459  16.191  0.00  0.00    +0.000 C 
ATOM     16  C   UNL     1      47.303   3.603  14.725  0.00  0.00    +0.000 C 
ENDBRANCH  14  16
ENDBRANCH   3  14
ENDBRANCH   1   8
BRANCH   1  17
ATOM     17  C   UNL     1      48.582   7.446  13.429  0.00  0.00    +0.000 C 
BRANCH  17  18
ATOM     18  C   UNL     1      49.495   7.280  14.622  0.00  0.00    +0.000 A 
ATOM     19  C   UNL     1      50.836   7.663  14.565  0.00  0.00    +0.000 A 
ATOM     20  C   UNL     1      51.622   7.612  15.712  0.00  0.00    +0.000 A 
ATOM     21  C   UNL     1      51.074   7.175  16.920  0.00  0.00    +0.000 A 
ATOM     22  C   UNL     1      49.738   6.768  17.020  0.00  0.00    +0.000 A 
ATOM     23  C   UNL     1      48.971   6.823  15.845  0.00  0.00    +0.000 A 
BRANCH  22  24
ATOM     24  N   UNL     1      49.198   6.317  18.205  0.00  0.00    +0.000 N 
ATOM     25  C   UNL     1      49.880   5.337  19.057  0.00  0.00    +0.000 C 
ATOM     26  C   UNL     1      48.848   4.320  19.605  0.00  0.00    +0.000 C 
ATOM     27  N   UNL     1      47.678   4.938  20.269  0.00  0.00    +0.000 NA
ATOM     28  C   UNL     1      47.056   5.905  19.334  0.00  0.00    +0.000 C 
ATOM     29  C   UNL     1      48.042   6.977  18.824  0.00  0.00    +0.000 C 
ATOM     30  H   UNL     1      48.019   5.461  21.074  0.00  0.00    +0.000 HD
ENDBRANCH  22  24
ENDBRANCH  17  18
ENDBRANCH   1  17
TORSDOF 7
ENDMDL
MODEL 8
REMARK VINA RESULT:    -6.462      4.014      7.872
REMARK INTER + INTRA:          -9.496
REMARK INTER:                  -8.590
REMARK INTRA:                  -0.906
REMARK UNBOUND:                -0.390
REMARK  Name = 
REMARK  8 active torsions:
REMARK  status: ('A' for Active; 'I' for Inactive)
REMARK    1  A    between atoms: C_1  and  C_2
REMARK    2  A    between atoms: C_2  and  O_3
REMARK    3  A    between atoms: O_3  and  C_4
REMARK    4  A    between atoms: C_6  and  C_7
REMARK    5  A    between atoms: C_12  and  N_13
REMARK    6  A    between atoms: N_13  and  C_14
REMARK    7  A    between atoms: C_14  and  C_15
REMARK    8  A    between atoms: C_19  and  N_20
REMARK                            x       y       z     vdW  Elec       q    Type
REMARK                         _______ _______ _______ _____ _____    ______ ____
ROOT
ATOM      1  N   UNL     1      48.360   6.906  15.450  0.00  0.00    +0.000 N 
ATOM      2  H   UNL     1      47.760   7.589  15.889  0.00  0.00    +0.000 HD
ENDROOT
BRANCH   1   8
ATOM      3  C   UNL     1      48.890   5.207  17.123  0.00  0.00    +0.000 A 
ATOM      4  C   UNL     1      49.893   4.536  17.832  0.00  0.00    +0.000 A 
ATOM      5  C   UNL     1      51.234   4.858  17.652  0.00  0.00    +0.000 A 
ATOM      6  C   UNL     1      51.524   5.869  16.766  0.00  0.00    +0.000 A 
ATOM      7  N   UNL     1      50.582   6.559  16.082  0.00  0.00    +0.000 NA
ATOM      8  C   UNL     1      49.277   6.243  16.245  0.00  0.00    +0.000 A 
BRANCH   5   9
ATOM      9  C   UNL     1      52.249   4.079  18.402  0.00  0.00    +0.000 C 
ATOM     10  N   UNL     1      52.149   4.002  19.768  0.00  0.00    +0.000 N 
ATOM     11  O   UNL     1      53.166   3.511  17.828  0.00  0.00    +0.000 OA
ATOM     12  H   UNL     1      51.447   4.432  20.339  0.00  0.00    +0.000 HD
ATOM     13  H   UNL     1      52.875   3.471  20.229  0.00  0.00    +0.000 HD
ENDBRANCH   5   9
BRANCH   3  14
ATOM     14  O   UNL     1      47.550   4.888  17.244  0.00  0.00    +0.000 OA
BRANCH  14  16
ATOM     15  C   UNL     1      47.370   3.420  15.329  0.00  0.00    +0.000 C 
ATOM     16  C   UNL     1      47.204   3.560  16.825  0.00  0.00    +0.000 C 
ENDBRANCH  14  16
ENDBRANCH   3  14
ENDBRANCH   1   8
BRANCH   1  17
ATOM     17  C   UNL     1      48.515   6.924  14.007  0.00  0.00    +0.000 C 
BRANCH  17  18
ATOM     18  C   UNL     1      47.187   7.158  13.325  0.00  0.00    +0.000 A 
ATOM     19  C   UNL     1      46.736   8.449  13.045  0.00  0.00    +0.000 A 
ATOM     20  C   UNL     1      45.568   8.632  12.309  0.00  0.00    +0.000 A 
ATOM     21  C   UNL     1      44.845   7.528  11.853  0.00  0.00    +0.000 A 
ATOM     22  C   UNL     1      45.253   6.216  12.123  0.00  0.00    +0.000 A 
ATOM     23  C   UNL     1      46.429   6.062  12.874  0.00  0.00    +0.000 A 
BRANCH  22  24
ATOM     24  N   UNL     1      44.531   5.124  11.692  0.00  0.00    +0.000 N 
ATOM     25  C   UNL     1      43.495   4.492  12.515  0.00  0.00    +0.000 C 
ATOM     26  C   UNL     1      43.597   2.952  12.384  0.00  0.00    +0.000 C 
ATOM     27  N   UNL     1      43.599   2.458  10.989  0.00  0.00    +0.000 NA
ATOM     28  C   UNL     1      44.676   3.147  10.241  0.00  0.00    +0.000 C 
ATOM     29  C   UNL     1      44.563   4.685  10.291  0.00  0.00    +0.000 C 
ATOM     30  H   UNL     1      42.710   2.722  10.566  0.00  0.00    +0.000 HD
ENDBRANCH  22  24
ENDBRANCH  17  18
ENDBRANCH   1  17
TORSDOF 7
ENDMDL
MODEL 9
REMARK VINA RESULT:    -6.421      3.453      5.739
REMARK INTER + INTRA:          -9.438
REMARK INTER:                  -8.293
REMARK INTRA:                  -1.145
REMARK UNBOUND:                -0.390
REMARK  Name = 
REMARK  8 active torsions:
REMARK  status: ('A' for Active; 'I' for Inactive)
REMARK    1  A    between atoms: C_1  and  C_2
REMARK    2  A    between atoms: C_2  and  O_3
REMARK    3  A    between atoms: O_3  and  C_4
REMARK    4  A    between atoms: C_6  and  C_7
REMARK    5  A    between atoms: C_12  and  N_13
REMARK    6  A    between atoms: N_13  and  C_14
REMARK    7  A    between atoms: C_14  and  C_15
REMARK    8  A    between atoms: C_19  and  N_20
REMARK                            x       y       z     vdW  Elec       q    Type
REMARK                         _______ _______ _______ _____ _____    ______ ____
ROOT
ATOM      1  N   UNL     1      48.427   6.531  13.143  0.00  0.00    +0.000 N 
ATOM      2  H   UNL     1      49.214   5.954  12.886  0.00  0.00    +0.000 HD
ENDROOT
BRANCH   1   8
ATOM      3  C   UNL     1      46.594   4.920  13.250  0.00  0.00    +0.000 A 
ATOM      4  C   UNL     1      45.282   4.614  12.872  0.00  0.00    +0.000 A 
ATOM      5  C   UNL     1      44.549   5.477  12.064  0.00  0.00    +0.000 A 
ATOM      6  C   UNL     1      45.177   6.627  11.644  0.00  0.00    +0.000 A 
ATOM      7  N   UNL     1      46.452   6.946  11.966  0.00  0.00    +0.000 NA
ATOM      8  C   UNL     1      47.165   6.114  12.759  0.00  0.00    +0.000 A 
BRANCH   5   9
ATOM      9  C   UNL     1      43.150   5.114  11.737  0.00  0.00    +0.000 C 
ATOM     10  N   UNL     1      42.177   6.077  11.821  0.00  0.00    +0.000 N 
ATOM     11  O   UNL     1      42.851   3.978  11.398  0.00  0.00    +0.000 OA
ATOM     12  H   UNL     1      42.308   7.032  12.094  0.00  0.00    +0.000 HD
ATOM     13  H   UNL     1      41.240   5.770  11.601  0.00  0.00    +0.000 HD
ENDBRANCH   5   9
BRANCH   3  14
ATOM     14  O   UNL     1      47.339   4.107  14.084  0.00  0.00    +0.000 OA
BRANCH  14  16
ATOM     15  C   UNL     1      47.828   3.225  16.284  0.00  0.00    +0.000 C 
ATOM     16  C   UNL     1      47.021   4.217  15.479  0.00  0.00    +0.000 C 
ENDBRANCH  14  16
ENDBRANCH   3  14
ENDBRANCH   1   8
BRANCH   1  17
ATOM     17  C   UNL     1      48.658   7.908  13.537  0.00  0.00    +0.000 C 
BRANCH  17  18
ATOM     18  C   UNL     1      48.718   8.036  15.041  0.00  0.00    +0.000 A 
ATOM     19  C   UNL     1      48.197   9.156  15.693  0.00  0.00    +0.000 A 
ATOM     20  C   UNL     1      48.157   9.194  17.083  0.00  0.00    +0.000 A 
ATOM     21  C   UNL     1      48.637   8.115  17.830  0.00  0.00    +0.000 A 
ATOM     22  C   UNL     1      49.180   6.978  17.219  0.00  0.00    +0.000 A 
ATOM     23  C   UNL     1      49.216   6.972  15.815  0.00  0.00    +0.000 A 
BRANCH  22  24
ATOM     24  N   UNL     1      49.674   5.921  17.951  0.00  0.00    +0.000 N 
ATOM     25  C   UNL     1      48.966   5.369  19.111  0.00  0.00    +0.000 C 
ATOM     26  C   UNL     1      49.983   5.049  20.235  0.00  0.00    +0.000 C 
ATOM     27  N   UNL     1      51.120   4.204  19.804  0.00  0.00    +0.000 NA
ATOM     28  C   UNL     1      51.771   4.842  18.636  0.00  0.00    +0.000 C 
ATOM     29  C   UNL     1      50.798   5.110  17.469  0.00  0.00    +0.000 C 
ATOM     30  H   UNL     1      50.742   3.309  19.497  0.00  0.00    +0.000 HD
ENDBRANCH  22  24
ENDBRANCH  17  18
ENDBRANCH   1  17
TORSDOF 7
ENDMDL
