MODEL 1
REMARK VINA RESULT:    -7.357      0.000      0.000
REMARK INTER + INTRA:          -9.379
REMARK INTER:                  -8.647
REMARK INTRA:                  -0.732
REMARK UNBOUND:                -0.732
REMARK  Name = 
REMARK  3 active torsions:
REMARK  status: ('A' for Active; 'I' for Inactive)
REMARK    1  A    between atoms: N_7  and  C_8
REMARK    2  A    between atoms: C_8  and  C_9
REMARK    3  A    between atoms: C_13  and  C_14
REMARK                            x       y       z     vdW  Elec       q    Type
REMARK                         _______ _______ _______ _____ _____    ______ ____
ROOT
ATOM      1  C   UNL     1      44.392   4.013  11.177  0.00  0.00    +0.000 C 
ATOM      2  C   UNL     1      42.960   3.882  11.697  0.00  0.00    +0.000 C 
ATOM      3  C   UNL     1      43.276   4.895  10.649  0.00  0.00    +0.000 C 
ENDROOT
BRANCH   1  10
ATOM      4 CL   UNL     1      47.075   0.362   6.575  0.00  0.00    +0.000 Cl
ATOM      5  C   UNL     1      46.601   1.819   7.360  0.00  0.00    +0.000 A 
ATOM      6  C   UNL     1      46.851   3.039   6.759  0.00  0.00    +0.000 A 
ATOM      7  C   UNL     1      46.435   4.168   7.437  0.00  0.00    +0.000 A 
ATOM      8  N   UNL     1      45.803   4.144   8.633  0.00  0.00    +0.000 NA
ATOM      9  C   UNL     1      45.584   2.945   9.214  0.00  0.00    +0.000 A 
ATOM     10  N   UNL     1      44.890   2.831  10.446  0.00  0.00    +0.000 N 
ATOM     11  C   UNL     1      45.964   1.764   8.592  0.00  0.00    +0.000 A 
ATOM     12  H   UNL     1      45.393   2.179  11.044  0.00  0.00    +0.000 HD
ENDBRANCH   1  10
BRANCH   1  13
ATOM     13  C   UNL     1      45.416   4.685  12.084  0.00  0.00    +0.000 A 
ATOM     14  C   UNL     1      46.081   3.961  13.084  0.00  0.00    +0.000 A 
ATOM     15  C   UNL     1      47.116   4.530  13.820  0.00  0.00    +0.000 A 
ATOM     16  C   UNL     1      47.516   5.840  13.556  0.00  0.00    +0.000 A 
ATOM     17  C   UNL     1      46.879   6.614  12.571  0.00  0.00    +0.000 A 
ATOM     18  C   UNL     1      45.801   6.027  11.887  0.00  0.00    +0.000 A 
BRANCH  17  19
ATOM     19  C   UNL     1      47.387   7.951  12.190  0.00  0.00    +0.000 A 
ATOM     20  C   UNL     1      46.566   9.084  12.298  0.00  0.00    +0.000 A 
ATOM     21  C   UNL     1      47.078  10.332  11.989  0.00  0.00    +0.000 A 
ATOM     22  N   UNL     1      48.348  10.543  11.586  0.00  0.00    +0.000 NA
ATOM     23  C   UNL     1      49.134   9.453  11.491  0.00  0.00    +0.000 A 
ATOM     24  C   UNL     1      48.708   8.161  11.772  0.00  0.00    +0.000 A 
ENDBRANCH  17  19
ENDBRANCH   1  13
TORSDOF 3
ENDMDL
MODEL 2
REMARK VINA RESULT:    -7.222      2.231      3.753
REMARK INTER + INTRA:          -9.220
REMARK INTER:                  -8.657
REMARK INTRA:                  -0.563
REMARK UNBOUND:                -0.732
REMARK  Name = 
REMARK  3 active torsions:
REMARK  status: ('A' for Active; 'I' for Inactive)
REMARK    1  A    between atoms: N_7  and  C_8
REMARK    2  A    between atoms: C_8  and  C_9
REMARK    3  A    between atoms: C_13  and  C_14
REMARK                            x       y       z     vdW  Elec       q    Type
REMARK                         _______ _______ _______ _____ _____    ______ ____
ROOT
ATOM      1  C   UNL     1      44.497   3.899  11.374  0.00  0.00    +0.000 C 
ATOM      2  C   UNL     1      43.226   3.603  12.169  0.00  0.00    +0.000 C 
ATOM      3  C   UNL     1      43.183   4.584  11.047  0.00  0.00    +0.000 C 
ENDROOT
BRANCH   1  10
ATOM      4 CL   UNL     1      47.041   0.446   6.546  0.00  0.00    +0.000 Cl
ATOM      5  C   UNL     1      46.530   1.865   7.374  0.00  0.00    +0.000 A 
ATOM      6  C   UNL     1      46.640   3.100   6.760  0.00  0.00    +0.000 A 
ATOM      7  C   UNL     1      46.201   4.196   7.476  0.00  0.00    +0.000 A 
ATOM      8  N   UNL     1      45.676   4.128   8.720  0.00  0.00    +0.000 NA
ATOM      9  C   UNL     1      45.594   2.917   9.312  0.00  0.00    +0.000 A 
ATOM     10  N   UNL     1      45.016   2.756  10.598  0.00  0.00    +0.000 N 
ATOM     11  C   UNL     1      46.005   1.767   8.655  0.00  0.00    +0.000 A 
ATOM     12  H   UNL     1      45.614   2.143  11.148  0.00  0.00    +0.000 HD
ENDBRANCH   1  10
BRANCH   1  13
ATOM     13  C   UNL     1      45.564   4.762  12.037  0.00  0.00    +0.000 A 
ATOM     14  C   UNL     1      45.842   6.054  11.567  0.00  0.00    +0.000 A 
ATOM     15  C   UNL     1      46.712   6.897  12.252  0.00  0.00    +0.000 A 
ATOM     16  C   UNL     1      47.312   6.465  13.434  0.00  0.00    +0.000 A 
ATOM     17  C   UNL     1      47.076   5.178  13.945  0.00  0.00    +0.000 A 
ATOM     18  C   UNL     1      46.237   4.332  13.198  0.00  0.00    +0.000 A 
BRANCH  17  19
ATOM     19  C   UNL     1      47.596   4.762  15.267  0.00  0.00    +0.000 A 
ATOM     20  C   UNL     1      48.306   5.668  16.071  0.00  0.00    +0.000 A 
ATOM     21  C   UNL     1      48.735   5.276  17.327  0.00  0.00    +0.000 A 
ATOM     22  N   UNL     1      48.509   4.054  17.849  0.00  0.00    +0.000 NA
ATOM     23  C   UNL     1      47.822   3.191  17.075  0.00  0.00    +0.000 A 
ATOM     24  C   UNL     1      47.357   3.489  15.801  0.00  0.00    +0.000 A 
ENDBRANCH  17  19
ENDBRANCH   1  13
TORSDOF 3
ENDMDL
MODEL 3
REMARK VINA RESULT:    -6.673      1.642      2.170
REMARK INTER + INTRA:          -8.575
REMARK INTER:                  -8.912
REMARK INTRA:                   0.337
REMARK UNBOUND:                -0.732
REMARK  Name = 
REMARK  3 active torsions:
REMARK  status: ('A' for Active; 'I' for Inactive)
REMARK    1  A    between atoms: N_7  and  C_8
REMARK    2  A    between atoms: C_8  and  C_9
REMARK    3  A    between atoms: C_13  and  C_14
REMARK                            x       y       z     vdW  Elec       q    Type
REMARK                         _______ _______ _______ _____ _____    ______ ____
ROOT
ATOM      1  C   UNL     1      44.381   5.581  11.019  0.00  0.00    +0.000 C 
ATOM      2  C   UNL     1      43.085   4.798  11.223  0.00  0.00    +0.000 C 
ATOM      3  C   UNL     1      43.066   6.288  11.292  0.00  0.00    +0.000 C 
ENDROOT
BRANCH   1  10
ATOM      4 CL   UNL     1      46.952   3.035   5.670  0.00  0.00    +0.000 Cl
ATOM      5  C   UNL     1      46.222   3.030   7.228  0.00  0.00    +0.000 A 
ATOM      6  C   UNL     1      46.009   1.832   7.886  0.00  0.00    +0.000 A 
ATOM      7  C   UNL     1      45.429   1.900   9.138  0.00  0.00    +0.000 A 
ATOM      8  N   UNL     1      45.071   3.054   9.745  0.00  0.00    +0.000 NA
ATOM      9  C   UNL     1      45.269   4.213   9.081  0.00  0.00    +0.000 A 
ATOM     10  N   UNL     1      44.960   5.468   9.666  0.00  0.00    +0.000 N 
ATOM     11  C   UNL     1      45.854   4.229   7.823  0.00  0.00    +0.000 A 
ATOM     12  H   UNL     1      44.471   6.036   8.977  0.00  0.00    +0.000 HD
ENDBRANCH   1  10
BRANCH   1  13
ATOM     13  C   UNL     1      45.398   5.579  12.154  0.00  0.00    +0.000 A 
ATOM     14  C   UNL     1      45.322   4.636  13.189  0.00  0.00    +0.000 A 
ATOM     15  C   UNL     1      46.324   4.538  14.150  0.00  0.00    +0.000 A 
ATOM     16  C   UNL     1      47.434   5.380  14.084  0.00  0.00    +0.000 A 
ATOM     17  C   UNL     1      47.557   6.349  13.074  0.00  0.00    +0.000 A 
ATOM     18  C   UNL     1      46.499   6.459  12.154  0.00  0.00    +0.000 A 
BRANCH  17  19
ATOM     19  C   UNL     1      48.791   7.149  12.916  0.00  0.00    +0.000 A 
ATOM     20  C   UNL     1      49.586   7.464  14.029  0.00  0.00    +0.000 A 
ATOM     21  C   UNL     1      50.766   8.166  13.851  0.00  0.00    +0.000 A 
ATOM     22  N   UNL     1      51.222   8.573  12.650  0.00  0.00    +0.000 NA
ATOM     23  C   UNL     1      50.459   8.262  11.583  0.00  0.00    +0.000 A 
ATOM     24  C   UNL     1      49.258   7.570  11.663  0.00  0.00    +0.000 A 
ENDBRANCH  17  19
ENDBRANCH   1  13
TORSDOF 3
ENDMDL
MODEL 4
REMARK VINA RESULT:    -6.570      2.945      6.656
REMARK INTER + INTRA:          -8.454
REMARK INTER:                  -7.898
REMARK INTRA:                  -0.555
REMARK UNBOUND:                -0.732
REMARK  Name = 
REMARK  3 active torsions:
REMARK  status: ('A' for Active; 'I' for Inactive)
REMARK    1  A    between atoms: N_7  and  C_8
REMARK    2  A    between atoms: C_8  and  C_9
REMARK    3  A    between atoms: C_13  and  C_14
REMARK                            x       y       z     vdW  Elec       q    Type
REMARK                         _______ _______ _______ _____ _____    ______ ____
ROOT
ATOM      1  C   UNL     1      44.323   5.607  11.383  0.00  0.00    +0.000 C 
ATOM      2  C   UNL     1      42.964   6.299  11.282  0.00  0.00    +0.000 C 
ATOM      3  C   UNL     1      43.422   5.758  12.594  0.00  0.00    +0.000 C 
ENDROOT
BRANCH   1  10
ATOM      4 CL   UNL     1      49.943   8.683  12.194  0.00  0.00    +0.000 Cl
ATOM      5  C   UNL     1      48.685   7.568  12.564  0.00  0.00    +0.000 A 
ATOM      6  C   UNL     1      48.755   6.806  13.716  0.00  0.00    +0.000 A 
ATOM      7  C   UNL     1      47.707   5.940  13.958  0.00  0.00    +0.000 A 
ATOM      8  N   UNL     1      46.634   5.803  13.145  0.00  0.00    +0.000 NA
ATOM      9  C   UNL     1      46.591   6.541  12.016  0.00  0.00    +0.000 A 
ATOM     10  N   UNL     1      45.481   6.488  11.134  0.00  0.00    +0.000 N 
ATOM     11  C   UNL     1      47.601   7.441  11.706  0.00  0.00    +0.000 A 
ATOM     12  H   UNL     1      45.827   6.426  10.179  0.00  0.00    +0.000 HD
ENDBRANCH   1  10
BRANCH   1  13
ATOM     13  C   UNL     1      44.449   4.203  10.803  0.00  0.00    +0.000 A 
ATOM     14  C   UNL     1      43.617   3.163  11.244  0.00  0.00    +0.000 A 
ATOM     15  C   UNL     1      43.630   1.918  10.622  0.00  0.00    +0.000 A 
ATOM     16  C   UNL     1      44.472   1.694   9.534  0.00  0.00    +0.000 A 
ATOM     17  C   UNL     1      45.333   2.697   9.057  0.00  0.00    +0.000 A 
ATOM     18  C   UNL     1      45.335   3.924   9.744  0.00  0.00    +0.000 A 
BRANCH  17  19
ATOM     19  C   UNL     1      46.124   2.513   7.820  0.00  0.00    +0.000 A 
ATOM     20  C   UNL     1      46.812   1.313   7.584  0.00  0.00    +0.000 A 
ATOM     21  C   UNL     1      47.501   1.141   6.396  0.00  0.00    +0.000 A 
ATOM     22  N   UNL     1      47.554   2.069   5.419  0.00  0.00    +0.000 NA
ATOM     23  C   UNL     1      46.886   3.217   5.648  0.00  0.00    +0.000 A 
ATOM     24  C   UNL     1      46.175   3.484   6.810  0.00  0.00    +0.000 A 
ENDBRANCH  17  19
ENDBRANCH   1  13
TORSDOF 3
ENDMDL
MODEL 5
REMARK VINA RESULT:    -6.354      5.401      8.372
REMARK INTER + INTRA:          -8.199
REMARK INTER:                  -7.669
REMARK INTRA:                  -0.531
REMARK UNBOUND:                -0.732
REMARK  Name = 
REMARK  3 active torsions:
REMARK  status: ('A' for Active; 'I' for Inactive)
REMARK    1  A    between atoms: N_7  and  C_8
REMARK    2  A    between atoms: C_8  and  C_9
REMARK    3  A    between atoms: C_13  and  C_14
REMARK                            x       y       z     vdW  Elec       q    Type
REMARK                         _______ _______ _______ _____ _____    ______ ____
ROOT
ATOM      1  C   UNL     1      43.738  10.671  10.847  0.00  0.00    +0.000 C 
ATOM      2  C   UNL     1      44.476  11.584   9.869  0.00  0.00    +0.000 C 
ATOM      3  C   UNL     1      43.471  10.609   9.355  0.00  0.00    +0.000 C 
ENDROOT
BRANCH   1  10
ATOM      4 CL   UNL     1      38.390  12.607  13.905  0.00  0.00    +0.000 Cl
ATOM      5  C   UNL     1      39.332  11.674  12.808  0.00  0.00    +0.000 A 
ATOM      6  C   UNL     1      38.717  10.744  11.990  0.00  0.00    +0.000 A 
ATOM      7  C   UNL     1      39.530  10.038  11.124  0.00  0.00    +0.000 A 
ATOM      8  N   UNL     1      40.868  10.207  11.034  0.00  0.00    +0.000 NA
ATOM      9  C   UNL     1      41.454  11.107  11.853  0.00  0.00    +0.000 A 
ATOM     10  N   UNL     1      42.846  11.374  11.790  0.00  0.00    +0.000 N 
ATOM     11  C   UNL     1      40.705  11.862  12.744  0.00  0.00    +0.000 A 
ATOM     12  H   UNL     1      43.215  11.402  12.738  0.00  0.00    +0.000 HD
ENDBRANCH   1  10
BRANCH   1  13
ATOM     13  C   UNL     1      44.510   9.501  11.447  0.00  0.00    +0.000 A 
ATOM     14  C   UNL     1      45.456   9.705  12.463  0.00  0.00    +0.000 A 
ATOM     15  C   UNL     1      46.060   8.632  13.111  0.00  0.00    +0.000 A 
ATOM     16  C   UNL     1      45.717   7.327  12.760  0.00  0.00    +0.000 A 
ATOM     17  C   UNL     1      44.783   7.064  11.744  0.00  0.00    +0.000 A 
ATOM     18  C   UNL     1      44.234   8.171  11.072  0.00  0.00    +0.000 A 
BRANCH  17  19
ATOM     19  C   UNL     1      44.310   5.691  11.463  0.00  0.00    +0.000 A 
ATOM     20  C   UNL     1      44.708   5.025  10.292  0.00  0.00    +0.000 A 
ATOM     21  C   UNL     1      44.299   3.720  10.076  0.00  0.00    +0.000 A 
ATOM     22  N   UNL     1      43.531   3.022  10.936  0.00  0.00    +0.000 NA
ATOM     23  C   UNL     1      43.159   3.664  12.061  0.00  0.00    +0.000 A 
ATOM     24  C   UNL     1      43.511   4.973  12.362  0.00  0.00    +0.000 A 
ENDBRANCH  17  19
ENDBRANCH   1  13
TORSDOF 3
ENDMDL
MODEL 6
REMARK VINA RESULT:    -6.167      5.212      8.028
REMARK INTER + INTRA:          -7.980
REMARK INTER:                  -7.592
REMARK INTRA:                  -0.388
REMARK UNBOUND:                -0.732
REMARK  Name = 
REMARK  3 active torsions:
REMARK  status: ('A' for Active; 'I' for Inactive)
REMARK    1  A    between atoms: N_7  and  C_8
REMARK    2  A    between atoms: C_8  and  C_9
REMARK    3  A    between atoms: C_13  and  C_14
REMARK                            x       y       z     vdW  Elec       q    Type
REMARK                         _______ _______ _______ _____ _____    ______ ____
ROOT
ATOM      1  C   UNL     1      48.266   4.741  17.089  0.00  0.00    +0.000 C 
ATOM      2  C   UNL     1      47.158   4.866  18.135  0.00  0.00    +0.000 C 
ATOM      3  C   UNL     1      47.315   3.593  17.373  0.00  0.00    +0.000 C 
ENDROOT
BRANCH   1  10
ATOM      4 CL   UNL     1      54.190   2.934  18.917  0.00  0.00    +0.000 Cl
ATOM      5  C   UNL     1      52.641   2.761  18.188  0.00  0.00    +0.000 A 
ATOM      6  C   UNL     1      52.274   1.552  17.626  0.00  0.00    +0.000 A 
ATOM      7  C   UNL     1      51.012   1.478  17.068  0.00  0.00    +0.000 A 
ATOM      8  N   UNL     1      50.133   2.505  17.046  0.00  0.00    +0.000 NA
ATOM      9  C   UNL     1      50.515   3.684  17.581  0.00  0.00    +0.000 A 
ATOM     10  N   UNL     1      49.636   4.796  17.636  0.00  0.00    +0.000 N 
ATOM     11  C   UNL     1      51.763   3.836  18.169  0.00  0.00    +0.000 A 
ATOM     12  H   UNL     1      50.145   5.628  17.344  0.00  0.00    +0.000 HD
ENDBRANCH   1  10
BRANCH   1  13
ATOM     13  C   UNL     1      48.075   5.468  15.763  0.00  0.00    +0.000 A 
ATOM     14  C   UNL     1      48.932   6.511  15.382  0.00  0.00    +0.000 A 
ATOM     15  C   UNL     1      48.851   7.083  14.115  0.00  0.00    +0.000 A 
ATOM     16  C   UNL     1      47.914   6.609  13.198  0.00  0.00    +0.000 A 
ATOM     17  C   UNL     1      47.025   5.573  13.530  0.00  0.00    +0.000 A 
ATOM     18  C   UNL     1      47.096   5.057  14.836  0.00  0.00    +0.000 A 
BRANCH  17  19
ATOM     19  C   UNL     1      46.126   4.972  12.520  0.00  0.00    +0.000 A 
ATOM     20  C   UNL     1      45.569   3.700  12.727  0.00  0.00    +0.000 A 
ATOM     21  C   UNL     1      44.687   3.180  11.796  0.00  0.00    +0.000 A 
ATOM     22  N   UNL     1      44.309   3.829  10.677  0.00  0.00    +0.000 NA
ATOM     23  C   UNL     1      44.841   5.053  10.487  0.00  0.00    +0.000 A 
ATOM     24  C   UNL     1      45.739   5.654  11.358  0.00  0.00    +0.000 A 
ENDBRANCH  17  19
ENDBRANCH   1  13
TORSDOF 3
ENDMDL
MODEL 7
REMARK VINA RESULT:    -6.062      3.798      7.804
REMARK INTER + INTRA:          -7.857
REMARK INTER:                  -7.180
REMARK INTRA:                  -0.676
REMARK UNBOUND:                -0.732
REMARK  Name = 
REMARK  3 active torsions:
REMARK  status: ('A' for Active; 'I' for Inactive)
REMARK    1  A    between atoms: N_7  and  C_8
REMARK    2  A    between atoms: C_8  and  C_9
REMARK    3  A    between atoms: C_13  and  C_14
REMARK                            x       y       z     vdW  Elec       q    Type
REMARK                         _______ _______ _______ _____ _____    ______ ____
ROOT
ATOM      1  C   UNL     1      49.072   7.737  12.627  0.00  0.00    +0.000 C 
ATOM      2  C   UNL     1      49.989   7.672  11.406  0.00  0.00    +0.000 C 
ATOM      3  C   UNL     1      49.806   8.966  12.123  0.00  0.00    +0.000 C 
ENDROOT
BRANCH   1  10
ATOM      4 CL   UNL     1      50.281   5.970  18.719  0.00  0.00    +0.000 Cl
ATOM      5  C   UNL     1      49.633   6.943  17.456  0.00  0.00    +0.000 A 
ATOM      6  C   UNL     1      48.945   8.103  17.762  0.00  0.00    +0.000 A 
ATOM      7  C   UNL     1      48.462   8.842  16.700  0.00  0.00    +0.000 A 
ATOM      8  N   UNL     1      48.626   8.501  15.402  0.00  0.00    +0.000 NA
ATOM      9  C   UNL     1      49.284   7.356  15.122  0.00  0.00    +0.000 A 
ATOM     10  N   UNL     1      49.535   6.950  13.786  0.00  0.00    +0.000 N 
ATOM     11  C   UNL     1      49.808   6.562  16.132  0.00  0.00    +0.000 A 
ATOM     12  H   UNL     1      49.321   5.958  13.702  0.00  0.00    +0.000 HD
ENDBRANCH   1  10
BRANCH   1  13
ATOM     13  C   UNL     1      47.567   7.700  12.386  0.00  0.00    +0.000 A 
ATOM     14  C   UNL     1      46.831   8.884  12.237  0.00  0.00    +0.000 A 
ATOM     15  C   UNL     1      45.486   8.857  11.878  0.00  0.00    +0.000 A 
ATOM     16  C   UNL     1      44.855   7.635  11.647  0.00  0.00    +0.000 A 
ATOM     17  C   UNL     1      45.542   6.418  11.791  0.00  0.00    +0.000 A 
ATOM     18  C   UNL     1      46.882   6.481  12.210  0.00  0.00    +0.000 A 
BRANCH  17  19
ATOM     19  C   UNL     1      44.920   5.130  11.414  0.00  0.00    +0.000 A 
ATOM     20  C   UNL     1      44.152   4.409  12.341  0.00  0.00    +0.000 A 
ATOM     21  C   UNL     1      43.533   3.234  11.951  0.00  0.00    +0.000 A 
ATOM     22  N   UNL     1      43.614   2.721  10.707  0.00  0.00    +0.000 NA
ATOM     23  C   UNL     1      44.347   3.420   9.819  0.00  0.00    +0.000 A 
ATOM     24  C   UNL     1      45.010   4.603  10.118  0.00  0.00    +0.000 A 
ENDBRANCH  17  19
ENDBRANCH   1  13
TORSDOF 3
ENDMDL
MODEL 8
REMARK VINA RESULT:    -5.584      4.251      6.613
REMARK INTER + INTRA:          -7.295
REMARK INTER:                  -6.615
REMARK INTRA:                  -0.680
REMARK UNBOUND:                -0.732
REMARK  Name = 
REMARK  3 active torsions:
REMARK  status: ('A' for Active; 'I' for Inactive)
REMARK    1  A    between atoms: N_7  and  C_8
REMARK    2  A    between atoms: C_8  and  C_9
REMARK    3  A    between atoms: C_13  and  C_14
REMARK                            x       y       z     vdW  Elec       q    Type
REMARK                         _______ _______ _______ _____ _____    ______ ____
ROOT
ATOM      1  C   UNL     1      48.278   8.070  12.728  0.00  0.00    +0.000 C 
ATOM      2  C   UNL     1      49.042   8.988  11.774  0.00  0.00    +0.000 C 
ATOM      3  C   UNL     1      49.363   7.532  11.813  0.00  0.00    +0.000 C 
ENDROOT
BRANCH   1  10
ATOM      4 CL   UNL     1      42.406   5.474  12.024  0.00  0.00    +0.000 Cl
ATOM      5  C   UNL     1      44.065   5.528  12.478  0.00  0.00    +0.000 A 
ATOM      6  C   UNL     1      44.672   4.404  13.009  0.00  0.00    +0.000 A 
ATOM      7  C   UNL     1      46.009   4.512  13.341  0.00  0.00    +0.000 A 
ATOM      8  N   UNL     1      46.742   5.635  13.174  0.00  0.00    +0.000 NA
ATOM      9  C   UNL     1      46.130   6.729  12.672  0.00  0.00    +0.000 A 
ATOM     10  N   UNL     1      46.839   7.932  12.426  0.00  0.00    +0.000 N 
ATOM     11  C   UNL     1      44.792   6.698  12.306  0.00  0.00    +0.000 A 
ATOM     12  H   UNL     1      46.286   8.713  12.773  0.00  0.00    +0.000 HD
ENDBRANCH   1  10
BRANCH   1  13
ATOM     13  C   UNL     1      48.618   8.146  14.211  0.00  0.00    +0.000 A 
ATOM     14  C   UNL     1      48.099   9.169  15.019  0.00  0.00    +0.000 A 
ATOM     15  C   UNL     1      48.289   9.166  16.397  0.00  0.00    +0.000 A 
ATOM     16  C   UNL     1      48.996   8.125  16.998  0.00  0.00    +0.000 A 
ATOM     17  C   UNL     1      49.546   7.080  16.236  0.00  0.00    +0.000 A 
ATOM     18  C   UNL     1      49.383   7.145  14.841  0.00  0.00    +0.000 A 
BRANCH  17  19
ATOM     19  C   UNL     1      50.174   5.903  16.877  0.00  0.00    +0.000 A 
ATOM     20  C   UNL     1      49.389   4.825  17.314  0.00  0.00    +0.000 A 
ATOM     21  C   UNL     1      50.002   3.710  17.860  0.00  0.00    +0.000 A 
ATOM     22  N   UNL     1      51.337   3.581  18.000  0.00  0.00    +0.000 NA
ATOM     23  C   UNL     1      52.086   4.616  17.571  0.00  0.00    +0.000 A 
ATOM     24  C   UNL     1      51.563   5.777  17.019  0.00  0.00    +0.000 A 
ENDBRANCH  17  19
ENDBRANCH   1  13
TORSDOF 3
ENDMDL
MODEL 9
REMARK VINA RESULT:    -5.502      4.686      7.785
REMARK INTER + INTRA:          -7.199
REMARK INTER:                  -6.568
REMARK INTRA:                  -0.631
REMARK UNBOUND:                -0.732
REMARK  Name = 
REMARK  3 active torsions:
REMARK  status: ('A' for Active; 'I' for Inactive)
REMARK    1  A    between atoms: N_7  and  C_8
REMARK    2  A    between atoms: C_8  and  C_9
REMARK    3  A    between atoms: C_13  and  C_14
REMARK                            x       y       z     vdW  Elec       q    Type
REMARK                         _______ _______ _______ _____ _____    ______ ____
ROOT
ATOM      1  C   UNL     1      48.816   9.044  15.877  0.00  0.00    +0.000 C 
ATOM      2  C   UNL     1      49.541  10.353  16.186  0.00  0.00    +0.000 C 
ATOM      3  C   UNL     1      50.201   9.329  15.326  0.00  0.00    +0.000 C 
ENDROOT
BRANCH   1  10
ATOM      4 CL   UNL     1      44.395   8.156  11.254  0.00  0.00    +0.000 Cl
ATOM      5  C   UNL     1      45.826   7.833  12.153  0.00  0.00    +0.000 A 
ATOM      6  C   UNL     1      46.668   6.807  11.766  0.00  0.00    +0.000 A 
ATOM      7  C   UNL     1      47.806   6.610  12.524  0.00  0.00    +0.000 A 
ATOM      8  N   UNL     1      48.136   7.356  13.603  0.00  0.00    +0.000 NA
ATOM      9  C   UNL     1      47.293   8.342  13.978  0.00  0.00    +0.000 A 
ATOM     10  N   UNL     1      47.589   9.197  15.071  0.00  0.00    +0.000 N 
ATOM     11  C   UNL     1      46.135   8.609  13.263  0.00  0.00    +0.000 A 
ATOM     12  H   UNL     1      46.751   9.297  15.641  0.00  0.00    +0.000 HD
ENDBRANCH   1  10
BRANCH   1  13
ATOM     13  C   UNL     1      48.729   8.002  16.986  0.00  0.00    +0.000 A 
ATOM     14  C   UNL     1      48.001   8.255  18.159  0.00  0.00    +0.000 A 
ATOM     15  C   UNL     1      47.801   7.260  19.111  0.00  0.00    +0.000 A 
ATOM     16  C   UNL     1      48.318   5.982  18.899  0.00  0.00    +0.000 A 
ATOM     17  C   UNL     1      49.062   5.676  17.747  0.00  0.00    +0.000 A 
ATOM     18  C   UNL     1      49.293   6.720  16.834  0.00  0.00    +0.000 A 
BRANCH  17  19
ATOM     19  C   UNL     1      49.493   4.292  17.449  0.00  0.00    +0.000 A 
ATOM     20  C   UNL     1      48.605   3.380  16.858  0.00  0.00    +0.000 A 
ATOM     21  C   UNL     1      49.045   2.108  16.537  0.00  0.00    +0.000 A 
ATOM     22  N   UNL     1      50.303   1.672  16.752  0.00  0.00    +0.000 NA
ATOM     23  C   UNL     1      51.153   2.555  17.314  0.00  0.00    +0.000 A 
ATOM     24  C   UNL     1      50.802   3.848  17.678  0.00  0.00    +0.000 A 
ENDBRANCH  17  19
ENDBRANCH   1  13
TORSDOF 3
ENDMDL
