MODEL 1
REMARK VINA RESULT:    -8.629      0.000      0.000
REMARK INTER + INTRA:         -12.243
REMARK INTER:                 -11.655
REMARK INTRA:                  -0.588
REMARK UNBOUND:                -0.588
REMARK  Name = 
REMARK  6 active torsions:
REMARK  status: ('A' for Active; 'I' for Inactive)
REMARK    1  A    between atoms: C_2  and  C_26
REMARK    2  A    between atoms: N_3  and  C_4
REMARK    3  A    between atoms: C_4  and  C_5
REMARK    4  A    between atoms: C_8  and  C_9
REMARK    5  A    between atoms: C_9  and  N_10
REMARK    6  A    between atoms: C_11  and  C_13
REMARK                            x       y       z     vdW  Elec       q    Type
REMARK                         _______ _______ _______ _____ _____    ______ ____
ROOT
ATOM      1  C   UNL     1      46.261   3.438   7.405  0.00  0.00    +0.000 A 
ATOM      2  C   UNL     1      46.005   4.644   8.072  0.00  0.00    +0.000 A 
ATOM      3  C   UNL     1      45.376   4.649   9.323  0.00  0.00    +0.000 A 
ATOM      4  C   UNL     1      45.008   3.448   9.943  0.00  0.00    +0.000 A 
ATOM      5  C   UNL     1      45.257   2.243   9.272  0.00  0.00    +0.000 A 
ATOM      6  C   UNL     1      45.888   2.237   8.022  0.00  0.00    +0.000 A 
ENDROOT
BRANCH   1   7
ATOM      7  C   UNL     1      46.920   3.438   6.051  0.00  0.00    +0.000 C 
BRANCH   7  10
ATOM      8  O   UNL     1      48.402   1.241   5.261  0.00  0.00    +0.000 OA
ATOM      9  C   UNL     1      47.248   1.335   4.854  0.00  0.00    +0.000 C 
ATOM     10  N   UNL     1      46.421   2.389   5.189  0.00  0.00    +0.000 N 
ATOM     11  H   UNL     1      45.434   2.369   4.973  0.00  0.00    +0.000 HD
BRANCH   9  12
ATOM     12  C   UNL     1      46.693   0.276   3.980  0.00  0.00    +0.000 A 
ATOM     13  C   UNL     1      45.960   0.535   2.821  0.00  0.00    +0.000 A 
ATOM     14  C   UNL     1      45.523  -0.534   2.035  0.00  0.00    +0.000 A 
ATOM     15  C   UNL     1      45.834  -1.824   2.440  0.00  0.00    +0.000 A 
ATOM     16  N   UNL     1      46.539  -2.110   3.554  0.00  0.00    +0.000 NA
ATOM     17  C   UNL     1      46.963  -1.054   4.294  0.00  0.00    +0.000 A 
ENDBRANCH   9  12
ENDBRANCH   7  10
ENDBRANCH   1   7
BRANCH   4  18
ATOM     18  C   UNL     1      44.359   3.453  11.304  0.00  0.00    +0.000 C 
BRANCH  18  19
ATOM     19  N   UNL     1      45.315   3.685  12.363  0.00  0.00    +0.000 N 
ATOM     20  C   UNL     1      45.574   4.969  12.799  0.00  0.00    +0.000 C 
ATOM     21  O   UNL     1      45.033   5.966  12.336  0.00  0.00    +0.000 OA
ATOM     22  H   UNL     1      45.609   2.888  12.913  0.00  0.00    +0.000 HD
BRANCH  20  23
ATOM     23  C   UNL     1      46.545   5.103  13.908  0.00  0.00    +0.000 A 
ATOM     24  C   UNL     1      47.546   6.067  13.834  0.00  0.00    +0.000 A 
ATOM     25  N   UNL     1      48.469   6.284  14.812  0.00  0.00    +0.000 NA
ATOM     26  C   UNL     1      48.406   5.493  15.904  0.00  0.00    +0.000 A 
ATOM     27  N   UNL     1      49.359   5.766  16.893  0.00  0.00    +0.000 NA
ATOM     28  C   UNL     1      49.336   5.037  17.953  0.00  0.00    +0.000 A 
ATOM     29  N   UNL     1      48.449   4.020  18.166  0.00  0.00    +0.000 N 
ATOM     30  C   UNL     1      47.484   3.681  17.255  0.00  0.00    +0.000 A 
ATOM     31  O   UNL     1      46.684   2.773  17.445  0.00  0.00    +0.000 OA
ATOM     32  C   UNL     1      47.456   4.487  16.034  0.00  0.00    +0.000 A 
ATOM     33  C   UNL     1      46.513   4.277  15.029  0.00  0.00    +0.000 A 
ATOM     34  H   UNL     1      48.477   3.478  19.018  0.00  0.00    +0.000 HD
ENDBRANCH  20  23
ENDBRANCH  18  19
ENDBRANCH   4  18
TORSDOF 6
ENDMDL
MODEL 2
REMARK VINA RESULT:    -8.462      2.784      4.612
REMARK INTER + INTRA:         -12.018
REMARK INTER:                 -11.213
REMARK INTRA:                  -0.805
REMARK UNBOUND:                -0.588
REMARK  Name = 
REMARK  6 active torsions:
REMARK  status: ('A' for Active; 'I' for Inactive)
REMARK    1  A    between atoms: C_2  and  C_26
REMARK    2  A    between atoms: N_3  and  C_4
REMARK    3  A    between atoms: C_4  and  C_5
REMARK    4  A    between atoms: C_8  and  C_9
REMARK    5  A    between atoms: C_9  and  N_10
REMARK    6  A    between atoms: C_11  and  C_13
REMARK                            x       y       z     vdW  Elec       q    Type
REMARK                         _______ _______ _______ _____ _____    ______ ____
ROOT
ATOM      1  C   UNL     1      45.141   6.139  11.103  0.00  0.00    +0.000 A 
ATOM      2  C   UNL     1      46.535   6.121  10.965  0.00  0.00    +0.000 A 
ATOM      3  C   UNL     1      47.341   6.960  11.745  0.00  0.00    +0.000 A 
ATOM      4  C   UNL     1      46.772   7.818  12.694  0.00  0.00    +0.000 A 
ATOM      5  C   UNL     1      45.376   7.841  12.826  0.00  0.00    +0.000 A 
ATOM      6  C   UNL     1      44.570   7.002  12.048  0.00  0.00    +0.000 A 
ENDROOT
BRANCH   1   7
ATOM      7  C   UNL     1      44.276   5.250  10.248  0.00  0.00    +0.000 C 
BRANCH   7  10
ATOM      8  O   UNL     1      44.657   2.525   9.964  0.00  0.00    +0.000 OA
ATOM      9  C   UNL     1      45.141   3.267   9.116  0.00  0.00    +0.000 C 
ATOM     10  N   UNL     1      45.009   4.641   9.160  0.00  0.00    +0.000 N 
ATOM     11  H   UNL     1      45.280   5.219   8.376  0.00  0.00    +0.000 HD
BRANCH   9  12
ATOM     12  C   UNL     1      45.889   2.684   7.977  0.00  0.00    +0.000 A 
ATOM     13  C   UNL     1      46.205   3.391   6.816  0.00  0.00    +0.000 A 
ATOM     14  C   UNL     1      46.960   2.768   5.820  0.00  0.00    +0.000 A 
ATOM     15  C   UNL     1      47.370   1.458   6.021  0.00  0.00    +0.000 A 
ATOM     16  N   UNL     1      47.082   0.746   7.131  0.00  0.00    +0.000 NA
ATOM     17  C   UNL     1      46.357   1.378   8.089  0.00  0.00    +0.000 A 
ENDBRANCH   9  12
ENDBRANCH   7  10
ENDBRANCH   1   7
BRANCH   4  18
ATOM     18  C   UNL     1      47.643   8.698  13.555  0.00  0.00    +0.000 C 
BRANCH  18  19
ATOM     19  N   UNL     1      47.791   8.174  14.894  0.00  0.00    +0.000 N 
ATOM     20  C   UNL     1      48.798   7.275  15.182  0.00  0.00    +0.000 C 
ATOM     21  O   UNL     1      49.607   6.872  14.354  0.00  0.00    +0.000 OA
ATOM     22  H   UNL     1      47.295   8.644  15.640  0.00  0.00    +0.000 HD
BRANCH  20  23
ATOM     23  C   UNL     1      48.889   6.819  16.588  0.00  0.00    +0.000 A 
ATOM     24  C   UNL     1      49.243   7.724  17.583  0.00  0.00    +0.000 A 
ATOM     25  N   UNL     1      49.329   7.409  18.905  0.00  0.00    +0.000 NA
ATOM     26  C   UNL     1      49.072   6.129  19.250  0.00  0.00    +0.000 A 
ATOM     27  N   UNL     1      49.150   5.855  20.621  0.00  0.00    +0.000 NA
ATOM     28  C   UNL     1      48.911   4.648  20.997  0.00  0.00    +0.000 A 
ATOM     29  N   UNL     1      48.595   3.628  20.145  0.00  0.00    +0.000 N 
ATOM     30  C   UNL     1      48.497   3.803  18.790  0.00  0.00    +0.000 A 
ATOM     31  O   UNL     1      48.208   2.891  18.025  0.00  0.00    +0.000 OA
ATOM     32  C   UNL     1      48.746   5.162  18.308  0.00  0.00    +0.000 A 
ATOM     33  C   UNL     1      48.656   5.497  16.958  0.00  0.00    +0.000 A 
ATOM     34  H   UNL     1      48.418   2.697  20.495  0.00  0.00    +0.000 HD
ENDBRANCH  20  23
ENDBRANCH  18  19
ENDBRANCH   4  18
TORSDOF 6
ENDMDL
MODEL 3
REMARK VINA RESULT:    -8.394      2.681      4.753
REMARK INTER + INTRA:         -11.926
REMARK INTER:                 -11.608
REMARK INTRA:                  -0.318
REMARK UNBOUND:                -0.588
REMARK  Name = 
REMARK  6 active torsions:
REMARK  status: ('A' for Active; 'I' for Inactive)
REMARK    1  A    between atoms: C_2  and  C_26
REMARK    2  A    between atoms: N_3  and  C_4
REMARK    3  A    between atoms: C_4  and  C_5
REMARK    4  A    between atoms: C_8  and  C_9
REMARK    5  A    between atoms: C_9  and  N_10
REMARK    6  A    between atoms: C_11  and  C_13
REMARK                            x       y       z     vdW  Elec       q    Type
REMARK                         _______ _______ _______ _____ _____    ______ ____
ROOT
ATOM      1  C   UNL     1      45.016   5.003  11.234  0.00  0.00    +0.000 A 
ATOM      2  C   UNL     1      45.672   4.318  12.266  0.00  0.00    +0.000 A 
ATOM      3  C   UNL     1      46.607   4.973  13.077  0.00  0.00    +0.000 A 
ATOM      4  C   UNL     1      46.890   6.332  12.888  0.00  0.00    +0.000 A 
ATOM      5  C   UNL     1      46.239   7.015  11.851  0.00  0.00    +0.000 A 
ATOM      6  C   UNL     1      45.303   6.361  11.040  0.00  0.00    +0.000 A 
ENDROOT
BRANCH   1   7
ATOM      7  C   UNL     1      44.027   4.290  10.351  0.00  0.00    +0.000 C 
BRANCH   7  10
ATOM      8  O   UNL     1      45.680   5.024   8.259  0.00  0.00    +0.000 OA
ATOM      9  C   UNL     1      45.468   3.829   8.434  0.00  0.00    +0.000 C 
ATOM     10  N   UNL     1      44.661   3.353   9.449  0.00  0.00    +0.000 N 
ATOM     11  H   UNL     1      44.622   2.368   9.669  0.00  0.00    +0.000 HD
BRANCH   9  12
ATOM     12  C   UNL     1      46.107   2.834   7.541  0.00  0.00    +0.000 A 
ATOM     13  C   UNL     1      46.513   3.114   6.235  0.00  0.00    +0.000 A 
ATOM     14  C   UNL     1      47.154   2.121   5.491  0.00  0.00    +0.000 A 
ATOM     15  C   UNL     1      47.365   0.883   6.080  0.00  0.00    +0.000 A 
ATOM     16  N   UNL     1      46.984   0.579   7.338  0.00  0.00    +0.000 NA
ATOM     17  C   UNL     1      46.374   1.564   8.045  0.00  0.00    +0.000 A 
ENDBRANCH   9  12
ENDBRANCH   7  10
ENDBRANCH   1   7
BRANCH   4  18
ATOM     18  C   UNL     1      47.873   7.044  13.783  0.00  0.00    +0.000 C 
BRANCH  18  19
ATOM     19  N   UNL     1      47.816   6.564  15.145  0.00  0.00    +0.000 N 
ATOM     20  C   UNL     1      48.978   6.390  15.870  0.00  0.00    +0.000 C 
ATOM     21  O   UNL     1      50.097   6.620  15.427  0.00  0.00    +0.000 OA
ATOM     22  H   UNL     1      46.919   6.579  15.611  0.00  0.00    +0.000 HD
BRANCH  20  23
ATOM     23  C   UNL     1      48.817   5.924  17.266  0.00  0.00    +0.000 A 
ATOM     24  C   UNL     1      49.163   4.619  17.601  0.00  0.00    +0.000 A 
ATOM     25  N   UNL     1      49.075   4.106  18.859  0.00  0.00    +0.000 NA
ATOM     26  C   UNL     1      48.602   4.923  19.825  0.00  0.00    +0.000 A 
ATOM     27  N   UNL     1      48.550   4.361  21.107  0.00  0.00    +0.000 NA
ATOM     28  C   UNL     1      48.107   5.103  22.060  0.00  0.00    +0.000 A 
ATOM     29  N   UNL     1      47.683   6.391  21.895  0.00  0.00    +0.000 N 
ATOM     30  C   UNL     1      47.697   7.022  20.679  0.00  0.00    +0.000 A 
ATOM     31  O   UNL     1      47.323   8.178  20.529  0.00  0.00    +0.000 OA
ATOM     32  C   UNL     1      48.205   6.227  19.560  0.00  0.00    +0.000 A 
ATOM     33  C   UNL     1      48.304   6.743  18.269  0.00  0.00    +0.000 A 
ATOM     34  H   UNL     1      47.342   6.929  22.679  0.00  0.00    +0.000 HD
ENDBRANCH  20  23
ENDBRANCH  18  19
ENDBRANCH   4  18
TORSDOF 6
ENDMDL
MODEL 4
REMARK VINA RESULT:    -7.905      2.841      4.389
REMARK INTER + INTRA:         -11.266
REMARK INTER:                 -10.596
REMARK INTRA:                  -0.669
REMARK UNBOUND:                -0.588
REMARK  Name = 
REMARK  6 active torsions:
REMARK  status: ('A' for Active; 'I' for Inactive)
REMARK    1  A    between atoms: C_2  and  C_26
REMARK    2  A    between atoms: N_3  and  C_4
REMARK    3  A    between atoms: C_4  and  C_5
REMARK    4  A    between atoms: C_8  and  C_9
REMARK    5  A    between atoms: C_9  and  N_10
REMARK    6  A    between atoms: C_11  and  C_13
REMARK                            x       y       z     vdW  Elec       q    Type
REMARK                         _______ _______ _______ _____ _____    ______ ____
ROOT
ATOM      1  C   UNL     1      44.647   5.516  10.802  0.00  0.00    +0.000 A 
ATOM      2  C   UNL     1      44.084   5.908  12.024  0.00  0.00    +0.000 A 
ATOM      3  C   UNL     1      44.812   6.690  12.928  0.00  0.00    +0.000 A 
ATOM      4  C   UNL     1      46.111   7.116  12.621  0.00  0.00    +0.000 A 
ATOM      5  C   UNL     1      46.677   6.717  11.402  0.00  0.00    +0.000 A 
ATOM      6  C   UNL     1      45.948   5.936  10.496  0.00  0.00    +0.000 A 
ENDROOT
BRANCH   1   7
ATOM      7  C   UNL     1      43.867   4.657   9.841  0.00  0.00    +0.000 C 
BRANCH   7  10
ATOM      8  O   UNL     1      45.111   2.189   9.747  0.00  0.00    +0.000 OA
ATOM      9  C   UNL     1      45.250   2.941   8.789  0.00  0.00    +0.000 C 
ATOM     10  N   UNL     1      44.671   4.194   8.731  0.00  0.00    +0.000 N 
ATOM     11  H   UNL     1      44.670   4.731   7.875  0.00  0.00    +0.000 HD
BRANCH   9  12
ATOM     12  C   UNL     1      46.055   2.502   7.625  0.00  0.00    +0.000 A 
ATOM     13  C   UNL     1      46.281   3.293   6.498  0.00  0.00    +0.000 A 
ATOM     14  C   UNL     1      47.098   2.807   5.474  0.00  0.00    +0.000 A 
ATOM     15  C   UNL     1      47.658   1.545   5.616  0.00  0.00    +0.000 A 
ATOM     16  N   UNL     1      47.459   0.755   6.692  0.00  0.00    +0.000 NA
ATOM     17  C   UNL     1      46.671   1.254   7.678  0.00  0.00    +0.000 A 
ENDBRANCH   9  12
ENDBRANCH   7  10
ENDBRANCH   1   7
BRANCH   4  18
ATOM     18  C   UNL     1      46.883   7.984  13.582  0.00  0.00    +0.000 C 
BRANCH  18  19
ATOM     19  N   UNL     1      47.935   7.254  14.253  0.00  0.00    +0.000 N 
ATOM     20  C   UNL     1      48.673   7.858  15.252  0.00  0.00    +0.000 C 
ATOM     21  O   UNL     1      48.495   9.010  15.626  0.00  0.00    +0.000 OA
ATOM     22  H   UNL     1      47.961   6.251  14.131  0.00  0.00    +0.000 HD
BRANCH  20  23
ATOM     23  C   UNL     1      49.707   7.020  15.901  0.00  0.00    +0.000 A 
ATOM     24  C   UNL     1      51.053   7.294  15.679  0.00  0.00    +0.000 A 
ATOM     25  N   UNL     1      52.076   6.599  16.248  0.00  0.00    +0.000 NA
ATOM     26  C   UNL     1      51.745   5.571  17.060  0.00  0.00    +0.000 A 
ATOM     27  N   UNL     1      52.828   4.900  17.641  0.00  0.00    +0.000 NA
ATOM     28  C   UNL     1      52.561   3.914  18.423  0.00  0.00    +0.000 A 
ATOM     29  N   UNL     1      51.296   3.485  18.712  0.00  0.00    +0.000 N 
ATOM     30  C   UNL     1      50.179   4.080  18.190  0.00  0.00    +0.000 A 
ATOM     31  O   UNL     1      49.044   3.701  18.451  0.00  0.00    +0.000 OA
ATOM     32  C   UNL     1      50.425   5.217  17.302  0.00  0.00    +0.000 A 
ATOM     33  C   UNL     1      49.385   5.939  16.717  0.00  0.00    +0.000 A 
ATOM     34  H   UNL     1      51.144   2.703  19.333  0.00  0.00    +0.000 HD
ENDBRANCH  20  23
ENDBRANCH  18  19
ENDBRANCH   4  18
TORSDOF 6
ENDMDL
MODEL 5
REMARK VINA RESULT:    -7.612      6.583     11.336
REMARK INTER + INTRA:         -10.870
REMARK INTER:                 -10.183
REMARK INTRA:                  -0.687
REMARK UNBOUND:                -0.588
REMARK  Name = 
REMARK  6 active torsions:
REMARK  status: ('A' for Active; 'I' for Inactive)
REMARK    1  A    between atoms: C_2  and  C_26
REMARK    2  A    between atoms: N_3  and  C_4
REMARK    3  A    between atoms: C_4  and  C_5
REMARK    4  A    between atoms: C_8  and  C_9
REMARK    5  A    between atoms: C_9  and  N_10
REMARK    6  A    between atoms: C_11  and  C_13
REMARK                            x       y       z     vdW  Elec       q    Type
REMARK                         _______ _______ _______ _____ _____    ______ ____
ROOT
ATOM      1  C   UNL     1      45.892   6.703  12.672  0.00  0.00    +0.000 A 
ATOM      2  C   UNL     1      46.440   7.862  13.239  0.00  0.00    +0.000 A 
ATOM      3  C   UNL     1      45.993   9.129  12.847  0.00  0.00    +0.000 A 
ATOM      4  C   UNL     1      44.975   9.265  11.894  0.00  0.00    +0.000 A 
ATOM      5  C   UNL     1      44.434   8.106  11.321  0.00  0.00    +0.000 A 
ATOM      6  C   UNL     1      44.879   6.838  11.714  0.00  0.00    +0.000 A 
ENDROOT
BRANCH   1   7
ATOM      7  C   UNL     1      46.390   5.342  13.083  0.00  0.00    +0.000 C 
BRANCH   7  10
ATOM      8  O   UNL     1      47.366   3.079  14.338  0.00  0.00    +0.000 OA
ATOM      9  C   UNL     1      47.307   4.118  14.987  0.00  0.00    +0.000 C 
ATOM     10  N   UNL     1      46.839   5.305  14.457  0.00  0.00    +0.000 N 
ATOM     11  H   UNL     1      46.942   6.178  14.956  0.00  0.00    +0.000 HD
BRANCH   9  12
ATOM     12  C   UNL     1      47.768   4.128  16.395  0.00  0.00    +0.000 A 
ATOM     13  C   UNL     1      47.739   3.008  17.226  0.00  0.00    +0.000 A 
ATOM     14  C   UNL     1      48.245   3.107  18.525  0.00  0.00    +0.000 A 
ATOM     15  C   UNL     1      48.761   4.325  18.944  0.00  0.00    +0.000 A 
ATOM     16  N   UNL     1      48.803   5.427  18.166  0.00  0.00    +0.000 NA
ATOM     17  C   UNL     1      48.316   5.302  16.905  0.00  0.00    +0.000 A 
ENDBRANCH   9  12
ENDBRANCH   7  10
ENDBRANCH   1   7
BRANCH   4  18
ATOM     18  C   UNL     1      44.473  10.630  11.495  0.00  0.00    +0.000 C 
BRANCH  18  19
ATOM     19  N   UNL     1      43.092  10.835  11.873  0.00  0.00    +0.000 N 
ATOM     20  C   UNL     1      42.093  10.764  10.923  0.00  0.00    +0.000 C 
ATOM     21  O   UNL     1      42.297  10.531   9.738  0.00  0.00    +0.000 OA
ATOM     22  H   UNL     1      42.867  10.805  12.858  0.00  0.00    +0.000 HD
BRANCH  20  23
ATOM     23  C   UNL     1      40.709  10.956  11.412  0.00  0.00    +0.000 A 
ATOM     24  C   UNL     1      40.474  11.785  12.505  0.00  0.00    +0.000 A 
ATOM     25  N   UNL     1      39.237  12.045  13.013  0.00  0.00    +0.000 NA
ATOM     26  C   UNL     1      38.188  11.437  12.418  0.00  0.00    +0.000 A 
ATOM     27  N   UNL     1      36.935  11.751  12.959  0.00  0.00    +0.000 NA
ATOM     28  C   UNL     1      35.905  11.196  12.423  0.00  0.00    +0.000 A 
ATOM     29  N   UNL     1      35.963  10.323  11.374  0.00  0.00    +0.000 N 
ATOM     30  C   UNL     1      37.143   9.958  10.783  0.00  0.00    +0.000 A 
ATOM     31  O   UNL     1      37.198   9.180   9.838  0.00  0.00    +0.000 OA
ATOM     32  C   UNL     1      38.347  10.571  11.345  0.00  0.00    +0.000 A 
ATOM     33  C   UNL     1      39.617  10.315  10.830  0.00  0.00    +0.000 A 
ATOM     34  H   UNL     1      35.121   9.915  10.992  0.00  0.00    +0.000 HD
ENDBRANCH  20  23
ENDBRANCH  18  19
ENDBRANCH   4  18
TORSDOF 6
ENDMDL
MODEL 6
REMARK VINA RESULT:    -7.599      2.864     11.983
REMARK INTER + INTRA:         -10.852
REMARK INTER:                 -10.177
REMARK INTRA:                  -0.675
REMARK UNBOUND:                -0.588
REMARK  Name = 
REMARK  6 active torsions:
REMARK  status: ('A' for Active; 'I' for Inactive)
REMARK    1  A    between atoms: C_2  and  C_26
REMARK    2  A    between atoms: N_3  and  C_4
REMARK    3  A    between atoms: C_4  and  C_5
REMARK    4  A    between atoms: C_8  and  C_9
REMARK    5  A    between atoms: C_9  and  N_10
REMARK    6  A    between atoms: C_11  and  C_13
REMARK                            x       y       z     vdW  Elec       q    Type
REMARK                         _______ _______ _______ _____ _____    ______ ____
ROOT
ATOM      1  C   UNL     1      48.322   5.933  15.541  0.00  0.00    +0.000 A 
ATOM      2  C   UNL     1      47.616   4.779  15.908  0.00  0.00    +0.000 A 
ATOM      3  C   UNL     1      46.585   4.285  15.099  0.00  0.00    +0.000 A 
ATOM      4  C   UNL     1      46.252   4.921  13.896  0.00  0.00    +0.000 A 
ATOM      5  C   UNL     1      46.954   6.079  13.534  0.00  0.00    +0.000 A 
ATOM      6  C   UNL     1      47.986   6.573  14.341  0.00  0.00    +0.000 A 
ENDROOT
BRANCH   1   7
ATOM      7  C   UNL     1      49.417   6.472  16.424  0.00  0.00    +0.000 C 
BRANCH   7  10
ATOM      8  O   UNL     1      48.239   8.891  17.064  0.00  0.00    +0.000 OA
ATOM      9  C   UNL     1      48.372   8.061  17.956  0.00  0.00    +0.000 C 
ATOM     10  N   UNL     1      48.944   6.821  17.745  0.00  0.00    +0.000 N 
ATOM     11  H   UNL     1      48.905   6.099  18.451  0.00  0.00    +0.000 HD
BRANCH   9  12
ATOM     12  C   UNL     1      47.891   8.372  19.322  0.00  0.00    +0.000 A 
ATOM     13  C   UNL     1      47.252   9.565  19.664  0.00  0.00    +0.000 A 
ATOM     14  C   UNL     1      46.788   9.742  20.970  0.00  0.00    +0.000 A 
ATOM     15  C   UNL     1      46.982   8.719  21.887  0.00  0.00    +0.000 A 
ATOM     16  N   UNL     1      47.595   7.554  21.589  0.00  0.00    +0.000 NA
ATOM     17  C   UNL     1      48.027   7.401  20.311  0.00  0.00    +0.000 A 
ENDBRANCH   9  12
ENDBRANCH   7  10
ENDBRANCH   1   7
BRANCH   4  18
ATOM     18  C   UNL     1      45.163   4.370  13.011  0.00  0.00    +0.000 C 
BRANCH  18  19
ATOM     19  N   UNL     1      45.636   4.097  11.672  0.00  0.00    +0.000 N 
ATOM     20  C   UNL     1      44.816   3.459  10.762  0.00  0.00    +0.000 C 
ATOM     21  O   UNL     1      43.675   3.093  11.015  0.00  0.00    +0.000 OA
ATOM     22  H   UNL     1      46.471   4.575  11.362  0.00  0.00    +0.000 HD
BRANCH  20  23
ATOM     23  C   UNL     1      45.377   3.250   9.408  0.00  0.00    +0.000 A 
ATOM     24  C   UNL     1      45.444   4.319   8.519  0.00  0.00    +0.000 A 
ATOM     25  N   UNL     1      45.964   4.235   7.263  0.00  0.00    +0.000 NA
ATOM     26  C   UNL     1      46.420   3.027   6.866  0.00  0.00    +0.000 A 
ATOM     27  N   UNL     1      46.966   2.992   5.577  0.00  0.00    +0.000 NA
ATOM     28  C   UNL     1      47.414   1.861   5.156  0.00  0.00    +0.000 A 
ATOM     29  N   UNL     1      47.383   0.705   5.883  0.00  0.00    +0.000 N 
ATOM     30  C   UNL     1      46.867   0.645   7.150  0.00  0.00    +0.000 A 
ATOM     31  O   UNL     1      46.843  -0.389   7.806  0.00  0.00    +0.000 OA
ATOM     32  C   UNL     1      46.354   1.907   7.685  0.00  0.00    +0.000 A 
ATOM     33  C   UNL     1      45.824   2.006   8.970  0.00  0.00    +0.000 A 
ATOM     34  H   UNL     1      47.748  -0.156   5.502  0.00  0.00    +0.000 HD
ENDBRANCH  20  23
ENDBRANCH  18  19
ENDBRANCH   4  18
TORSDOF 6
ENDMDL
MODEL 7
REMARK VINA RESULT:    -7.500      2.446     10.861
REMARK INTER + INTRA:         -10.719
REMARK INTER:                 -10.136
REMARK INTRA:                  -0.582
REMARK UNBOUND:                -0.588
REMARK  Name = 
REMARK  6 active torsions:
REMARK  status: ('A' for Active; 'I' for Inactive)
REMARK    1  A    between atoms: C_2  and  C_26
REMARK    2  A    between atoms: N_3  and  C_4
REMARK    3  A    between atoms: C_4  and  C_5
REMARK    4  A    between atoms: C_8  and  C_9
REMARK    5  A    between atoms: C_9  and  N_10
REMARK    6  A    between atoms: C_11  and  C_13
REMARK                            x       y       z     vdW  Elec       q    Type
REMARK                         _______ _______ _______ _____ _____    ______ ____
ROOT
ATOM      1  C   UNL     1      48.383   5.903  15.583  0.00  0.00    +0.000 A 
ATOM      2  C   UNL     1      47.639   4.785  15.984  0.00  0.00    +0.000 A 
ATOM      3  C   UNL     1      46.605   4.290  15.182  0.00  0.00    +0.000 A 
ATOM      4  C   UNL     1      46.305   4.888  13.951  0.00  0.00    +0.000 A 
ATOM      5  C   UNL     1      47.044   6.011  13.554  0.00  0.00    +0.000 A 
ATOM      6  C   UNL     1      48.081   6.506  14.355  0.00  0.00    +0.000 A 
ENDROOT
BRANCH   1   7
ATOM      7  C   UNL     1      49.482   6.445  16.459  0.00  0.00    +0.000 C 
BRANCH   7  10
ATOM      8  O   UNL     1      49.902   4.703  18.566  0.00  0.00    +0.000 OA
ATOM      9  C   UNL     1      50.725   4.716  17.656  0.00  0.00    +0.000 C 
ATOM     10  N   UNL     1      50.611   5.545  16.557  0.00  0.00    +0.000 N 
ATOM     11  H   UNL     1      51.211   5.432  15.752  0.00  0.00    +0.000 HD
BRANCH   9  12
ATOM     12  C   UNL     1      51.889   3.802  17.710  0.00  0.00    +0.000 A 
ATOM     13  C   UNL     1      53.210   4.237  17.822  0.00  0.00    +0.000 A 
ATOM     14  C   UNL     1      54.236   3.294  17.917  0.00  0.00    +0.000 A 
ATOM     15  C   UNL     1      53.901   1.947  17.896  0.00  0.00    +0.000 A 
ATOM     16  N   UNL     1      52.635   1.493  17.788  0.00  0.00    +0.000 NA
ATOM     17  C   UNL     1      51.656   2.429  17.709  0.00  0.00    +0.000 A 
ENDBRANCH   9  12
ENDBRANCH   7  10
ENDBRANCH   1   7
BRANCH   4  18
ATOM     18  C   UNL     1      45.212   4.335  13.073  0.00  0.00    +0.000 C 
BRANCH  18  19
ATOM     19  N   UNL     1      45.674   4.068  11.729  0.00  0.00    +0.000 N 
ATOM     20  C   UNL     1      44.832   3.477  10.808  0.00  0.00    +0.000 C 
ATOM     21  O   UNL     1      43.678   3.149  11.055  0.00  0.00    +0.000 OA
ATOM     22  H   UNL     1      46.527   4.521  11.428  0.00  0.00    +0.000 HD
BRANCH  20  23
ATOM     23  C   UNL     1      45.384   3.273   9.450  0.00  0.00    +0.000 A 
ATOM     24  C   UNL     1      45.460   4.348   8.569  0.00  0.00    +0.000 A 
ATOM     25  N   UNL     1      45.974   4.267   7.311  0.00  0.00    +0.000 NA
ATOM     26  C   UNL     1      46.415   3.058   6.902  0.00  0.00    +0.000 A 
ATOM     27  N   UNL     1      46.956   3.027   5.611  0.00  0.00    +0.000 NA
ATOM     28  C   UNL     1      47.389   1.894   5.180  0.00  0.00    +0.000 A 
ATOM     29  N   UNL     1      47.348   0.733   5.898  0.00  0.00    +0.000 N 
ATOM     30  C   UNL     1      46.837   0.669   7.167  0.00  0.00    +0.000 A 
ATOM     31  O   UNL     1      46.804  -0.370   7.815  0.00  0.00    +0.000 OA
ATOM     32  C   UNL     1      46.340   1.933   7.713  0.00  0.00    +0.000 A 
ATOM     33  C   UNL     1      45.816   2.028   9.001  0.00  0.00    +0.000 A 
ATOM     34  H   UNL     1      47.703  -0.129   5.509  0.00  0.00    +0.000 HD
ENDBRANCH  20  23
ENDBRANCH  18  19
ENDBRANCH   4  18
TORSDOF 6
ENDMDL
MODEL 8
REMARK VINA RESULT:    -7.365      6.625      9.207
REMARK INTER + INTRA:         -10.537
REMARK INTER:                  -9.769
REMARK INTRA:                  -0.767
REMARK UNBOUND:                -0.588
REMARK  Name = 
REMARK  6 active torsions:
REMARK  status: ('A' for Active; 'I' for Inactive)
REMARK    1  A    between atoms: C_2  and  C_26
REMARK    2  A    between atoms: N_3  and  C_4
REMARK    3  A    between atoms: C_4  and  C_5
REMARK    4  A    between atoms: C_8  and  C_9
REMARK    5  A    between atoms: C_9  and  N_10
REMARK    6  A    between atoms: C_11  and  C_13
REMARK                            x       y       z     vdW  Elec       q    Type
REMARK                         _______ _______ _______ _____ _____    ______ ____
ROOT
ATOM      1  C   UNL     1      44.985   9.189  11.895  0.00  0.00    +0.000 A 
ATOM      2  C   UNL     1      44.457   7.991  11.395  0.00  0.00    +0.000 A 
ATOM      3  C   UNL     1      44.997   6.758  11.778  0.00  0.00    +0.000 A 
ATOM      4  C   UNL     1      46.064   6.694  12.684  0.00  0.00    +0.000 A 
ATOM      5  C   UNL     1      46.597   7.893  13.177  0.00  0.00    +0.000 A 
ATOM      6  C   UNL     1      46.056   9.127  12.797  0.00  0.00    +0.000 A 
ENDROOT
BRANCH   1   7
ATOM      7  C   UNL     1      44.413  10.515  11.465  0.00  0.00    +0.000 C 
BRANCH   7  10
ATOM      8  O   UNL     1      42.114  10.538   9.928  0.00  0.00    +0.000 OA
ATOM      9  C   UNL     1      42.004  10.738  11.133  0.00  0.00    +0.000 C 
ATOM     10  N   UNL     1      43.086  10.746  11.992  0.00  0.00    +0.000 N 
ATOM     11  H   UNL     1      42.959  10.759  12.994  0.00  0.00    +0.000 HD
BRANCH   9  12
ATOM     12  C   UNL     1      40.662  10.967  11.717  0.00  0.00    +0.000 A 
ATOM     13  C   UNL     1      39.522  10.256  11.338  0.00  0.00    +0.000 A 
ATOM     14  C   UNL     1      38.311  10.511  11.985  0.00  0.00    +0.000 A 
ATOM     15  C   UNL     1      38.284  11.469  12.988  0.00  0.00    +0.000 A 
ATOM     16  N   UNL     1      39.367  12.174  13.378  0.00  0.00    +0.000 NA
ATOM     17  C   UNL     1      40.534  11.900  12.742  0.00  0.00    +0.000 A 
ENDBRANCH   9  12
ENDBRANCH   7  10
ENDBRANCH   1   7
BRANCH   4  18
ATOM     18  C   UNL     1      46.624   5.364  13.119  0.00  0.00    +0.000 C 
BRANCH  18  19
ATOM     19  N   UNL     1      46.944   5.342  14.529  0.00  0.00    +0.000 N 
ATOM     20  C   UNL     1      47.331   4.164  15.137  0.00  0.00    +0.000 C 
ATOM     21  O   UNL     1      47.427   3.095  14.547  0.00  0.00    +0.000 OA
ATOM     22  H   UNL     1      47.091   6.230  14.991  0.00  0.00    +0.000 HD
BRANCH  20  23
ATOM     23  C   UNL     1      47.667   4.248  16.576  0.00  0.00    +0.000 A 
ATOM     24  C   UNL     1      48.135   3.119  17.240  0.00  0.00    +0.000 A 
ATOM     25  N   UNL     1      48.493   3.100  18.554  0.00  0.00    +0.000 NA
ATOM     26  C   UNL     1      48.363   4.254  19.243  0.00  0.00    +0.000 A 
ATOM     27  N   UNL     1      48.765   4.195  20.583  0.00  0.00    +0.000 NA
ATOM     28  C   UNL     1      48.659   5.272  21.280  0.00  0.00    +0.000 A 
ATOM     29  N   UNL     1      48.178   6.455  20.795  0.00  0.00    +0.000 N 
ATOM     30  C   UNL     1      47.761   6.605  19.498  0.00  0.00    +0.000 A 
ATOM     31  O   UNL     1      47.334   7.666  19.059  0.00  0.00    +0.000 OA
ATOM     32  C   UNL     1      47.871   5.413  18.657  0.00  0.00    +0.000 A 
ATOM     33  C   UNL     1      47.512   5.421  17.310  0.00  0.00    +0.000 A 
ATOM     34  H   UNL     1      48.115   7.271  21.387  0.00  0.00    +0.000 HD
ENDBRANCH  20  23
ENDBRANCH  18  19
ENDBRANCH   4  18
TORSDOF 6
ENDMDL
MODEL 9
REMARK VINA RESULT:    -7.082      6.631     11.217
REMARK INTER + INTRA:         -10.154
REMARK INTER:                  -9.450
REMARK INTRA:                  -0.704
REMARK UNBOUND:                -0.588
REMARK  Name = 
REMARK  6 active torsions:
REMARK  status: ('A' for Active; 'I' for Inactive)
REMARK    1  A    between atoms: C_2  and  C_26
REMARK    2  A    between atoms: N_3  and  C_4
REMARK    3  A    between atoms: C_4  and  C_5
REMARK    4  A    between atoms: C_8  and  C_9
REMARK    5  A    between atoms: C_9  and  N_10
REMARK    6  A    between atoms: C_11  and  C_13
REMARK                            x       y       z     vdW  Elec       q    Type
REMARK                         _______ _______ _______ _____ _____    ______ ____
ROOT
ATOM      1  C   UNL     1      45.958   6.699  12.686  0.00  0.00    +0.000 A 
ATOM      2  C   UNL     1      44.857   6.860  11.834  0.00  0.00    +0.000 A 
ATOM      3  C   UNL     1      44.424   8.137  11.460  0.00  0.00    +0.000 A 
ATOM      4  C   UNL     1      45.095   9.281  11.912  0.00  0.00    +0.000 A 
ATOM      5  C   UNL     1      46.191   9.120  12.770  0.00  0.00    +0.000 A 
ATOM      6  C   UNL     1      46.627   7.843  13.143  0.00  0.00    +0.000 A 
ENDROOT
BRANCH   1   7
ATOM      7  C   UNL     1      46.409   5.324  13.103  0.00  0.00    +0.000 C 
BRANCH   7  10
ATOM      8  O   UNL     1      47.296   3.032  14.372  0.00  0.00    +0.000 OA
ATOM      9  C   UNL     1      47.272   4.075  15.016  0.00  0.00    +0.000 C 
ATOM     10  N   UNL     1      46.849   5.276  14.480  0.00  0.00    +0.000 N 
ATOM     11  H   UNL     1      46.982   6.147  14.976  0.00  0.00    +0.000 HD
BRANCH   9  12
ATOM     12  C   UNL     1      47.726   4.074  16.426  0.00  0.00    +0.000 A 
ATOM     13  C   UNL     1      47.908   2.914  17.180  0.00  0.00    +0.000 A 
ATOM     14  C   UNL     1      48.389   3.016  18.487  0.00  0.00    +0.000 A 
ATOM     15  C   UNL     1      48.670   4.277  18.993  0.00  0.00    +0.000 A 
ATOM     16  N   UNL     1      48.506   5.418  18.292  0.00  0.00    +0.000 NA
ATOM     17  C   UNL     1      48.047   5.291  17.021  0.00  0.00    +0.000 A 
ENDBRANCH   9  12
ENDBRANCH   7  10
ENDBRANCH   1   7
BRANCH   4  18
ATOM     18  C   UNL     1      44.646  10.655  11.482  0.00  0.00    +0.000 C 
BRANCH  18  19
ATOM     19  N   UNL     1      43.269  10.915  11.837  0.00  0.00    +0.000 N 
ATOM     20  C   UNL     1      42.291  10.936  10.862  0.00  0.00    +0.000 C 
ATOM     21  O   UNL     1      42.513  10.744   9.673  0.00  0.00    +0.000 OA
ATOM     22  H   UNL     1      43.017  10.855  12.815  0.00  0.00    +0.000 HD
BRANCH  20  23
ATOM     23  C   UNL     1      40.907  11.179  11.326  0.00  0.00    +0.000 A 
ATOM     24  C   UNL     1      39.838  10.886  10.486  0.00  0.00    +0.000 A 
ATOM     25  N   UNL     1      38.530  11.050  10.829  0.00  0.00    +0.000 NA
ATOM     26  C   UNL     1      38.275  11.547  12.058  0.00  0.00    +0.000 A 
ATOM     27  N   UNL     1      36.917  11.678  12.377  0.00  0.00    +0.000 NA
ATOM     28  C   UNL     1      36.626  12.148  13.539  0.00  0.00    +0.000 A 
ATOM     29  N   UNL     1      37.554  12.527  14.467  0.00  0.00    +0.000 N 
ATOM     30  C   UNL     1      38.902  12.435  14.243  0.00  0.00    +0.000 A 
ATOM     31  O   UNL     1      39.736  12.769  15.076  0.00  0.00    +0.000 OA
ATOM     32  C   UNL     1      39.290  11.895  12.939  0.00  0.00    +0.000 A 
ATOM     33  C   UNL     1      40.625  11.718  12.579  0.00  0.00    +0.000 A 
ATOM     34  H   UNL     1      37.268  12.891  15.366  0.00  0.00    +0.000 HD
ENDBRANCH  20  23
ENDBRANCH  18  19
ENDBRANCH   4  18
TORSDOF 6
ENDMDL
