MODEL 1
REMARK VINA RESULT:    -9.167      0.000      0.000
REMARK INTER + INTRA:         -15.396
REMARK INTER:                 -13.722
REMARK INTRA:                  -1.673
REMARK UNBOUND:                -1.673
REMARK  Name = 
REMARK  9 active torsions:
REMARK  status: ('A' for Active; 'I' for Inactive)
REMARK    1  A    between atoms: C_2  and  C_24
REMARK    2  A    between atoms: N_3  and  C_4
REMARK    3  A    between atoms: C_4  and  C_5
REMARK    4  A    between atoms: C_5  and  O_6
REMARK    5  A    between atoms: C_5  and  C_7
REMARK    6  A    between atoms: C_10  and  C_11
REMARK    7  A    between atoms: C_11  and  C_12
REMARK    8  A    between atoms: C_12  and  C_13
REMARK    9  A    between atoms: C_13  and  C_15
REMARK                            x       y       z     vdW  Elec       q    Type
REMARK                         _______ _______ _______ _____ _____    ______ ____
ROOT
ATOM      1  C   UNL     1      43.300   5.001  13.159  0.00  0.00    +0.000 C 
ENDROOT
BRANCH   1   2
ATOM      2  C   UNL     1      44.716   5.528  13.191  0.00  0.00    +0.000 A 
ATOM      3  C   UNL     1      45.748   4.670  13.600  0.00  0.00    +0.000 A 
ATOM      4  C   UNL     1      47.072   5.113  13.650  0.00  0.00    +0.000 A 
ATOM      5  C   UNL     1      47.401   6.419  13.267  0.00  0.00    +0.000 A 
ATOM      6  C   UNL     1      46.376   7.272  12.844  0.00  0.00    +0.000 A 
ATOM      7  C   UNL     1      45.050   6.831  12.804  0.00  0.00    +0.000 A 
BRANCH   5   8
ATOM      8  C   UNL     1      48.835   6.903  13.301  0.00  0.00    +0.000 C 
BRANCH   8   9
ATOM      9  C   UNL     1      49.111   7.732  14.557  0.00  0.00    +0.000 C 
BRANCH   9  10
ATOM     10  C   UNL     1      49.639   6.909  15.712  0.00  0.00    +0.000 C 
ATOM     11  O   UNL     1      50.779   6.442  15.714  0.00  0.00    +0.000 OA
BRANCH  10  12
ATOM     12  C   UNL     1      48.797   6.716  16.930  0.00  0.00    +0.000 A 
ATOM     13  C   UNL     1      48.524   7.857  17.703  0.00  0.00    +0.000 A 
ATOM     14  C   UNL     1      47.739   7.762  18.852  0.00  0.00    +0.000 A 
ATOM     15  C   UNL     1      47.243   6.519  19.201  0.00  0.00    +0.000 A 
ATOM     16  N   UNL     1      47.486   5.402  18.494  0.00  0.00    +0.000 NA
ATOM     17  C   UNL     1      48.259   5.515  17.385  0.00  0.00    +0.000 A 
ATOM     18 CL   UNL     1      48.524   3.962  16.698  0.00  0.00    +0.000 Cl
ENDBRANCH  10  12
ENDBRANCH   9  10
ENDBRANCH   8   9
ENDBRANCH   5   8
ENDBRANCH   1   2
BRANCH   1  19
ATOM     19  O   UNL     1      43.285   3.641  13.617  0.00  0.00    +0.000 OA
ATOM     20  H   UNL     1      42.384   3.301  13.469  0.00  0.00    +0.000 HD
ENDBRANCH   1  19
BRANCH   1  21
ATOM     21  C   UNL     1      42.608   5.052  11.784  0.00  0.00    +0.000 C 
BRANCH  21  24
ATOM     22  O   UNL     1      43.428   2.461  10.982  0.00  0.00    +0.000 OA
ATOM     23  C   UNL     1      43.877   3.443  10.410  0.00  0.00    +0.000 C 
ATOM     24  N   UNL     1      43.554   4.741  10.726  0.00  0.00    +0.000 N 
ATOM     25  H   UNL     1      43.687   5.467  10.029  0.00  0.00    +0.000 HD
BRANCH  23  26
ATOM     26  C   UNL     1      44.813   3.294   9.279  0.00  0.00    +0.000 A 
ATOM     27  C   UNL     1      45.178   4.405   8.529  0.00  0.00    +0.000 A 
ATOM     28  N   UNL     1      46.056   4.360   7.492  0.00  0.00    +0.000 NA
ATOM     29  C   UNL     1      46.576   3.154   7.177  0.00  0.00    +0.000 A 
ATOM     30  N   UNL     1      47.487   3.159   6.114  0.00  0.00    +0.000 NA
ATOM     31  C   UNL     1      48.007   2.032   5.777  0.00  0.00    +0.000 A 
ATOM     32  N   UNL     1      47.722   0.841   6.383  0.00  0.00    +0.000 N 
ATOM     33  C   UNL     1      46.852   0.737   7.432  0.00  0.00    +0.000 A 
ATOM     34  O   UNL     1      46.601  -0.328   7.981  0.00  0.00    +0.000 OA
ATOM     35  C   UNL     1      46.234   1.994   7.863  0.00  0.00    +0.000 A 
ATOM     36  C   UNL     1      45.340   2.053   8.925  0.00  0.00    +0.000 A 
ATOM     37  H   UNL     1      48.162  -0.015   6.075  0.00  0.00    +0.000 HD
ENDBRANCH  23  26
ENDBRANCH  21  24
ENDBRANCH   1  21
TORSDOF 9
ENDMDL
MODEL 2
REMARK VINA RESULT:    -8.593      3.037      4.362
REMARK INTER + INTRA:         -14.536
REMARK INTER:                 -13.260
REMARK INTRA:                  -1.276
REMARK UNBOUND:                -1.673
REMARK  Name = 
REMARK  9 active torsions:
REMARK  status: ('A' for Active; 'I' for Inactive)
REMARK    1  A    between atoms: C_2  and  C_24
REMARK    2  A    between atoms: N_3  and  C_4
REMARK    3  A    between atoms: C_4  and  C_5
REMARK    4  A    between atoms: C_5  and  O_6
REMARK    5  A    between atoms: C_5  and  C_7
REMARK    6  A    between atoms: C_10  and  C_11
REMARK    7  A    between atoms: C_11  and  C_12
REMARK    8  A    between atoms: C_12  and  C_13
REMARK    9  A    between atoms: C_13  and  C_15
REMARK                            x       y       z     vdW  Elec       q    Type
REMARK                         _______ _______ _______ _____ _____    ______ ____
ROOT
ATOM      1  C   UNL     1      43.365   5.064  13.101  0.00  0.00    +0.000 C 
ENDROOT
BRANCH   1   2
ATOM      2  C   UNL     1      44.794   5.554  13.062  0.00  0.00    +0.000 A 
ATOM      3  C   UNL     1      45.041   6.893  12.727  0.00  0.00    +0.000 A 
ATOM      4  C   UNL     1      46.346   7.390  12.673  0.00  0.00    +0.000 A 
ATOM      5  C   UNL     1      47.436   6.566  12.978  0.00  0.00    +0.000 A 
ATOM      6  C   UNL     1      47.191   5.233  13.326  0.00  0.00    +0.000 A 
ATOM      7  C   UNL     1      45.886   4.733  13.371  0.00  0.00    +0.000 A 
BRANCH   5   8
ATOM      8  C   UNL     1      48.851   7.100  12.940  0.00  0.00    +0.000 C 
BRANCH   8   9
ATOM      9  C   UNL     1      49.230   7.568  11.533  0.00  0.00    +0.000 C 
BRANCH   9  10
ATOM     10  C   UNL     1      50.386   8.543  11.518  0.00  0.00    +0.000 C 
ATOM     11  O   UNL     1      50.246   9.728  11.826  0.00  0.00    +0.000 OA
BRANCH  10  12
ATOM     12  C   UNL     1      51.763   8.056  11.200  0.00  0.00    +0.000 A 
ATOM     13  C   UNL     1      51.916   7.306  10.022  0.00  0.00    +0.000 A 
ATOM     14  C   UNL     1      53.170   6.820   9.652  0.00  0.00    +0.000 A 
ATOM     15  C   UNL     1      54.247   7.102  10.474  0.00  0.00    +0.000 A 
ATOM     16  N   UNL     1      54.142   7.809  11.611  0.00  0.00    +0.000 NA
ATOM     17  C   UNL     1      52.911   8.264  11.959  0.00  0.00    +0.000 A 
ATOM     18 CL   UNL     1      52.989   9.047  13.486  0.00  0.00    +0.000 Cl
ENDBRANCH  10  12
ENDBRANCH   9  10
ENDBRANCH   8   9
ENDBRANCH   5   8
ENDBRANCH   1   2
BRANCH   1  19
ATOM     19  O   UNL     1      43.328   3.738  13.649  0.00  0.00    +0.000 OA
ATOM     20  H   UNL     1      44.218   3.359  13.535  0.00  0.00    +0.000 HD
ENDBRANCH   1  19
BRANCH   1  21
ATOM     21  C   UNL     1      42.637   5.044  11.744  0.00  0.00    +0.000 C 
BRANCH  21  24
ATOM     22  O   UNL     1      43.501   2.453  10.992  0.00  0.00    +0.000 OA
ATOM     23  C   UNL     1      43.913   3.428  10.384  0.00  0.00    +0.000 C 
ATOM     24  N   UNL     1      43.566   4.727  10.673  0.00  0.00    +0.000 N 
ATOM     25  H   UNL     1      43.665   5.437   9.954  0.00  0.00    +0.000 HD
BRANCH  23  26
ATOM     26  C   UNL     1      44.826   3.271   9.235  0.00  0.00    +0.000 A 
ATOM     27  C   UNL     1      45.157   4.372   8.456  0.00  0.00    +0.000 A 
ATOM     28  N   UNL     1      46.013   4.319   7.400  0.00  0.00    +0.000 NA
ATOM     29  C   UNL     1      46.545   3.115   7.098  0.00  0.00    +0.000 A 
ATOM     30  N   UNL     1      47.432   3.113   6.015  0.00  0.00    +0.000 NA
ATOM     31  C   UNL     1      47.963   1.988   5.689  0.00  0.00    +0.000 A 
ATOM     32  N   UNL     1      47.711   0.805   6.326  0.00  0.00    +0.000 N 
ATOM     33  C   UNL     1      46.865   0.709   7.395  0.00  0.00    +0.000 A 
ATOM     34  O   UNL     1      46.643  -0.348   7.971  0.00  0.00    +0.000 OA
ATOM     35  C   UNL     1      46.237   1.965   7.815  0.00  0.00    +0.000 A 
ATOM     36  C   UNL     1      45.365   2.031   8.895  0.00  0.00    +0.000 A 
ATOM     37  H   UNL     1      48.157  -0.050   6.026  0.00  0.00    +0.000 HD
ENDBRANCH  23  26
ENDBRANCH  21  24
ENDBRANCH   1  21
TORSDOF 9
ENDMDL
MODEL 3
REMARK VINA RESULT:    -8.335      2.692      3.598
REMARK INTER + INTRA:         -14.151
REMARK INTER:                 -12.555
REMARK INTRA:                  -1.596
REMARK UNBOUND:                -1.673
REMARK  Name = 
REMARK  9 active torsions:
REMARK  status: ('A' for Active; 'I' for Inactive)
REMARK    1  A    between atoms: C_2  and  C_24
REMARK    2  A    between atoms: N_3  and  C_4
REMARK    3  A    between atoms: C_4  and  C_5
REMARK    4  A    between atoms: C_5  and  O_6
REMARK    5  A    between atoms: C_5  and  C_7
REMARK    6  A    between atoms: C_10  and  C_11
REMARK    7  A    between atoms: C_11  and  C_12
REMARK    8  A    between atoms: C_12  and  C_13
REMARK    9  A    between atoms: C_13  and  C_15
REMARK                            x       y       z     vdW  Elec       q    Type
REMARK                         _______ _______ _______ _____ _____    ______ ____
ROOT
ATOM      1  C   UNL     1      43.325   5.203  13.063  0.00  0.00    +0.000 C 
ENDROOT
BRANCH   1   2
ATOM      2  C   UNL     1      44.752   5.691  12.980  0.00  0.00    +0.000 A 
ATOM      3  C   UNL     1      45.770   4.899  13.531  0.00  0.00    +0.000 A 
ATOM      4  C   UNL     1      47.105   5.309  13.482  0.00  0.00    +0.000 A 
ATOM      5  C   UNL     1      47.459   6.512  12.858  0.00  0.00    +0.000 A 
ATOM      6  C   UNL     1      46.446   7.297  12.294  0.00  0.00    +0.000 A 
ATOM      7  C   UNL     1      45.110   6.890  12.352  0.00  0.00    +0.000 A 
BRANCH   5   8
ATOM      8  C   UNL     1      48.903   6.957  12.785  0.00  0.00    +0.000 C 
BRANCH   8   9
ATOM      9  C   UNL     1      49.381   7.511  14.128  0.00  0.00    +0.000 C 
BRANCH   9  10
ATOM     10  C   UNL     1      49.021   8.966  14.338  0.00  0.00    +0.000 C 
ATOM     11  O   UNL     1      48.655   9.397  15.432  0.00  0.00    +0.000 OA
BRANCH  10  12
ATOM     12  C   UNL     1      49.186   9.939  13.217  0.00  0.00    +0.000 A 
ATOM     13  C   UNL     1      48.012  10.479  12.666  0.00  0.00    +0.000 A 
ATOM     14  C   UNL     1      48.080  11.400  11.620  0.00  0.00    +0.000 A 
ATOM     15  C   UNL     1      49.330  11.761  11.150  0.00  0.00    +0.000 A 
ATOM     16  N   UNL     1      50.476  11.264  11.645  0.00  0.00    +0.000 NA
ATOM     17  C   UNL     1      50.387  10.362  12.655  0.00  0.00    +0.000 A 
ATOM     18 CL   UNL     1      51.954   9.784  13.060  0.00  0.00    +0.000 Cl
ENDBRANCH  10  12
ENDBRANCH   9  10
ENDBRANCH   8   9
ENDBRANCH   5   8
ENDBRANCH   1   2
BRANCH   1  19
ATOM     19  O   UNL     1      43.290   3.932  13.728  0.00  0.00    +0.000 OA
ATOM     20  H   UNL     1      43.040   3.269  13.060  0.00  0.00    +0.000 HD
ENDBRANCH   1  19
BRANCH   1  21
ATOM     21  C   UNL     1      42.597   5.059  11.713  0.00  0.00    +0.000 C 
BRANCH  21  24
ATOM     22  O   UNL     1      43.489   2.472  10.979  0.00  0.00    +0.000 OA
ATOM     23  C   UNL     1      43.904   3.449  10.374  0.00  0.00    +0.000 C 
ATOM     24  N   UNL     1      43.543   4.746  10.656  0.00  0.00    +0.000 N 
ATOM     25  H   UNL     1      43.648   5.455   9.937  0.00  0.00    +0.000 HD
BRANCH  23  26
ATOM     26  C   UNL     1      44.834   3.296   9.240  0.00  0.00    +0.000 A 
ATOM     27  C   UNL     1      45.195   4.404   8.483  0.00  0.00    +0.000 A 
ATOM     28  N   UNL     1      46.068   4.354   7.442  0.00  0.00    +0.000 NA
ATOM     29  C   UNL     1      46.587   3.147   7.130  0.00  0.00    +0.000 A 
ATOM     30  N   UNL     1      47.494   3.148   6.063  0.00  0.00    +0.000 NA
ATOM     31  C   UNL     1      48.013   2.021   5.728  0.00  0.00    +0.000 A 
ATOM     32  N   UNL     1      47.732   0.831   6.342  0.00  0.00    +0.000 N 
ATOM     33  C   UNL     1      46.866   0.732   7.395  0.00  0.00    +0.000 A 
ATOM     34  O   UNL     1      46.619  -0.331   7.950  0.00  0.00    +0.000 OA
ATOM     35  C   UNL     1      46.250   1.991   7.823  0.00  0.00    +0.000 A 
ATOM     36  C   UNL     1      45.360   2.054   8.889  0.00  0.00    +0.000 A 
ATOM     37  H   UNL     1      48.171  -0.026   6.036  0.00  0.00    +0.000 HD
ENDBRANCH  23  26
ENDBRANCH  21  24
ENDBRANCH   1  21
TORSDOF 9
ENDMDL
MODEL 4
REMARK VINA RESULT:    -8.258      1.825      1.850
REMARK INTER + INTRA:         -14.035
REMARK INTER:                 -12.592
REMARK INTRA:                  -1.444
REMARK UNBOUND:                -1.673
REMARK  Name = 
REMARK  9 active torsions:
REMARK  status: ('A' for Active; 'I' for Inactive)
REMARK    1  A    between atoms: C_2  and  C_24
REMARK    2  A    between atoms: N_3  and  C_4
REMARK    3  A    between atoms: C_4  and  C_5
REMARK    4  A    between atoms: C_5  and  O_6
REMARK    5  A    between atoms: C_5  and  C_7
REMARK    6  A    between atoms: C_10  and  C_11
REMARK    7  A    between atoms: C_11  and  C_12
REMARK    8  A    between atoms: C_12  and  C_13
REMARK    9  A    between atoms: C_13  and  C_15
REMARK                            x       y       z     vdW  Elec       q    Type
REMARK                         _______ _______ _______ _____ _____    ______ ____
ROOT
ATOM      1  C   UNL     1      43.273   5.321  13.026  0.00  0.00    +0.000 C 
ENDROOT
BRANCH   1   2
ATOM      2  C   UNL     1      44.698   5.807  12.898  0.00  0.00    +0.000 A 
ATOM      3  C   UNL     1      45.739   4.968  13.321  0.00  0.00    +0.000 A 
ATOM      4  C   UNL     1      47.072   5.375  13.227  0.00  0.00    +0.000 A 
ATOM      5  C   UNL     1      47.399   6.623  12.683  0.00  0.00    +0.000 A 
ATOM      6  C   UNL     1      46.363   7.455  12.246  0.00  0.00    +0.000 A 
ATOM      7  C   UNL     1      45.029   7.052  12.349  0.00  0.00    +0.000 A 
BRANCH   5   8
ATOM      8  C   UNL     1      48.841   7.066  12.560  0.00  0.00    +0.000 C 
BRANCH   8   9
ATOM      9  C   UNL     1      49.477   7.273  13.937  0.00  0.00    +0.000 C 
BRANCH   9  10
ATOM     10  C   UNL     1      49.259   8.664  14.493  0.00  0.00    +0.000 C 
ATOM     11  O   UNL     1      49.016   9.628  13.765  0.00  0.00    +0.000 OA
BRANCH  10  12
ATOM     12  C   UNL     1      49.254   8.878  15.971  0.00  0.00    +0.000 A 
ATOM     13  C   UNL     1      48.036   9.270  16.553  0.00  0.00    +0.000 A 
ATOM     14  C   UNL     1      47.946   9.485  17.928  0.00  0.00    +0.000 A 
ATOM     15  C   UNL     1      49.084   9.298  18.693  0.00  0.00    +0.000 A 
ATOM     16  N   UNL     1      50.268   8.930  18.175  0.00  0.00    +0.000 NA
ATOM     17  C   UNL     1      50.337   8.737  16.833  0.00  0.00    +0.000 A 
ATOM     18 CL   UNL     1      51.954   8.376  16.378  0.00  0.00    +0.000 Cl
ENDBRANCH  10  12
ENDBRANCH   9  10
ENDBRANCH   8   9
ENDBRANCH   5   8
ENDBRANCH   1   2
BRANCH   1  19
ATOM     19  O   UNL     1      43.251   4.089  13.763  0.00  0.00    +0.000 OA
ATOM     20  H   UNL     1      44.106   4.020  14.225  0.00  0.00    +0.000 HD
ENDBRANCH   1  19
BRANCH   1  21
ATOM     21  C   UNL     1      42.530   5.097  11.695  0.00  0.00    +0.000 C 
BRANCH  21  24
ATOM     22  O   UNL     1      43.520   2.515  11.076  0.00  0.00    +0.000 OA
ATOM     23  C   UNL     1      43.881   3.476  10.415  0.00  0.00    +0.000 C 
ATOM     24  N   UNL     1      43.470   4.770  10.637  0.00  0.00    +0.000 N 
ATOM     25  H   UNL     1      43.531   5.444   9.881  0.00  0.00    +0.000 HD
BRANCH  23  26
ATOM     26  C   UNL     1      44.796   3.304   9.271  0.00  0.00    +0.000 A 
ATOM     27  C   UNL     1      45.120   4.392   8.470  0.00  0.00    +0.000 A 
ATOM     28  N   UNL     1      45.978   4.325   7.417  0.00  0.00    +0.000 NA
ATOM     29  C   UNL     1      46.519   3.120   7.139  0.00  0.00    +0.000 A 
ATOM     30  N   UNL     1      47.408   3.103   6.057  0.00  0.00    +0.000 NA
ATOM     31  C   UNL     1      47.948   1.976   5.754  0.00  0.00    +0.000 A 
ATOM     32  N   UNL     1      47.704   0.803   6.413  0.00  0.00    +0.000 N 
ATOM     33  C   UNL     1      46.857   0.722   7.483  0.00  0.00    +0.000 A 
ATOM     34  O   UNL     1      46.643  -0.326   8.080  0.00  0.00    +0.000 OA
ATOM     35  C   UNL     1      46.219   1.981   7.878  0.00  0.00    +0.000 A 
ATOM     36  C   UNL     1      45.345   2.062   8.956  0.00  0.00    +0.000 A 
ATOM     37  H   UNL     1      48.157  -0.054   6.130  0.00  0.00    +0.000 HD
ENDBRANCH  23  26
ENDBRANCH  21  24
ENDBRANCH   1  21
TORSDOF 9
ENDMDL
MODEL 5
REMARK VINA RESULT:    -7.561      3.727      5.805
REMARK INTER + INTRA:         -12.992
REMARK INTER:                 -10.958
REMARK INTRA:                  -2.034
REMARK UNBOUND:                -1.673
REMARK  Name = 
REMARK  9 active torsions:
REMARK  status: ('A' for Active; 'I' for Inactive)
REMARK    1  A    between atoms: C_2  and  C_24
REMARK    2  A    between atoms: N_3  and  C_4
REMARK    3  A    between atoms: C_4  and  C_5
REMARK    4  A    between atoms: C_5  and  O_6
REMARK    5  A    between atoms: C_5  and  C_7
REMARK    6  A    between atoms: C_10  and  C_11
REMARK    7  A    between atoms: C_11  and  C_12
REMARK    8  A    between atoms: C_12  and  C_13
REMARK    9  A    between atoms: C_13  and  C_15
REMARK                            x       y       z     vdW  Elec       q    Type
REMARK                         _______ _______ _______ _____ _____    ______ ____
ROOT
ATOM      1  C   UNL     1      48.816   9.305  15.094  0.00  0.00    +0.000 C 
ENDROOT
BRANCH   1   2
ATOM      2  C   UNL     1      49.821   8.527  15.910  0.00  0.00    +0.000 A 
ATOM      3  C   UNL     1      50.709   7.667  15.248  0.00  0.00    +0.000 A 
ATOM      4  C   UNL     1      51.653   6.923  15.961  0.00  0.00    +0.000 A 
ATOM      5  C   UNL     1      51.749   7.039  17.353  0.00  0.00    +0.000 A 
ATOM      6  C   UNL     1      50.874   7.908  18.014  0.00  0.00    +0.000 A 
ATOM      7  C   UNL     1      49.923   8.645  17.302  0.00  0.00    +0.000 A 
BRANCH   5   8
ATOM      8  C   UNL     1      52.780   6.251  18.131  0.00  0.00    +0.000 C 
BRANCH   8   9
ATOM      9  C   UNL     1      52.528   4.746  18.019  0.00  0.00    +0.000 C 
BRANCH   9  10
ATOM     10  C   UNL     1      51.200   4.317  18.603  0.00  0.00    +0.000 C 
ATOM     11  O   UNL     1      50.898   4.542  19.776  0.00  0.00    +0.000 OA
BRANCH  10  12
ATOM     12  C   UNL     1      50.178   3.670  17.725  0.00  0.00    +0.000 A 
ATOM     13  C   UNL     1      49.011   4.407  17.458  0.00  0.00    +0.000 A 
ATOM     14  C   UNL     1      48.012   3.876  16.642  0.00  0.00    +0.000 A 
ATOM     15  C   UNL     1      48.208   2.615  16.108  0.00  0.00    +0.000 A 
ATOM     16  N   UNL     1      49.305   1.876  16.344  0.00  0.00    +0.000 NA
ATOM     17  C   UNL     1      50.261   2.406  17.149  0.00  0.00    +0.000 A 
ATOM     18 CL   UNL     1      51.517   1.260  17.396  0.00  0.00    +0.000 Cl
ENDBRANCH  10  12
ENDBRANCH   9  10
ENDBRANCH   8   9
ENDBRANCH   5   8
ENDBRANCH   1   2
BRANCH   1  19
ATOM     19  O   UNL     1      47.496   9.071  15.608  0.00  0.00    +0.000 OA
ATOM     20  H   UNL     1      47.000   8.601  14.914  0.00  0.00    +0.000 HD
ENDBRANCH   1  19
BRANCH   1  21
ATOM     21  C   UNL     1      48.806   8.992  13.586  0.00  0.00    +0.000 C 
BRANCH  21  24
ATOM     22  O   UNL     1      46.489   9.390  12.004  0.00  0.00    +0.000 OA
ATOM     23  C   UNL     1      46.707   8.291  12.492  0.00  0.00    +0.000 C 
ATOM     24  N   UNL     1      47.794   7.995  13.280  0.00  0.00    +0.000 N 
ATOM     25  H   UNL     1      48.089   7.028  13.371  0.00  0.00    +0.000 HD
BRANCH  23  26
ATOM     26  C   UNL     1      45.799   7.158  12.233  0.00  0.00    +0.000 A 
ATOM     27  C   UNL     1      44.597   7.368  11.570  0.00  0.00    +0.000 A 
ATOM     28  N   UNL     1      43.719   6.374  11.266  0.00  0.00    +0.000 NA
ATOM     29  C   UNL     1      44.045   5.124  11.657  0.00  0.00    +0.000 A 
ATOM     30  N   UNL     1      43.119   4.133  11.308  0.00  0.00    +0.000 NA
ATOM     31  C   UNL     1      43.386   2.926  11.661  0.00  0.00    +0.000 A 
ATOM     32  N   UNL     1      44.505   2.556  12.355  0.00  0.00    +0.000 N 
ATOM     33  C   UNL     1      45.466   3.450  12.734  0.00  0.00    +0.000 A 
ATOM     34  O   UNL     1      46.472   3.120  13.349  0.00  0.00    +0.000 OA
ATOM     35  C   UNL     1      45.216   4.843  12.351  0.00  0.00    +0.000 A 
ATOM     36  C   UNL     1      46.109   5.864  12.651  0.00  0.00    +0.000 A 
ATOM     37  H   UNL     1      44.663   1.590  12.606  0.00  0.00    +0.000 HD
ENDBRANCH  23  26
ENDBRANCH  21  24
ENDBRANCH   1  21
TORSDOF 9
ENDMDL
MODEL 6
REMARK VINA RESULT:    -7.332      2.778      5.358
REMARK INTER + INTRA:         -12.648
REMARK INTER:                 -10.612
REMARK INTRA:                  -2.036
REMARK UNBOUND:                -1.673
REMARK  Name = 
REMARK  9 active torsions:
REMARK  status: ('A' for Active; 'I' for Inactive)
REMARK    1  A    between atoms: C_2  and  C_24
REMARK    2  A    between atoms: N_3  and  C_4
REMARK    3  A    between atoms: C_4  and  C_5
REMARK    4  A    between atoms: C_5  and  O_6
REMARK    5  A    between atoms: C_5  and  C_7
REMARK    6  A    between atoms: C_10  and  C_11
REMARK    7  A    between atoms: C_11  and  C_12
REMARK    8  A    between atoms: C_12  and  C_13
REMARK    9  A    between atoms: C_13  and  C_15
REMARK                            x       y       z     vdW  Elec       q    Type
REMARK                         _______ _______ _______ _____ _____    ______ ____
ROOT
ATOM      1  C   UNL     1      49.204   8.630  14.271  0.00  0.00    +0.000 C 
ENDROOT
BRANCH   1   2
ATOM      2  C   UNL     1      49.712   8.008  15.551  0.00  0.00    +0.000 A 
ATOM      3  C   UNL     1      49.076   8.330  16.758  0.00  0.00    +0.000 A 
ATOM      4  C   UNL     1      49.512   7.783  17.968  0.00  0.00    +0.000 A 
ATOM      5  C   UNL     1      50.581   6.879  17.997  0.00  0.00    +0.000 A 
ATOM      6  C   UNL     1      51.207   6.544  16.791  0.00  0.00    +0.000 A 
ATOM      7  C   UNL     1      50.777   7.099  15.582  0.00  0.00    +0.000 A 
BRANCH   5   8
ATOM      8  C   UNL     1      51.050   6.268  19.299  0.00  0.00    +0.000 C 
BRANCH   8   9
ATOM      9  C   UNL     1      50.910   4.744  19.278  0.00  0.00    +0.000 C 
BRANCH   9  10
ATOM     10  C   UNL     1      49.473   4.275  19.221  0.00  0.00    +0.000 C 
ATOM     11  O   UNL     1      48.744   4.281  20.214  0.00  0.00    +0.000 OA
BRANCH  10  12
ATOM     12  C   UNL     1      48.878   3.866  17.913  0.00  0.00    +0.000 A 
ATOM     13  C   UNL     1      47.745   4.576  17.480  0.00  0.00    +0.000 A 
ATOM     14  C   UNL     1      47.133   4.260  16.267  0.00  0.00    +0.000 A 
ATOM     15  C   UNL     1      47.676   3.236  15.511  0.00  0.00    +0.000 A 
ATOM     16  N   UNL     1      48.753   2.529  15.892  0.00  0.00    +0.000 NA
ATOM     17  C   UNL     1      49.327   2.846  17.080  0.00  0.00    +0.000 A 
ATOM     18 CL   UNL     1      50.614   1.758  17.415  0.00  0.00    +0.000 Cl
ENDBRANCH  10  12
ENDBRANCH   9  10
ENDBRANCH   8   9
ENDBRANCH   5   8
ENDBRANCH   1   2
BRANCH   1  19
ATOM     19  O   UNL     1      49.796   9.927  14.101  0.00  0.00    +0.000 OA
ATOM     20  H   UNL     1      50.631   9.797  13.617  0.00  0.00    +0.000 HD
ENDBRANCH   1  19
BRANCH   1  21
ATOM     21  C   UNL     1      47.675   8.785  14.174  0.00  0.00    +0.000 C 
BRANCH  21  24
ATOM     22  O   UNL     1      45.213   8.684  12.776  0.00  0.00    +0.000 OA
ATOM     23  C   UNL     1      45.881   7.669  12.898  0.00  0.00    +0.000 C 
ATOM     24  N   UNL     1      47.082   7.607  13.564  0.00  0.00    +0.000 N 
ATOM     25  H   UNL     1      47.727   6.851  13.351  0.00  0.00    +0.000 HD
BRANCH  23  26
ATOM     26  C   UNL     1      45.441   6.398  12.292  0.00  0.00    +0.000 A 
ATOM     27  C   UNL     1      44.728   5.477  13.050  0.00  0.00    +0.000 A 
ATOM     28  N   UNL     1      44.260   4.298  12.560  0.00  0.00    +0.000 NA
ATOM     29  C   UNL     1      44.530   4.017  11.268  0.00  0.00    +0.000 A 
ATOM     30  N   UNL     1      44.014   2.801  10.804  0.00  0.00    +0.000 NA
ATOM     31  C   UNL     1      44.248   2.489   9.578  0.00  0.00    +0.000 A 
ATOM     32  N   UNL     1      44.969   3.263   8.711  0.00  0.00    +0.000 N 
ATOM     33  C   UNL     1      45.506   4.468   9.070  0.00  0.00    +0.000 A 
ATOM     34  O   UNL     1      46.145   5.165   8.294  0.00  0.00    +0.000 OA
ATOM     35  C   UNL     1      45.263   4.876  10.457  0.00  0.00    +0.000 A 
ATOM     36  C   UNL     1      45.732   6.081  10.966  0.00  0.00    +0.000 A 
ATOM     37  H   UNL     1      45.121   2.968   7.757  0.00  0.00    +0.000 HD
ENDBRANCH  23  26
ENDBRANCH  21  24
ENDBRANCH   1  21
TORSDOF 9
ENDMDL
MODEL 7
REMARK VINA RESULT:    -7.280      2.998      8.730
REMARK INTER + INTRA:         -12.570
REMARK INTER:                 -11.021
REMARK INTRA:                  -1.549
REMARK UNBOUND:                -1.673
REMARK  Name = 
REMARK  9 active torsions:
REMARK  status: ('A' for Active; 'I' for Inactive)
REMARK    1  A    between atoms: C_2  and  C_24
REMARK    2  A    between atoms: N_3  and  C_4
REMARK    3  A    between atoms: C_4  and  C_5
REMARK    4  A    between atoms: C_5  and  O_6
REMARK    5  A    between atoms: C_5  and  C_7
REMARK    6  A    between atoms: C_10  and  C_11
REMARK    7  A    between atoms: C_11  and  C_12
REMARK    8  A    between atoms: C_12  and  C_13
REMARK    9  A    between atoms: C_13  and  C_15
REMARK                            x       y       z     vdW  Elec       q    Type
REMARK                         _______ _______ _______ _____ _____    ______ ____
ROOT
ATOM      1  C   UNL     1      50.913   8.596  11.833  0.00  0.00    +0.000 C 
ENDROOT
BRANCH   1   2
ATOM      2  C   UNL     1      49.418   8.423  11.970  0.00  0.00    +0.000 A 
ATOM      3  C   UNL     1      48.629   9.548  12.251  0.00  0.00    +0.000 A 
ATOM      4  C   UNL     1      47.244   9.436  12.391  0.00  0.00    +0.000 A 
ATOM      5  C   UNL     1      46.608   8.199  12.228  0.00  0.00    +0.000 A 
ATOM      6  C   UNL     1      47.391   7.078  11.932  0.00  0.00    +0.000 A 
ATOM      7  C   UNL     1      48.779   7.188  11.802  0.00  0.00    +0.000 A 
BRANCH   5   8
ATOM      8  C   UNL     1      45.106   8.071  12.360  0.00  0.00    +0.000 C 
BRANCH   8   9
ATOM      9  C   UNL     1      44.530   7.159  11.275  0.00  0.00    +0.000 C 
BRANCH   9  10
ATOM     10  C   UNL     1      44.545   5.694  11.653  0.00  0.00    +0.000 C 
ATOM     11  O   UNL     1      44.376   5.318  12.814  0.00  0.00    +0.000 OA
BRANCH  10  12
ATOM     12  C   UNL     1      44.688   4.655  10.590  0.00  0.00    +0.000 A 
ATOM     13  C   UNL     1      45.363   5.034   9.417  0.00  0.00    +0.000 A 
ATOM     14  C   UNL     1      45.544   4.120   8.379  0.00  0.00    +0.000 A 
ATOM     15  C   UNL     1      45.044   2.840   8.542  0.00  0.00    +0.000 A 
ATOM     16  N   UNL     1      44.388   2.440   9.645  0.00  0.00    +0.000 NA
ATOM     17  C   UNL     1      44.214   3.348  10.639  0.00  0.00    +0.000 A 
ATOM     18 CL   UNL     1      43.268   2.659  11.898  0.00  0.00    +0.000 Cl
ENDBRANCH  10  12
ENDBRANCH   9  10
ENDBRANCH   8   9
ENDBRANCH   5   8
ENDBRANCH   1   2
BRANCH   1  19
ATOM     19  O   UNL     1      51.446   7.538  11.023  0.00  0.00    +0.000 OA
ATOM     20  H   UNL     1      51.089   7.660  10.125  0.00  0.00    +0.000 HD
ENDBRANCH   1  19
BRANCH   1  21
ATOM     21  C   UNL     1      51.697   8.628  13.158  0.00  0.00    +0.000 C 
BRANCH  21  24
ATOM     22  O   UNL     1      50.158   9.124  15.484  0.00  0.00    +0.000 OA
ATOM     23  C   UNL     1      50.437   7.976  15.177  0.00  0.00    +0.000 C 
ATOM     24  N   UNL     1      51.185   7.627  14.077  0.00  0.00    +0.000 N 
ATOM     25  H   UNL     1      51.101   6.687  13.700  0.00  0.00    +0.000 HD
BRANCH  23  26
ATOM     26  C   UNL     1      49.948   6.840  15.981  0.00  0.00    +0.000 A 
ATOM     27  C   UNL     1      50.603   6.487  17.155  0.00  0.00    +0.000 A 
ATOM     28  N   UNL     1      50.200   5.475  17.969  0.00  0.00    +0.000 NA
ATOM     29  C   UNL     1      49.111   4.773  17.586  0.00  0.00    +0.000 A 
ATOM     30  N   UNL     1      48.725   3.752  18.463  0.00  0.00    +0.000 NA
ATOM     31  C   UNL     1      47.694   3.055  18.139  0.00  0.00    +0.000 A 
ATOM     32  N   UNL     1      46.964   3.244  16.999  0.00  0.00    +0.000 N 
ATOM     33  C   UNL     1      47.260   4.218  16.087  0.00  0.00    +0.000 A 
ATOM     34  O   UNL     1      46.603   4.394  15.069  0.00  0.00    +0.000 OA
ATOM     35  C   UNL     1      48.424   5.049  16.410  0.00  0.00    +0.000 A 
ATOM     36  C   UNL     1      48.841   6.090  15.588  0.00  0.00    +0.000 A 
ATOM     37  H   UNL     1      46.161   2.665  16.795  0.00  0.00    +0.000 HD
ENDBRANCH  23  26
ENDBRANCH  21  24
ENDBRANCH   1  21
TORSDOF 9
ENDMDL
MODEL 8
REMARK VINA RESULT:    -7.144      4.334      6.579
REMARK INTER + INTRA:         -12.367
REMARK INTER:                 -10.084
REMARK INTRA:                  -2.283
REMARK UNBOUND:                -1.673
REMARK  Name = 
REMARK  9 active torsions:
REMARK  status: ('A' for Active; 'I' for Inactive)
REMARK    1  A    between atoms: C_2  and  C_24
REMARK    2  A    between atoms: N_3  and  C_4
REMARK    3  A    between atoms: C_4  and  C_5
REMARK    4  A    between atoms: C_5  and  O_6
REMARK    5  A    between atoms: C_5  and  C_7
REMARK    6  A    between atoms: C_10  and  C_11
REMARK    7  A    between atoms: C_11  and  C_12
REMARK    8  A    between atoms: C_12  and  C_13
REMARK    9  A    between atoms: C_13  and  C_15
REMARK                            x       y       z     vdW  Elec       q    Type
REMARK                         _______ _______ _______ _____ _____    ______ ____
ROOT
ATOM      1  C   UNL     1      49.616   9.748  15.006  0.00  0.00    +0.000 C 
ENDROOT
BRANCH   1   2
ATOM      2  C   UNL     1      49.326   9.225  16.394  0.00  0.00    +0.000 A 
ATOM      3  C   UNL     1      48.040   9.400  16.927  0.00  0.00    +0.000 A 
ATOM      4  C   UNL     1      47.726   8.937  18.208  0.00  0.00    +0.000 A 
ATOM      5  C   UNL     1      48.683   8.266  18.978  0.00  0.00    +0.000 A 
ATOM      6  C   UNL     1      49.962   8.077  18.442  0.00  0.00    +0.000 A 
ATOM      7  C   UNL     1      50.279   8.549  17.165  0.00  0.00    +0.000 A 
BRANCH   5   8
ATOM      8  C   UNL     1      48.347   7.745  20.359  0.00  0.00    +0.000 C 
BRANCH   8   9
ATOM      9  C   UNL     1      47.541   6.447  20.281  0.00  0.00    +0.000 C 
BRANCH   9  10
ATOM     10  C   UNL     1      48.378   5.208  20.513  0.00  0.00    +0.000 C 
ATOM     11  O   UNL     1      48.290   4.545  21.548  0.00  0.00    +0.000 OA
BRANCH  10  12
ATOM     12  C   UNL     1      49.284   4.713  19.434  0.00  0.00    +0.000 A 
ATOM     13  C   UNL     1      50.663   4.730  19.704  0.00  0.00    +0.000 A 
ATOM     14  C   UNL     1      51.576   4.278  18.750  0.00  0.00    +0.000 A 
ATOM     15  C   UNL     1      51.082   3.816  17.544  0.00  0.00    +0.000 A 
ATOM     16  N   UNL     1      49.772   3.789  17.244  0.00  0.00    +0.000 NA
ATOM     17  C   UNL     1      48.902   4.242  18.181  0.00  0.00    +0.000 A 
ATOM     18 CL   UNL     1      47.302   4.214  17.554  0.00  0.00    +0.000 Cl
ENDBRANCH  10  12
ENDBRANCH   9  10
ENDBRANCH   8   9
ENDBRANCH   5   8
ENDBRANCH   1   2
BRANCH   1  19
ATOM     19  O   UNL     1      48.519  10.560  14.561  0.00  0.00    +0.000 OA
ATOM     20  H   UNL     1      47.754   9.968  14.453  0.00  0.00    +0.000 HD
ENDBRANCH   1  19
BRANCH   1  21
ATOM     21  C   UNL     1      49.881   8.672  13.938  0.00  0.00    +0.000 C 
BRANCH  21  24
ATOM     22  O   UNL     1      48.961   6.137  14.808  0.00  0.00    +0.000 OA
ATOM     23  C   UNL     1      48.282   6.795  14.034  0.00  0.00    +0.000 C 
ATOM     24  N   UNL     1      48.639   8.029  13.544  0.00  0.00    +0.000 N 
ATOM     25  H   UNL     1      47.916   8.649  13.192  0.00  0.00    +0.000 HD
BRANCH  23  26
ATOM     26  C   UNL     1      46.967   6.303  13.579  0.00  0.00    +0.000 A 
ATOM     27  C   UNL     1      46.526   5.043  13.964  0.00  0.00    +0.000 A 
ATOM     28  N   UNL     1      45.317   4.527  13.613  0.00  0.00    +0.000 NA
ATOM     29  C   UNL     1      44.525   5.292  12.831  0.00  0.00    +0.000 A 
ATOM     30  N   UNL     1      43.285   4.726  12.510  0.00  0.00    +0.000 NA
ATOM     31  C   UNL     1      42.497   5.417  11.766  0.00  0.00    +0.000 A 
ATOM     32  N   UNL     1      42.795   6.655  11.268  0.00  0.00    +0.000 N 
ATOM     33  C   UNL     1      43.977   7.290  11.531  0.00  0.00    +0.000 A 
ATOM     34  O   UNL     1      44.244   8.401  11.093  0.00  0.00    +0.000 OA
ATOM     35  C   UNL     1      44.912   6.549  12.383  0.00  0.00    +0.000 A 
ATOM     36  C   UNL     1      46.147   7.069  12.752  0.00  0.00    +0.000 A 
ATOM     37  H   UNL     1      42.136   7.153  10.687  0.00  0.00    +0.000 HD
ENDBRANCH  23  26
ENDBRANCH  21  24
ENDBRANCH   1  21
TORSDOF 9
ENDMDL
MODEL 9
REMARK VINA RESULT:    -6.279      4.321      7.464
REMARK INTER + INTRA:         -11.072
REMARK INTER:                  -8.738
REMARK INTRA:                  -2.334
REMARK UNBOUND:                -1.673
REMARK  Name = 
REMARK  9 active torsions:
REMARK  status: ('A' for Active; 'I' for Inactive)
REMARK    1  A    between atoms: C_2  and  C_24
REMARK    2  A    between atoms: N_3  and  C_4
REMARK    3  A    between atoms: C_4  and  C_5
REMARK    4  A    between atoms: C_5  and  O_6
REMARK    5  A    between atoms: C_5  and  C_7
REMARK    6  A    between atoms: C_10  and  C_11
REMARK    7  A    between atoms: C_11  and  C_12
REMARK    8  A    between atoms: C_12  and  C_13
REMARK    9  A    between atoms: C_13  and  C_15
REMARK                            x       y       z     vdW  Elec       q    Type
REMARK                         _______ _______ _______ _____ _____    ______ ____
ROOT
ATOM      1  C   UNL     1      44.721   5.728  12.441  0.00  0.00    +0.000 C 
ENDROOT
BRANCH   1   2
ATOM      2  C   UNL     1      45.764   6.820  12.380  0.00  0.00    +0.000 A 
ATOM      3  C   UNL     1      46.997   6.545  11.770  0.00  0.00    +0.000 A 
ATOM      4  C   UNL     1      47.993   7.522  11.694  0.00  0.00    +0.000 A 
ATOM      5  C   UNL     1      47.772   8.807  12.202  0.00  0.00    +0.000 A 
ATOM      6  C   UNL     1      46.537   9.089  12.797  0.00  0.00    +0.000 A 
ATOM      7  C   UNL     1      45.544   8.108  12.882  0.00  0.00    +0.000 A 
BRANCH   5   8
ATOM      8  C   UNL     1      48.838   9.877  12.109  0.00  0.00    +0.000 C 
BRANCH   8   9
ATOM      9  C   UNL     1      49.581  10.037  13.436  0.00  0.00    +0.000 C 
BRANCH   9  10
ATOM     10  C   UNL     1      50.677   9.013  13.636  0.00  0.00    +0.000 C 
ATOM     11  O   UNL     1      51.244   8.469  12.687  0.00  0.00    +0.000 OA
BRANCH  10  12
ATOM     12  C   UNL     1      51.155   8.698  15.016  0.00  0.00    +0.000 A 
ATOM     13  C   UNL     1      51.299   7.339  15.345  0.00  0.00    +0.000 A 
ATOM     14  C   UNL     1      51.747   6.963  16.611  0.00  0.00    +0.000 A 
ATOM     15  C   UNL     1      52.044   7.961  17.522  0.00  0.00    +0.000 A 
ATOM     16  N   UNL     1      51.914   9.270  17.249  0.00  0.00    +0.000 NA
ATOM     17  C   UNL     1      51.468   9.616  16.015  0.00  0.00    +0.000 A 
ATOM     18 CL   UNL     1      51.280  11.321  15.918  0.00  0.00    +0.000 Cl
ENDBRANCH  10  12
ENDBRANCH   9  10
ENDBRANCH   8   9
ENDBRANCH   5   8
ENDBRANCH   1   2
BRANCH   1  19
ATOM     19  O   UNL     1      43.628   6.155  13.267  0.00  0.00    +0.000 OA
ATOM     20  H   UNL     1      42.853   5.624  13.010  0.00  0.00    +0.000 HD
ENDBRANCH   1  19
BRANCH   1  21
ATOM     21  C   UNL     1      45.219   4.370  12.969  0.00  0.00    +0.000 C 
BRANCH  21  24
ATOM     22  O   UNL     1      47.657   3.228  13.853  0.00  0.00    +0.000 OA
ATOM     23  C   UNL     1      47.006   3.929  14.613  0.00  0.00    +0.000 C 
ATOM     24  N   UNL     1      45.809   4.522  14.288  0.00  0.00    +0.000 N 
ATOM     25  H   UNL     1      45.498   5.331  14.817  0.00  0.00    +0.000 HD
BRANCH  23  26
ATOM     26  C   UNL     1      47.495   4.222  15.974  0.00  0.00    +0.000 A 
ATOM     27  C   UNL     1      47.686   3.187  16.880  0.00  0.00    +0.000 A 
ATOM     28  N   UNL     1      48.161   3.368  18.142  0.00  0.00    +0.000 NA
ATOM     29  C   UNL     1      48.439   4.634  18.520  0.00  0.00    +0.000 A 
ATOM     30  N   UNL     1      48.941   4.768  19.821  0.00  0.00    +0.000 NA
ATOM     31  C   UNL     1      49.218   5.956  20.226  0.00  0.00    +0.000 A 
ATOM     32  N   UNL     1      49.048   7.086  19.475  0.00  0.00    +0.000 N 
ATOM     33  C   UNL     1      48.570   7.054  18.194  0.00  0.00    +0.000 A 
ATOM     34  O   UNL     1      48.424   8.063  17.517  0.00  0.00    +0.000 OA
ATOM     35  C   UNL     1      48.244   5.722  17.677  0.00  0.00    +0.000 A 
ATOM     36  C   UNL     1      47.763   5.526  16.388  0.00  0.00    +0.000 A 
ATOM     37  H   UNL     1      49.283   7.996  19.846  0.00  0.00    +0.000 HD
ENDBRANCH  23  26
ENDBRANCH  21  24
ENDBRANCH   1  21
TORSDOF 9
ENDMDL
