MODEL 1
REMARK VINA RESULT:    -8.234      0.000      0.000
REMARK INTER + INTRA:         -13.897
REMARK INTER:                 -12.806
REMARK INTRA:                  -1.091
REMARK UNBOUND:                -1.091
REMARK  Name = 
REMARK  10 active torsions:
REMARK  status: ('A' for Active; 'I' for Inactive)
REMARK    1  A    between atoms: C_2  and  C_23
REMARK    2  A    between atoms: N_3  and  C_4
REMARK    3  A    between atoms: C_4  and  C_5
REMARK    4  A    between atoms: C_8  and  C_9
REMARK    5  A    between atoms: C_9  and  N_10
REMARK    6  A    between atoms: N_10  and  C_11
REMARK    7  A    between atoms: N_10  and  C_14
REMARK    8  A    between atoms: C_11  and  C_12
REMARK    9  A    between atoms: C_12  and  O_13
REMARK   10  A    between atoms: C_14  and  C_15
REMARK                            x       y       z     vdW  Elec       q    Type
REMARK                         _______ _______ _______ _____ _____    ______ ____
ROOT
ATOM      1  C   UNL     1      48.033   6.633  13.547  0.00  0.00    +0.000 A 
ATOM      2  C   UNL     1      47.107   5.622  13.834  0.00  0.00    +0.000 A 
ATOM      3  C   UNL     1      46.136   5.292  12.898  0.00  0.00    +0.000 A 
ATOM      4  C   UNL     1      46.065   5.984  11.682  0.00  0.00    +0.000 A 
ATOM      5  C   UNL     1      47.071   6.905  11.351  0.00  0.00    +0.000 A 
ATOM      6  C   UNL     1      48.055   7.221  12.274  0.00  0.00    +0.000 A 
ENDROOT
BRANCH   1   7
ATOM      7  C   UNL     1      49.031   7.054  14.573  0.00  0.00    +0.000 C 
BRANCH   7  10
ATOM      8  O   UNL     1      50.870   6.014  16.344  0.00  0.00    +0.000 OA
ATOM      9  C   UNL     1      49.683   5.923  16.618  0.00  0.00    +0.000 C 
ATOM     10  N   UNL     1      48.691   6.485  15.841  0.00  0.00    +0.000 N 
ATOM     11  H   UNL     1      47.786   6.091  15.937  0.00  0.00    +0.000 HD
BRANCH   9  12
ATOM     12  C   UNL     1      49.169   5.142  17.711  0.00  0.00    +0.000 A 
ATOM     13  C   UNL     1      47.810   4.923  17.883  0.00  0.00    +0.000 A 
ATOM     14  N   UNL     1      47.708   4.071  18.974  0.00  0.00    +0.000 N 
ATOM     15  C   UNL     1      48.734   4.485  19.803  0.00  0.00    +0.000 A 
ATOM     16  C   UNL     1      48.781   4.706  21.173  0.00  0.00    +0.000 A 
ATOM     17  C   UNL     1      50.034   5.034  21.694  0.00  0.00    +0.000 A 
ATOM     18  C   UNL     1      51.181   5.000  20.894  0.00  0.00    +0.000 A 
ATOM     19  C   UNL     1      51.090   4.836  19.506  0.00  0.00    +0.000 A 
ATOM     20  C   UNL     1      49.801   4.744  18.951  0.00  0.00    +0.000 A 
ATOM     21  H   UNL     1      47.606   3.086  18.794  0.00  0.00    +0.000 HD
ENDBRANCH   9  12
ENDBRANCH   7  10
ENDBRANCH   1   7
BRANCH   4  22
ATOM     22  C   UNL     1      44.866   5.819  10.787  0.00  0.00    +0.000 C 
BRANCH  22  23
ATOM     23  N   UNL     1      44.476   4.395  10.613  0.00  0.00    +0.000 NA
BRANCH  23  24
ATOM     24  C   UNL     1      43.237   4.083  11.376  0.00  0.00    +0.000 C 
BRANCH  24  25
ATOM     25  C   UNL     1      42.479   5.299  11.946  0.00  0.00    +0.000 C 
BRANCH  25  26
ATOM     26  O   UNL     1      42.587   5.339  13.368  0.00  0.00    +0.000 OA
ATOM     27  H   UNL     1      42.430   6.259  13.645  0.00  0.00    +0.000 HD
ENDBRANCH  25  26
ENDBRANCH  24  25
ENDBRANCH  23  24
BRANCH  23  28
ATOM     28  C   UNL     1      44.280   4.125   9.180  0.00  0.00    +0.000 C 
BRANCH  28  29
ATOM     29  C   UNL     1      45.368   3.294   8.534  0.00  0.00    +0.000 A 
ATOM     30  C   UNL     1      45.461   1.913   8.761  0.00  0.00    +0.000 A 
ATOM     31  C   UNL     1      46.389   1.145   8.054  0.00  0.00    +0.000 A 
ATOM     32  C   UNL     1      47.245   1.754   7.138  0.00  0.00    +0.000 A 
ATOM     33  C   UNL     1      47.201   3.133   6.950  0.00  0.00    +0.000 A 
ATOM     34  C   UNL     1      46.266   3.900   7.644  0.00  0.00    +0.000 A 
ENDBRANCH  28  29
ENDBRANCH  23  28
ENDBRANCH  22  23
ENDBRANCH   4  22
TORSDOF 10
ENDMDL
MODEL 2
REMARK VINA RESULT:    -8.216      1.895      2.729
REMARK INTER + INTRA:         -13.869
REMARK INTER:                 -12.565
REMARK INTRA:                  -1.304
REMARK UNBOUND:                -1.091
REMARK  Name = 
REMARK  10 active torsions:
REMARK  status: ('A' for Active; 'I' for Inactive)
REMARK    1  A    between atoms: C_2  and  C_23
REMARK    2  A    between atoms: N_3  and  C_4
REMARK    3  A    between atoms: C_4  and  C_5
REMARK    4  A    between atoms: C_8  and  C_9
REMARK    5  A    between atoms: C_9  and  N_10
REMARK    6  A    between atoms: N_10  and  C_11
REMARK    7  A    between atoms: N_10  and  C_14
REMARK    8  A    between atoms: C_11  and  C_12
REMARK    9  A    between atoms: C_12  and  O_13
REMARK   10  A    between atoms: C_14  and  C_15
REMARK                            x       y       z     vdW  Elec       q    Type
REMARK                         _______ _______ _______ _____ _____    ______ ____
ROOT
ATOM      1  C   UNL     1      46.946   8.077  12.865  0.00  0.00    +0.000 A 
ATOM      2  C   UNL     1      47.488   7.133  11.984  0.00  0.00    +0.000 A 
ATOM      3  C   UNL     1      46.643   6.322  11.239  0.00  0.00    +0.000 A 
ATOM      4  C   UNL     1      45.254   6.429  11.386  0.00  0.00    +0.000 A 
ATOM      5  C   UNL     1      44.718   7.460  12.173  0.00  0.00    +0.000 A 
ATOM      6  C   UNL     1      45.560   8.286  12.901  0.00  0.00    +0.000 A 
ENDROOT
BRANCH   1   7
ATOM      7  C   UNL     1      47.840   8.900  13.730  0.00  0.00    +0.000 C 
BRANCH   7  10
ATOM      8  O   UNL     1      50.003   7.383  14.520  0.00  0.00    +0.000 OA
ATOM      9  C   UNL     1      49.054   7.485  15.283  0.00  0.00    +0.000 C 
ATOM     10  N   UNL     1      47.964   8.288  15.018  0.00  0.00    +0.000 N 
ATOM     11  H   UNL     1      47.127   8.058  15.497  0.00  0.00    +0.000 HD
BRANCH   9  12
ATOM     12  C   UNL     1      48.907   6.713  16.487  0.00  0.00    +0.000 A 
ATOM     13  C   UNL     1      49.642   6.989  17.632  0.00  0.00    +0.000 A 
ATOM     14  N   UNL     1      49.174   6.106  18.594  0.00  0.00    +0.000 N 
ATOM     15  C   UNL     1      48.901   4.959  17.873  0.00  0.00    +0.000 A 
ATOM     16  C   UNL     1      49.173   3.621  18.130  0.00  0.00    +0.000 A 
ATOM     17  C   UNL     1      48.657   2.708  17.208  0.00  0.00    +0.000 A 
ATOM     18  C   UNL     1      47.807   3.123  16.177  0.00  0.00    +0.000 A 
ATOM     19  C   UNL     1      47.606   4.483  15.909  0.00  0.00    +0.000 A 
ATOM     20  C   UNL     1      48.319   5.407  16.694  0.00  0.00    +0.000 A 
ATOM     21  H   UNL     1      48.480   6.441  19.242  0.00  0.00    +0.000 HD
ENDBRANCH   9  12
ENDBRANCH   7  10
ENDBRANCH   1   7
BRANCH   4  22
ATOM     22  C   UNL     1      44.348   5.384  10.791  0.00  0.00    +0.000 C 
BRANCH  22  23
ATOM     23  N   UNL     1      45.073   4.136  10.435  0.00  0.00    +0.000 NA
BRANCH  23  24
ATOM     24  C   UNL     1      44.945   3.117  11.511  0.00  0.00    +0.000 C 
BRANCH  24  25
ATOM     25  C   UNL     1      43.553   3.008  12.165  0.00  0.00    +0.000 C 
BRANCH  25  26
ATOM     26  O   UNL     1      42.844   1.878  11.659  0.00  0.00    +0.000 OA
ATOM     27  H   UNL     1      42.729   2.012  10.702  0.00  0.00    +0.000 HD
ENDBRANCH  25  26
ENDBRANCH  24  25
ENDBRANCH  23  24
BRANCH  23  28
ATOM     28  C   UNL     1      44.536   3.616   9.167  0.00  0.00    +0.000 C 
BRANCH  28  29
ATOM     29  C   UNL     1      45.550   2.922   8.283  0.00  0.00    +0.000 A 
ATOM     30  C   UNL     1      46.309   3.638   7.345  0.00  0.00    +0.000 A 
ATOM     31  C   UNL     1      47.329   3.001   6.633  0.00  0.00    +0.000 A 
ATOM     32  C   UNL     1      47.579   1.645   6.834  0.00  0.00    +0.000 A 
ATOM     33  C   UNL     1      46.791   0.913   7.719  0.00  0.00    +0.000 A 
ATOM     34  C   UNL     1      45.781   1.548   8.440  0.00  0.00    +0.000 A 
ENDBRANCH  28  29
ENDBRANCH  23  28
ENDBRANCH  22  23
ENDBRANCH   4  22
TORSDOF 10
ENDMDL
MODEL 3
REMARK VINA RESULT:    -7.579      2.136      2.550
REMARK INTER + INTRA:         -12.880
REMARK INTER:                 -12.008
REMARK INTRA:                  -0.871
REMARK UNBOUND:                -1.091
REMARK  Name = 
REMARK  10 active torsions:
REMARK  status: ('A' for Active; 'I' for Inactive)
REMARK    1  A    between atoms: C_2  and  C_23
REMARK    2  A    between atoms: N_3  and  C_4
REMARK    3  A    between atoms: C_4  and  C_5
REMARK    4  A    between atoms: C_8  and  C_9
REMARK    5  A    between atoms: C_9  and  N_10
REMARK    6  A    between atoms: N_10  and  C_11
REMARK    7  A    between atoms: N_10  and  C_14
REMARK    8  A    between atoms: C_11  and  C_12
REMARK    9  A    between atoms: C_12  and  O_13
REMARK   10  A    between atoms: C_14  and  C_15
REMARK                            x       y       z     vdW  Elec       q    Type
REMARK                         _______ _______ _______ _____ _____    ______ ____
ROOT
ATOM      1  C   UNL     1      47.759   6.434  13.898  0.00  0.00    +0.000 A 
ATOM      2  C   UNL     1      47.270   7.549  13.206  0.00  0.00    +0.000 A 
ATOM      3  C   UNL     1      46.351   7.374  12.180  0.00  0.00    +0.000 A 
ATOM      4  C   UNL     1      45.934   6.087  11.820  0.00  0.00    +0.000 A 
ATOM      5  C   UNL     1      46.330   4.988  12.598  0.00  0.00    +0.000 A 
ATOM      6  C   UNL     1      47.230   5.162  13.638  0.00  0.00    +0.000 A 
ENDROOT
BRANCH   1   7
ATOM      7  C   UNL     1      48.806   6.598  14.948  0.00  0.00    +0.000 C 
BRANCH   7  10
ATOM      8  O   UNL     1      49.816   6.592  17.514  0.00  0.00    +0.000 OA
ATOM      9  C   UNL     1      48.830   7.275  17.278  0.00  0.00    +0.000 C 
ATOM     10  N   UNL     1      48.301   7.413  16.011  0.00  0.00    +0.000 N 
ATOM     11  H   UNL     1      47.349   7.687  15.964  0.00  0.00    +0.000 HD
BRANCH   9  12
ATOM     12  C   UNL     1      48.047   7.929  18.291  0.00  0.00    +0.000 A 
ATOM     13  C   UNL     1      47.990   9.312  18.399  0.00  0.00    +0.000 A 
ATOM     14  N   UNL     1      47.084   9.567  19.418  0.00  0.00    +0.000 N 
ATOM     15  C   UNL     1      47.306   8.535  20.311  0.00  0.00    +0.000 A 
ATOM     16  C   UNL     1      47.423   8.523  21.695  0.00  0.00    +0.000 A 
ATOM     17  C   UNL     1      47.552   7.263  22.283  0.00  0.00    +0.000 A 
ATOM     18  C   UNL     1      47.429   6.094  21.524  0.00  0.00    +0.000 A 
ATOM     19  C   UNL     1      47.375   6.144  20.125  0.00  0.00    +0.000 A 
ATOM     20  C   UNL     1      47.486   7.408  19.519  0.00  0.00    +0.000 A 
ATOM     21  H   UNL     1      46.135   9.782  19.161  0.00  0.00    +0.000 HD
ENDBRANCH   9  12
ENDBRANCH   7  10
ENDBRANCH   1   7
BRANCH   4  22
ATOM     22  C   UNL     1      45.155   5.871  10.550  0.00  0.00    +0.000 C 
BRANCH  22  23
ATOM     23  N   UNL     1      44.632   4.485  10.430  0.00  0.00    +0.000 NA
BRANCH  23  24
ATOM     24  C   UNL     1      43.356   4.327  11.177  0.00  0.00    +0.000 C 
BRANCH  24  25
ATOM     25  C   UNL     1      43.305   3.149  12.171  0.00  0.00    +0.000 C 
BRANCH  25  26
ATOM     26  O   UNL     1      43.130   1.913  11.481  0.00  0.00    +0.000 OA
ATOM     27  H   UNL     1      42.241   1.924  11.087  0.00  0.00    +0.000 HD
ENDBRANCH  25  26
ENDBRANCH  24  25
ENDBRANCH  23  24
BRANCH  23  28
ATOM     28  C   UNL     1      44.437   4.170   9.006  0.00  0.00    +0.000 C 
BRANCH  28  29
ATOM     29  C   UNL     1      45.501   3.280   8.398  0.00  0.00    +0.000 A 
ATOM     30  C   UNL     1      45.575   1.915   8.712  0.00  0.00    +0.000 A 
ATOM     31  C   UNL     1      46.480   1.087   8.042  0.00  0.00    +0.000 A 
ATOM     32  C   UNL     1      47.331   1.621   7.077  0.00  0.00    +0.000 A 
ATOM     33  C   UNL     1      47.307   2.986   6.802  0.00  0.00    +0.000 A 
ATOM     34  C   UNL     1      46.396   3.812   7.459  0.00  0.00    +0.000 A 
ENDBRANCH  28  29
ENDBRANCH  23  28
ENDBRANCH  22  23
ENDBRANCH   4  22
TORSDOF 10
ENDMDL
MODEL 4
REMARK VINA RESULT:    -7.335      1.931      9.248
REMARK INTER + INTRA:         -12.499
REMARK INTER:                 -11.059
REMARK INTRA:                  -1.440
REMARK UNBOUND:                -1.091
REMARK  Name = 
REMARK  10 active torsions:
REMARK  status: ('A' for Active; 'I' for Inactive)
REMARK    1  A    between atoms: C_2  and  C_23
REMARK    2  A    between atoms: N_3  and  C_4
REMARK    3  A    between atoms: C_4  and  C_5
REMARK    4  A    between atoms: C_8  and  C_9
REMARK    5  A    between atoms: C_9  and  N_10
REMARK    6  A    between atoms: N_10  and  C_11
REMARK    7  A    between atoms: N_10  and  C_14
REMARK    8  A    between atoms: C_11  and  C_12
REMARK    9  A    between atoms: C_12  and  O_13
REMARK   10  A    between atoms: C_14  and  C_15
REMARK                            x       y       z     vdW  Elec       q    Type
REMARK                         _______ _______ _______ _____ _____    ______ ____
ROOT
ATOM      1  C   UNL     1      46.071   7.468  12.346  0.00  0.00    +0.000 A 
ATOM      2  C   UNL     1      46.972   6.396  12.341  0.00  0.00    +0.000 A 
ATOM      3  C   UNL     1      48.139   6.474  13.088  0.00  0.00    +0.000 A 
ATOM      4  C   UNL     1      48.428   7.630  13.824  0.00  0.00    +0.000 A 
ATOM      5  C   UNL     1      47.464   8.645  13.926  0.00  0.00    +0.000 A 
ATOM      6  C   UNL     1      46.287   8.560  13.198  0.00  0.00    +0.000 A 
ENDROOT
BRANCH   1   7
ATOM      7  C   UNL     1      44.852   7.432  11.486  0.00  0.00    +0.000 C 
BRANCH   7  10
ATOM      8  O   UNL     1      42.605   5.834  11.421  0.00  0.00    +0.000 OA
ATOM      9  C   UNL     1      43.629   5.420  10.898  0.00  0.00    +0.000 C 
ATOM     10  N   UNL     1      44.779   6.177  10.802  0.00  0.00    +0.000 N 
ATOM     11  H   UNL     1      45.624   5.672  10.683  0.00  0.00    +0.000 HD
BRANCH   9  12
ATOM     12  C   UNL     1      43.795   4.076  10.415  0.00  0.00    +0.000 A 
ATOM     13  C   UNL     1      43.764   2.980  11.265  0.00  0.00    +0.000 A 
ATOM     14  N   UNL     1      43.871   1.869  10.440  0.00  0.00    +0.000 N 
ATOM     15  C   UNL     1      44.726   2.293   9.439  0.00  0.00    +0.000 A 
ATOM     16  C   UNL     1      45.813   1.678   8.832  0.00  0.00    +0.000 A 
ATOM     17  C   UNL     1      46.393   2.376   7.771  0.00  0.00    +0.000 A 
ATOM     18  C   UNL     1      45.817   3.552   7.278  0.00  0.00    +0.000 A 
ATOM     19  C   UNL     1      44.760   4.177   7.953  0.00  0.00    +0.000 A 
ATOM     20  C   UNL     1      44.331   3.596   9.159  0.00  0.00    +0.000 A 
ATOM     21  H   UNL     1      43.024   1.394  10.177  0.00  0.00    +0.000 HD
ENDBRANCH   9  12
ENDBRANCH   7  10
ENDBRANCH   1   7
BRANCH   4  22
ATOM     22  C   UNL     1      49.799   7.829  14.414  0.00  0.00    +0.000 C 
BRANCH  22  23
ATOM     23  N   UNL     1      50.165   6.760  15.379  0.00  0.00    +0.000 NA
BRANCH  23  24
ATOM     24  C   UNL     1      51.544   6.958  15.900  0.00  0.00    +0.000 C 
BRANCH  24  25
ATOM     25  C   UNL     1      51.642   7.482  17.348  0.00  0.00    +0.000 C 
BRANCH  25  26
ATOM     26  O   UNL     1      51.871   8.890  17.361  0.00  0.00    +0.000 OA
ATOM     27  H   UNL     1      51.154   9.296  17.878  0.00  0.00    +0.000 HD
ENDBRANCH  25  26
ENDBRANCH  24  25
ENDBRANCH  23  24
BRANCH  23  28
ATOM     28  C   UNL     1      49.192   6.760  16.484  0.00  0.00    +0.000 C 
BRANCH  28  29
ATOM     29  C   UNL     1      48.689   5.391  16.890  0.00  0.00    +0.000 A 
ATOM     30  C   UNL     1      49.043   4.821  18.121  0.00  0.00    +0.000 A 
ATOM     31  C   UNL     1      48.464   3.617  18.531  0.00  0.00    +0.000 A 
ATOM     32  C   UNL     1      47.550   2.966  17.706  0.00  0.00    +0.000 A 
ATOM     33  C   UNL     1      47.238   3.494  16.456  0.00  0.00    +0.000 A 
ATOM     34  C   UNL     1      47.804   4.701  16.050  0.00  0.00    +0.000 A 
ENDBRANCH  28  29
ENDBRANCH  23  28
ENDBRANCH  22  23
ENDBRANCH   4  22
TORSDOF 10
ENDMDL
MODEL 5
REMARK VINA RESULT:    -7.091      2.218      9.766
REMARK INTER + INTRA:         -12.120
REMARK INTER:                 -10.945
REMARK INTRA:                  -1.175
REMARK UNBOUND:                -1.091
REMARK  Name = 
REMARK  10 active torsions:
REMARK  status: ('A' for Active; 'I' for Inactive)
REMARK    1  A    between atoms: C_2  and  C_23
REMARK    2  A    between atoms: N_3  and  C_4
REMARK    3  A    between atoms: C_4  and  C_5
REMARK    4  A    between atoms: C_8  and  C_9
REMARK    5  A    between atoms: C_9  and  N_10
REMARK    6  A    between atoms: N_10  and  C_11
REMARK    7  A    between atoms: N_10  and  C_14
REMARK    8  A    between atoms: C_11  and  C_12
REMARK    9  A    between atoms: C_12  and  O_13
REMARK   10  A    between atoms: C_14  and  C_15
REMARK                            x       y       z     vdW  Elec       q    Type
REMARK                         _______ _______ _______ _____ _____    ______ ____
ROOT
ATOM      1  C   UNL     1      46.287   6.586  12.357  0.00  0.00    +0.000 A 
ATOM      2  C   UNL     1      46.034   5.541  13.253  0.00  0.00    +0.000 A 
ATOM      3  C   UNL     1      46.897   5.323  14.318  0.00  0.00    +0.000 A 
ATOM      4  C   UNL     1      48.032   6.128  14.482  0.00  0.00    +0.000 A 
ATOM      5  C   UNL     1      48.210   7.249  13.655  0.00  0.00    +0.000 A 
ATOM      6  C   UNL     1      47.337   7.483  12.605  0.00  0.00    +0.000 A 
ENDROOT
BRANCH   1   7
ATOM      7  C   UNL     1      45.414   6.784  11.163  0.00  0.00    +0.000 C 
BRANCH   7  10
ATOM      8  O   UNL     1      43.158   5.388  10.412  0.00  0.00    +0.000 OA
ATOM      9  C   UNL     1      44.251   4.941  10.097  0.00  0.00    +0.000 C 
ATOM     10  N   UNL     1      45.433   5.605  10.350  0.00  0.00    +0.000 N 
ATOM     11  H   UNL     1      46.251   5.046  10.375  0.00  0.00    +0.000 HD
BRANCH   9  12
ATOM     12  C   UNL     1      44.448   3.636   9.524  0.00  0.00    +0.000 A 
ATOM     13  C   UNL     1      44.264   2.474  10.260  0.00  0.00    +0.000 A 
ATOM     14  N   UNL     1      44.459   1.434   9.362  0.00  0.00    +0.000 N 
ATOM     15  C   UNL     1      45.460   1.906   8.534  0.00  0.00    +0.000 A 
ATOM     16  C   UNL     1      46.606   1.301   8.035  0.00  0.00    +0.000 A 
ATOM     17  C   UNL     1      47.352   2.063   7.133  0.00  0.00    +0.000 A 
ATOM     18  C   UNL     1      46.886   3.298   6.670  0.00  0.00    +0.000 A 
ATOM     19  C   UNL     1      45.761   3.906   7.242  0.00  0.00    +0.000 A 
ATOM     20  C   UNL     1      45.146   3.242   8.319  0.00  0.00    +0.000 A 
ATOM     21  H   UNL     1      43.645   1.017   8.941  0.00  0.00    +0.000 HD
ENDBRANCH   9  12
ENDBRANCH   7  10
ENDBRANCH   1   7
BRANCH   4  22
ATOM     22  C   UNL     1      49.103   5.735  15.463  0.00  0.00    +0.000 C 
BRANCH  22  23
ATOM     23  N   UNL     1      48.545   5.221  16.741  0.00  0.00    +0.000 NA
BRANCH  23  24
ATOM     24  C   UNL     1      48.777   3.758  16.876  0.00  0.00    +0.000 C 
BRANCH  24  25
ATOM     25  C   UNL     1      47.746   2.995  17.734  0.00  0.00    +0.000 C 
BRANCH  25  26
ATOM     26  O   UNL     1      46.428   3.487  17.496  0.00  0.00    +0.000 OA
ATOM     27  H   UNL     1      46.486   4.131  16.769  0.00  0.00    +0.000 HD
ENDBRANCH  25  26
ENDBRANCH  24  25
ENDBRANCH  23  24
BRANCH  23  28
ATOM     28  C   UNL     1      49.167   5.946  17.861  0.00  0.00    +0.000 C 
BRANCH  28  29
ATOM     29  C   UNL     1      48.437   7.201  18.291  0.00  0.00    +0.000 A 
ATOM     30  C   UNL     1      47.750   7.261  19.512  0.00  0.00    +0.000 A 
ATOM     31  C   UNL     1      47.195   8.467  19.948  0.00  0.00    +0.000 A 
ATOM     32  C   UNL     1      47.302   9.610  19.158  0.00  0.00    +0.000 A 
ATOM     33  C   UNL     1      47.930   9.546  17.917  0.00  0.00    +0.000 A 
ATOM     34  C   UNL     1      48.496   8.347  17.485  0.00  0.00    +0.000 A 
ENDBRANCH  28  29
ENDBRANCH  23  28
ENDBRANCH  22  23
ENDBRANCH   4  22
TORSDOF 10
ENDMDL
MODEL 6
REMARK VINA RESULT:    -7.034      4.369     11.494
REMARK INTER + INTRA:         -12.031
REMARK INTER:                 -10.914
REMARK INTRA:                  -1.117
REMARK UNBOUND:                -1.091
REMARK  Name = 
REMARK  10 active torsions:
REMARK  status: ('A' for Active; 'I' for Inactive)
REMARK    1  A    between atoms: C_2  and  C_23
REMARK    2  A    between atoms: N_3  and  C_4
REMARK    3  A    between atoms: C_4  and  C_5
REMARK    4  A    between atoms: C_8  and  C_9
REMARK    5  A    between atoms: C_9  and  N_10
REMARK    6  A    between atoms: N_10  and  C_11
REMARK    7  A    between atoms: N_10  and  C_14
REMARK    8  A    between atoms: C_11  and  C_12
REMARK    9  A    between atoms: C_12  and  O_13
REMARK   10  A    between atoms: C_14  and  C_15
REMARK                            x       y       z     vdW  Elec       q    Type
REMARK                         _______ _______ _______ _____ _____    ______ ____
ROOT
ATOM      1  C   UNL     1      46.536   2.091   7.731  0.00  0.00    +0.000 A 
ATOM      2  C   UNL     1      45.587   1.369   8.464  0.00  0.00    +0.000 A 
ATOM      3  C   UNL     1      44.587   2.045   9.150  0.00  0.00    +0.000 A 
ATOM      4  C   UNL     1      44.541   3.445   9.129  0.00  0.00    +0.000 A 
ATOM      5  C   UNL     1      45.417   4.154   8.292  0.00  0.00    +0.000 A 
ATOM      6  C   UNL     1      46.403   3.480   7.589  0.00  0.00    +0.000 A 
ENDROOT
BRANCH   1   7
ATOM      7  C   UNL     1      47.664   1.385   7.056  0.00  0.00    +0.000 C 
BRANCH   7  10
ATOM      8  O   UNL     1      48.318   2.236   4.516  0.00  0.00    +0.000 OA
ATOM      9  C   UNL     1      47.521   1.317   4.635  0.00  0.00    +0.000 C 
ATOM     10  N   UNL     1      47.195   0.762   5.855  0.00  0.00    +0.000 N 
ATOM     11  H   UNL     1      46.329   0.282   5.898  0.00  0.00    +0.000 HD
BRANCH   9  12
ATOM     12  C   UNL     1      46.757   0.772   3.545  0.00  0.00    +0.000 A 
ATOM     13  C   UNL     1      45.502   1.260   3.210  0.00  0.00    +0.000 A 
ATOM     14  N   UNL     1      45.122   0.558   2.076  0.00  0.00    +0.000 N 
ATOM     15  C   UNL     1      45.643  -0.705   2.290  0.00  0.00    +0.000 A 
ATOM     16  C   UNL     1      45.100  -1.970   2.109  0.00  0.00    +0.000 A 
ATOM     17  C   UNL     1      45.963  -3.042   2.342  0.00  0.00    +0.000 A 
ATOM     18  C   UNL     1      47.322  -2.833   2.604  0.00  0.00    +0.000 A 
ATOM     19  C   UNL     1      47.822  -1.546   2.842  0.00  0.00    +0.000 A 
ATOM     20  C   UNL     1      46.899  -0.485   2.842  0.00  0.00    +0.000 A 
ATOM     21  H   UNL     1      45.272   0.992   1.180  0.00  0.00    +0.000 HD
ENDBRANCH   9  12
ENDBRANCH   7  10
ENDBRANCH   1   7
BRANCH   4  22
ATOM     22  C   UNL     1      43.634   4.186  10.075  0.00  0.00    +0.000 C 
BRANCH  22  23
ATOM     23  N   UNL     1      44.338   5.271  10.808  0.00  0.00    +0.000 NA
BRANCH  23  24
ATOM     24  C   UNL     1      43.371   6.243  11.384  0.00  0.00    +0.000 C 
BRANCH  24  25
ATOM     25  C   UNL     1      43.711   7.732  11.166  0.00  0.00    +0.000 C 
BRANCH  25  26
ATOM     26  O   UNL     1      42.536   8.474  10.841  0.00  0.00    +0.000 OA
ATOM     27  H   UNL     1      41.978   7.905  10.284  0.00  0.00    +0.000 HD
ENDBRANCH  25  26
ENDBRANCH  24  25
ENDBRANCH  23  24
BRANCH  23  28
ATOM     28  C   UNL     1      45.161   4.672  11.871  0.00  0.00    +0.000 C 
BRANCH  28  29
ATOM     29  C   UNL     1      46.356   5.501  12.294  0.00  0.00    +0.000 A 
ATOM     30  C   UNL     1      46.907   6.472  11.444  0.00  0.00    +0.000 A 
ATOM     31  C   UNL     1      47.923   7.313  11.904  0.00  0.00    +0.000 A 
ATOM     32  C   UNL     1      48.411   7.174  13.202  0.00  0.00    +0.000 A 
ATOM     33  C   UNL     1      47.912   6.174  14.032  0.00  0.00    +0.000 A 
ATOM     34  C   UNL     1      46.888   5.342  13.581  0.00  0.00    +0.000 A 
ENDBRANCH  28  29
ENDBRANCH  23  28
ENDBRANCH  22  23
ENDBRANCH   4  22
TORSDOF 10
ENDMDL
MODEL 7
REMARK VINA RESULT:    -6.934      2.550      3.171
REMARK INTER + INTRA:         -11.876
REMARK INTER:                 -10.718
REMARK INTRA:                  -1.158
REMARK UNBOUND:                -1.091
REMARK  Name = 
REMARK  10 active torsions:
REMARK  status: ('A' for Active; 'I' for Inactive)
REMARK    1  A    between atoms: C_2  and  C_23
REMARK    2  A    between atoms: N_3  and  C_4
REMARK    3  A    between atoms: C_4  and  C_5
REMARK    4  A    between atoms: C_8  and  C_9
REMARK    5  A    between atoms: C_9  and  N_10
REMARK    6  A    between atoms: N_10  and  C_11
REMARK    7  A    between atoms: N_10  and  C_14
REMARK    8  A    between atoms: C_11  and  C_12
REMARK    9  A    between atoms: C_12  and  O_13
REMARK   10  A    between atoms: C_14  and  C_15
REMARK                            x       y       z     vdW  Elec       q    Type
REMARK                         _______ _______ _______ _____ _____    ______ ____
ROOT
ATOM      1  C   UNL     1      48.297   8.481  13.481  0.00  0.00    +0.000 A 
ATOM      2  C   UNL     1      48.612   7.654  12.396  0.00  0.00    +0.000 A 
ATOM      3  C   UNL     1      47.593   7.130  11.612  0.00  0.00    +0.000 A 
ATOM      4  C   UNL     1      46.254   7.405  11.920  0.00  0.00    +0.000 A 
ATOM      5  C   UNL     1      45.953   8.334  12.928  0.00  0.00    +0.000 A 
ATOM      6  C   UNL     1      46.970   8.877  13.698  0.00  0.00    +0.000 A 
ENDROOT
BRANCH   1   7
ATOM      7  C   UNL     1      49.375   8.988  14.380  0.00  0.00    +0.000 C 
BRANCH   7  10
ATOM      8  O   UNL     1      49.777   7.599  16.728  0.00  0.00    +0.000 OA
ATOM      9  C   UNL     1      49.017   8.556  16.740  0.00  0.00    +0.000 C 
ATOM     10  N   UNL     1      48.815   9.365  15.642  0.00  0.00    +0.000 N 
ATOM     11  H   UNL     1      47.968   9.881  15.630  0.00  0.00    +0.000 HD
BRANCH   9  12
ATOM     12  C   UNL     1      48.171   8.893  17.853  0.00  0.00    +0.000 A 
ATOM     13  C   UNL     1      48.081  10.189  18.342  0.00  0.00    +0.000 A 
ATOM     14  N   UNL     1      47.120  10.141  19.342  0.00  0.00    +0.000 N 
ATOM     15  C   UNL     1      47.318   8.901  19.920  0.00  0.00    +0.000 A 
ATOM     16  C   UNL     1      47.367   8.499  21.248  0.00  0.00    +0.000 A 
ATOM     17  C   UNL     1      47.492   7.125  21.464  0.00  0.00    +0.000 A 
ATOM     18  C   UNL     1      47.431   6.217  20.401  0.00  0.00    +0.000 A 
ATOM     19  C   UNL     1      47.446   6.659  19.072  0.00  0.00    +0.000 A 
ATOM     20  C   UNL     1      47.560   8.044  18.853  0.00  0.00    +0.000 A 
ATOM     21  H   UNL     1      46.181  10.415  19.106  0.00  0.00    +0.000 HD
ENDBRANCH   9  12
ENDBRANCH   7  10
ENDBRANCH   1   7
BRANCH   4  22
ATOM     22  C   UNL     1      45.149   6.634  11.249  0.00  0.00    +0.000 C 
BRANCH  22  23
ATOM     23  N   UNL     1      45.251   5.170  11.485  0.00  0.00    +0.000 NA
BRANCH  23  24
ATOM     24  C   UNL     1      44.902   4.829  12.890  0.00  0.00    +0.000 C 
BRANCH  24  25
ATOM     25  C   UNL     1      46.091   4.476  13.807  0.00  0.00    +0.000 C 
BRANCH  25  26
ATOM     26  O   UNL     1      46.559   3.155  13.539  0.00  0.00    +0.000 OA
ATOM     27  H   UNL     1      47.372   3.024  14.057  0.00  0.00    +0.000 HD
ENDBRANCH  25  26
ENDBRANCH  24  25
ENDBRANCH  23  24
BRANCH  23  28
ATOM     28  C   UNL     1      44.356   4.472  10.548  0.00  0.00    +0.000 C 
BRANCH  28  29
ATOM     29  C   UNL     1      45.056   3.759   9.410  0.00  0.00    +0.000 A 
ATOM     30  C   UNL     1      45.717   4.474   8.401  0.00  0.00    +0.000 A 
ATOM     31  C   UNL     1      46.465   3.797   7.434  0.00  0.00    +0.000 A 
ATOM     32  C   UNL     1      46.536   2.406   7.455  0.00  0.00    +0.000 A 
ATOM     33  C   UNL     1      45.833   1.685   8.417  0.00  0.00    +0.000 A 
ATOM     34  C   UNL     1      45.097   2.358   9.391  0.00  0.00    +0.000 A 
ENDBRANCH  28  29
ENDBRANCH  23  28
ENDBRANCH  22  23
ENDBRANCH   4  22
TORSDOF 10
ENDMDL
MODEL 8
REMARK VINA RESULT:    -6.925      1.868      2.596
REMARK INTER + INTRA:         -11.862
REMARK INTER:                 -11.224
REMARK INTRA:                  -0.638
REMARK UNBOUND:                -1.091
REMARK  Name = 
REMARK  10 active torsions:
REMARK  status: ('A' for Active; 'I' for Inactive)
REMARK    1  A    between atoms: C_2  and  C_23
REMARK    2  A    between atoms: N_3  and  C_4
REMARK    3  A    between atoms: C_4  and  C_5
REMARK    4  A    between atoms: C_8  and  C_9
REMARK    5  A    between atoms: C_9  and  N_10
REMARK    6  A    between atoms: N_10  and  C_11
REMARK    7  A    between atoms: N_10  and  C_14
REMARK    8  A    between atoms: C_11  and  C_12
REMARK    9  A    between atoms: C_12  and  O_13
REMARK   10  A    between atoms: C_14  and  C_15
REMARK                            x       y       z     vdW  Elec       q    Type
REMARK                         _______ _______ _______ _____ _____    ______ ____
ROOT
ATOM      1  C   UNL     1      48.809   7.469  13.803  0.00  0.00    +0.000 A 
ATOM      2  C   UNL     1      48.459   8.323  12.750  0.00  0.00    +0.000 A 
ATOM      3  C   UNL     1      47.512   7.916  11.820  0.00  0.00    +0.000 A 
ATOM      4  C   UNL     1      46.927   6.648  11.919  0.00  0.00    +0.000 A 
ATOM      5  C   UNL     1      47.188   5.851  13.045  0.00  0.00    +0.000 A 
ATOM      6  C   UNL     1      48.117   6.264  13.987  0.00  0.00    +0.000 A 
ENDROOT
BRANCH   1   7
ATOM      7  C   UNL     1      49.882   7.859  14.764  0.00  0.00    +0.000 C 
BRANCH   7  10
ATOM      8  O   UNL     1      49.840   7.961  17.519  0.00  0.00    +0.000 OA
ATOM      9  C   UNL     1      50.219   6.932  16.981  0.00  0.00    +0.000 C 
ATOM     10  N   UNL     1      50.197   6.750  15.613  0.00  0.00    +0.000 N 
ATOM     11  H   UNL     1      50.811   6.060  15.255  0.00  0.00    +0.000 HD
BRANCH   9  12
ATOM     12  C   UNL     1      50.823   5.834  17.686  0.00  0.00    +0.000 A 
ATOM     13  C   UNL     1      52.145   5.869  18.108  0.00  0.00    +0.000 A 
ATOM     14  N   UNL     1      52.339   4.691  18.814  0.00  0.00    +0.000 N 
ATOM     15  C   UNL     1      51.568   3.772  18.126  0.00  0.00    +0.000 A 
ATOM     16  C   UNL     1      51.826   2.469  17.722  0.00  0.00    +0.000 A 
ATOM     17  C   UNL     1      50.760   1.797  17.121  0.00  0.00    +0.000 A 
ATOM     18  C   UNL     1      49.484   2.367  17.064  0.00  0.00    +0.000 A 
ATOM     19  C   UNL     1      49.274   3.705  17.423  0.00  0.00    +0.000 A 
ATOM     20  C   UNL     1      50.401   4.455  17.805  0.00  0.00    +0.000 A 
ATOM     21  H   UNL     1      52.263   4.724  19.817  0.00  0.00    +0.000 HD
ENDBRANCH   9  12
ENDBRANCH   7  10
ENDBRANCH   1   7
BRANCH   4  22
ATOM     22  C   UNL     1      46.110   6.100  10.780  0.00  0.00    +0.000 C 
BRANCH  22  23
ATOM     23  N   UNL     1      44.992   5.236  11.243  0.00  0.00    +0.000 NA
BRANCH  23  24
ATOM     24  C   UNL     1      44.046   5.999  12.100  0.00  0.00    +0.000 C 
BRANCH  24  25
ATOM     25  C   UNL     1      42.656   5.359  12.295  0.00  0.00    +0.000 C 
BRANCH  25  26
ATOM     26  O   UNL     1      41.628   6.236  11.837  0.00  0.00    +0.000 OA
ATOM     27  H   UNL     1      40.867   5.684  11.584  0.00  0.00    +0.000 HD
ENDBRANCH  25  26
ENDBRANCH  24  25
ENDBRANCH  23  24
BRANCH  23  28
ATOM     28  C   UNL     1      44.295   4.687  10.069  0.00  0.00    +0.000 C 
BRANCH  28  29
ATOM     29  C   UNL     1      45.144   3.805   9.178  0.00  0.00    +0.000 A 
ATOM     30  C   UNL     1      45.211   2.418   9.380  0.00  0.00    +0.000 A 
ATOM     31  C   UNL     1      45.895   1.608   8.469  0.00  0.00    +0.000 A 
ATOM     32  C   UNL     1      46.533   2.179   7.370  0.00  0.00    +0.000 A 
ATOM     33  C   UNL     1      46.522   3.560   7.195  0.00  0.00    +0.000 A 
ATOM     34  C   UNL     1      45.830   4.370   8.094  0.00  0.00    +0.000 A 
ENDBRANCH  28  29
ENDBRANCH  23  28
ENDBRANCH  22  23
ENDBRANCH   4  22
TORSDOF 10
ENDMDL
MODEL 9
REMARK VINA RESULT:    -6.709      3.631      6.065
REMARK INTER + INTRA:         -11.525
REMARK INTER:                 -10.682
REMARK INTRA:                  -0.844
REMARK UNBOUND:                -1.091
REMARK  Name = 
REMARK  10 active torsions:
REMARK  status: ('A' for Active; 'I' for Inactive)
REMARK    1  A    between atoms: C_2  and  C_23
REMARK    2  A    between atoms: N_3  and  C_4
REMARK    3  A    between atoms: C_4  and  C_5
REMARK    4  A    between atoms: C_8  and  C_9
REMARK    5  A    between atoms: C_9  and  N_10
REMARK    6  A    between atoms: N_10  and  C_11
REMARK    7  A    between atoms: N_10  and  C_14
REMARK    8  A    between atoms: C_11  and  C_12
REMARK    9  A    between atoms: C_12  and  O_13
REMARK   10  A    between atoms: C_14  and  C_15
REMARK                            x       y       z     vdW  Elec       q    Type
REMARK                         _______ _______ _______ _____ _____    ______ ____
ROOT
ATOM      1  C   UNL     1      47.590   6.661  13.496  0.00  0.00    +0.000 A 
ATOM      2  C   UNL     1      47.094   5.365  13.683  0.00  0.00    +0.000 A 
ATOM      3  C   UNL     1      46.236   4.814  12.741  0.00  0.00    +0.000 A 
ATOM      4  C   UNL     1      45.847   5.560  11.621  0.00  0.00    +0.000 A 
ATOM      5  C   UNL     1      46.446   6.806  11.377  0.00  0.00    +0.000 A 
ATOM      6  C   UNL     1      47.320   7.349  12.305  0.00  0.00    +0.000 A 
ENDROOT
BRANCH   1   7
ATOM      7  C   UNL     1      48.448   7.296  14.539  0.00  0.00    +0.000 C 
BRANCH   7  10
ATOM      8  O   UNL     1      48.939   9.931  15.190  0.00  0.00    +0.000 OA
ATOM      9  C   UNL     1      49.561   9.435  14.262  0.00  0.00    +0.000 C 
ATOM     10  N   UNL     1      49.450   8.105  13.913  0.00  0.00    +0.000 N 
ATOM     11  H   UNL     1      49.708   7.875  12.983  0.00  0.00    +0.000 HD
BRANCH   9  12
ATOM     12  C   UNL     1      50.395  10.186  13.364  0.00  0.00    +0.000 A 
ATOM     13  C   UNL     1      51.541  10.839  13.797  0.00  0.00    +0.000 A 
ATOM     14  N   UNL     1      52.118  11.372  12.653  0.00  0.00    +0.000 N 
ATOM     15  C   UNL     1      51.029  11.738  11.883  0.00  0.00    +0.000 A 
ATOM     16  C   UNL     1      50.763  12.884  11.147  0.00  0.00    +0.000 A 
ATOM     17  C   UNL     1      49.582  12.869  10.403  0.00  0.00    +0.000 A 
ATOM     18  C   UNL     1      48.800  11.712  10.309  0.00  0.00    +0.000 A 
ATOM     19  C   UNL     1      49.063  10.596  11.115  0.00  0.00    +0.000 A 
ATOM     20  C   UNL     1      50.116  10.702  12.040  0.00  0.00    +0.000 A 
ATOM     21  H   UNL     1      52.861  10.854  12.215  0.00  0.00    +0.000 HD
ENDBRANCH   9  12
ENDBRANCH   7  10
ENDBRANCH   1   7
BRANCH   4  22
ATOM     22  C   UNL     1      44.721   5.079  10.744  0.00  0.00    +0.000 C 
BRANCH  22  23
ATOM     23  N   UNL     1      45.044   3.805  10.049  0.00  0.00    +0.000 NA
BRANCH  23  24
ATOM     24  C   UNL     1      44.059   2.744  10.390  0.00  0.00    +0.000 C 
BRANCH  24  25
ATOM     25  C   UNL     1      43.350   2.904  11.751  0.00  0.00    +0.000 C 
BRANCH  25  26
ATOM     26  O   UNL     1      43.323   1.663  12.455  0.00  0.00    +0.000 OA
ATOM     27  H   UNL     1      44.198   1.251  12.349  0.00  0.00    +0.000 HD
ENDBRANCH  25  26
ENDBRANCH  24  25
ENDBRANCH  23  24
BRANCH  23  28
ATOM     28  C   UNL     1      45.062   4.044   8.598  0.00  0.00    +0.000 C 
BRANCH  28  29
ATOM     29  C   UNL     1      45.955   3.110   7.809  0.00  0.00    +0.000 A 
ATOM     30  C   UNL     1      46.257   1.823   8.277  0.00  0.00    +0.000 A 
ATOM     31  C   UNL     1      46.974   0.933   7.474  0.00  0.00    +0.000 A 
ATOM     32  C   UNL     1      47.415   1.330   6.213  0.00  0.00    +0.000 A 
ATOM     33  C   UNL     1      47.172   2.626   5.765  0.00  0.00    +0.000 A 
ATOM     34  C   UNL     1      46.445   3.512   6.558  0.00  0.00    +0.000 A 
ENDBRANCH  28  29
ENDBRANCH  23  28
ENDBRANCH  22  23
ENDBRANCH   4  22
TORSDOF 10
ENDMDL
