MODEL 1
REMARK VINA RESULT:    -8.697      0.000      0.000
REMARK INTER + INTRA:         -11.469
REMARK INTER:                 -11.239
REMARK INTRA:                  -0.230
REMARK UNBOUND:                -0.230
REMARK  Name = 
REMARK  5 active torsions:
REMARK  status: ('A' for Active; 'I' for Inactive)
REMARK    1  A    between atoms: C_2  and  C_18
REMARK    2  A    between atoms: N_3  and  C_4
REMARK    3  A    between atoms: C_4  and  C_5
REMARK    4  A    between atoms: C_8  and  C_9
REMARK    5  A    between atoms: C_9  and  C_10
REMARK                            x       y       z     vdW  Elec       q    Type
REMARK                         _______ _______ _______ _____ _____    ______ ____
ROOT
ATOM      1  O   UNL     1      46.726   3.135  13.691  0.00  0.00    +0.000 OA
ATOM      2  C   UNL     1      46.441   4.270  14.061  0.00  0.00    +0.000 C 
ATOM      3  N   UNL     1      45.225   4.845  13.784  0.00  0.00    +0.000 N 
ATOM      4  H   UNL     1      45.113   5.848  13.893  0.00  0.00    +0.000 HD
ENDROOT
BRANCH   2   5
ATOM      5  C   UNL     1      47.372   5.067  14.863  0.00  0.00    +0.000 A 
ATOM      6  C   UNL     1      48.051   6.129  14.288  0.00  0.00    +0.000 A 
ATOM      7  S   UNL     1      49.089   6.943  15.370  0.00  0.00    +0.000 S 
ATOM      8  C   UNL     1      48.630   5.928  16.656  0.00  0.00    +0.000 A 
ATOM      9  N   UNL     1      49.130   6.112  17.909  0.00  0.00    +0.000 NA
ATOM     10  C   UNL     1      48.669   5.291  18.793  0.00  0.00    +0.000 A 
ATOM     11  N   UNL     1      47.760   4.295  18.537  0.00  0.00    +0.000 N 
ATOM     12  C   UNL     1      47.257   4.050  17.285  0.00  0.00    +0.000 A 
ATOM     13  O   UNL     1      46.492   3.111  17.076  0.00  0.00    +0.000 OA
ATOM     14  C   UNL     1      47.723   4.962  16.258  0.00  0.00    +0.000 A 
ATOM     15  H   UNL     1      47.451   3.676  19.271  0.00  0.00    +0.000 HD
ENDBRANCH   2   5
BRANCH   3  16
ATOM     16  C   UNL     1      44.285   4.175  12.925  0.00  0.00    +0.000 C 
BRANCH  16  17
ATOM     17  C   UNL     1      44.708   4.213  11.480  0.00  0.00    +0.000 A 
ATOM     18  C   UNL     1      45.408   5.318  10.981  0.00  0.00    +0.000 A 
ATOM     19  C   UNL     1      45.853   5.339   9.657  0.00  0.00    +0.000 A 
ATOM     20  C   UNL     1      45.599   4.261   8.800  0.00  0.00    +0.000 A 
ATOM     21  C   UNL     1      44.866   3.173   9.288  0.00  0.00    +0.000 A 
ATOM     22  C   UNL     1      44.414   3.154  10.612  0.00  0.00    +0.000 A 
BRANCH  20  23
ATOM     23  C   UNL     1      46.085   4.282   7.369  0.00  0.00    +0.000 C 
BRANCH  23  24
ATOM     24  C   UNL     1      46.156   2.901   6.674  0.00  0.00    +0.000 C 
ATOM     25  C   UNL     1      46.907   1.867   7.531  0.00  0.00    +0.000 C 
ATOM     26  C   UNL     1      47.348   0.642   6.742  0.00  0.00    +0.000 C 
ATOM     27  O   UNL     1      48.074   1.026   5.579  0.00  0.00    +0.000 OA
ATOM     28  C   UNL     1      47.248   1.748   4.672  0.00  0.00    +0.000 C 
ATOM     29  C   UNL     1      46.812   3.069   5.289  0.00  0.00    +0.000 C 
ENDBRANCH  23  24
ENDBRANCH  20  23
ENDBRANCH  16  17
ENDBRANCH   3  16
TORSDOF 5
ENDMDL
MODEL 2
REMARK VINA RESULT:    -8.410      1.557      2.277
REMARK INTER + INTRA:         -11.098
REMARK INTER:                 -10.264
REMARK INTRA:                  -0.834
REMARK UNBOUND:                -0.230
REMARK  Name = 
REMARK  5 active torsions:
REMARK  status: ('A' for Active; 'I' for Inactive)
REMARK    1  A    between atoms: C_2  and  C_18
REMARK    2  A    between atoms: N_3  and  C_4
REMARK    3  A    between atoms: C_4  and  C_5
REMARK    4  A    between atoms: C_8  and  C_9
REMARK    5  A    between atoms: C_9  and  C_10
REMARK                            x       y       z     vdW  Elec       q    Type
REMARK                         _______ _______ _______ _____ _____    ______ ____
ROOT
ATOM      1  O   UNL     1      47.986   7.538  12.702  0.00  0.00    +0.000 OA
ATOM      2  C   UNL     1      47.416   7.002  13.646  0.00  0.00    +0.000 C 
ATOM      3  N   UNL     1      46.071   6.723  13.626  0.00  0.00    +0.000 N 
ATOM      4  H   UNL     1      45.595   6.503  14.495  0.00  0.00    +0.000 HD
ENDROOT
BRANCH   2   5
ATOM      5  C   UNL     1      48.150   6.582  14.842  0.00  0.00    +0.000 A 
ATOM      6  C   UNL     1      49.112   7.414  15.394  0.00  0.00    +0.000 A 
ATOM      7  S   UNL     1      49.862   6.764  16.781  0.00  0.00    +0.000 S 
ATOM      8  C   UNL     1      48.894   5.366  16.715  0.00  0.00    +0.000 A 
ATOM      9  N   UNL     1      49.001   4.393  17.660  0.00  0.00    +0.000 NA
ATOM     10  C   UNL     1      48.181   3.407  17.505  0.00  0.00    +0.000 A 
ATOM     11  N   UNL     1      47.270   3.300  16.483  0.00  0.00    +0.000 N 
ATOM     12  C   UNL     1      47.152   4.237  15.491  0.00  0.00    +0.000 A 
ATOM     13  O   UNL     1      46.370   4.083  14.555  0.00  0.00    +0.000 OA
ATOM     14  C   UNL     1      48.034   5.382  15.632  0.00  0.00    +0.000 A 
ATOM     15  H   UNL     1      46.668   2.495  16.411  0.00  0.00    +0.000 HD
ENDBRANCH   2   5
BRANCH   3  16
ATOM     16  C   UNL     1      45.252   7.181  12.534  0.00  0.00    +0.000 C 
BRANCH  16  17
ATOM     17  C   UNL     1      45.185   6.178  11.413  0.00  0.00    +0.000 A 
ATOM     18  C   UNL     1      44.194   5.188  11.413  0.00  0.00    +0.000 A 
ATOM     19  C   UNL     1      44.089   4.288  10.350  0.00  0.00    +0.000 A 
ATOM     20  C   UNL     1      44.978   4.350   9.269  0.00  0.00    +0.000 A 
ATOM     21  C   UNL     1      45.992   5.315   9.288  0.00  0.00    +0.000 A 
ATOM     22  C   UNL     1      46.102   6.214  10.355  0.00  0.00    +0.000 A 
BRANCH  20  23
ATOM     23  C   UNL     1      44.859   3.380   8.117  0.00  0.00    +0.000 C 
BRANCH  23  24
ATOM     24  C   UNL     1      46.194   2.768   7.628  0.00  0.00    +0.000 C 
ATOM     25  C   UNL     1      46.415   3.008   6.124  0.00  0.00    +0.000 C 
ATOM     26  C   UNL     1      47.482   2.103   5.524  0.00  0.00    +0.000 C 
ATOM     27  O   UNL     1      47.217   0.738   5.831  0.00  0.00    +0.000 OA
ATOM     28  C   UNL     1      47.304   0.500   7.232  0.00  0.00    +0.000 C 
ATOM     29  C   UNL     1      46.212   1.264   7.967  0.00  0.00    +0.000 C 
ENDBRANCH  23  24
ENDBRANCH  20  23
ENDBRANCH  16  17
ENDBRANCH   3  16
TORSDOF 5
ENDMDL
MODEL 3
REMARK VINA RESULT:    -8.189      2.166      3.335
REMARK INTER + INTRA:         -10.813
REMARK INTER:                 -10.149
REMARK INTRA:                  -0.664
REMARK UNBOUND:                -0.230
REMARK  Name = 
REMARK  5 active torsions:
REMARK  status: ('A' for Active; 'I' for Inactive)
REMARK    1  A    between atoms: C_2  and  C_18
REMARK    2  A    between atoms: N_3  and  C_4
REMARK    3  A    between atoms: C_4  and  C_5
REMARK    4  A    between atoms: C_8  and  C_9
REMARK    5  A    between atoms: C_9  and  C_10
REMARK                            x       y       z     vdW  Elec       q    Type
REMARK                         _______ _______ _______ _____ _____    ______ ____
ROOT
ATOM      1  O   UNL     1      47.074   4.021  14.206  0.00  0.00    +0.000 OA
ATOM      2  C   UNL     1      46.997   5.240  14.095  0.00  0.00    +0.000 C 
ATOM      3  N   UNL     1      45.835   5.869  13.720  0.00  0.00    +0.000 N 
ATOM      4  H   UNL     1      45.869   6.836  13.413  0.00  0.00    +0.000 HD
ENDROOT
BRANCH   2   5
ATOM      5  C   UNL     1      48.137   6.107  14.405  0.00  0.00    +0.000 A 
ATOM      6  C   UNL     1      48.698   6.091  15.672  0.00  0.00    +0.000 A 
ATOM      7  S   UNL     1      50.014   7.161  15.850  0.00  0.00    +0.000 S 
ATOM      8  C   UNL     1      49.904   7.650  14.223  0.00  0.00    +0.000 A 
ATOM      9  N   UNL     1      50.786   8.544  13.698  0.00  0.00    +0.000 NA
ATOM     10  C   UNL     1      50.606   8.796  12.445  0.00  0.00    +0.000 A 
ATOM     11  N   UNL     1      49.617   8.244  11.669  0.00  0.00    +0.000 N 
ATOM     12  C   UNL     1      48.686   7.368  12.164  0.00  0.00    +0.000 A 
ATOM     13  O   UNL     1      47.775   6.939  11.459  0.00  0.00    +0.000 OA
ATOM     14  C   UNL     1      48.859   7.029  13.564  0.00  0.00    +0.000 A 
ATOM     15  H   UNL     1      49.521   8.496  10.698  0.00  0.00    +0.000 HD
ENDBRANCH   2   5
BRANCH   3  16
ATOM     16  C   UNL     1      44.694   5.095  13.308  0.00  0.00    +0.000 C 
BRANCH  16  17
ATOM     17  C   UNL     1      44.755   4.724  11.849  0.00  0.00    +0.000 A 
ATOM     18  C   UNL     1      45.304   5.614  10.919  0.00  0.00    +0.000 A 
ATOM     19  C   UNL     1      45.417   5.257   9.573  0.00  0.00    +0.000 A 
ATOM     20  C   UNL     1      44.972   4.006   9.126  0.00  0.00    +0.000 A 
ATOM     21  C   UNL     1      44.388   3.131  10.049  0.00  0.00    +0.000 A 
ATOM     22  C   UNL     1      44.270   3.491  11.396  0.00  0.00    +0.000 A 
BRANCH  20  23
ATOM     23  C   UNL     1      45.099   3.618   7.671  0.00  0.00    +0.000 C 
BRANCH  23  24
ATOM     24  C   UNL     1      46.421   2.911   7.287  0.00  0.00    +0.000 C 
ATOM     25  C   UNL     1      46.674   2.955   5.770  0.00  0.00    +0.000 C 
ATOM     26  C   UNL     1      47.721   1.951   5.309  0.00  0.00    +0.000 C 
ATOM     27  O   UNL     1      47.407   0.643   5.776  0.00  0.00    +0.000 OA
ATOM     28  C   UNL     1      47.464   0.580   7.198  0.00  0.00    +0.000 C 
ATOM     29  C   UNL     1      46.386   1.461   7.811  0.00  0.00    +0.000 C 
ENDBRANCH  23  24
ENDBRANCH  20  23
ENDBRANCH  16  17
ENDBRANCH   3  16
TORSDOF 5
ENDMDL
MODEL 4
REMARK VINA RESULT:    -7.878      2.079      3.143
REMARK INTER + INTRA:         -10.411
REMARK INTER:                  -9.534
REMARK INTRA:                  -0.877
REMARK UNBOUND:                -0.230
REMARK  Name = 
REMARK  5 active torsions:
REMARK  status: ('A' for Active; 'I' for Inactive)
REMARK    1  A    between atoms: C_2  and  C_18
REMARK    2  A    between atoms: N_3  and  C_4
REMARK    3  A    between atoms: C_4  and  C_5
REMARK    4  A    between atoms: C_8  and  C_9
REMARK    5  A    between atoms: C_9  and  C_10
REMARK                            x       y       z     vdW  Elec       q    Type
REMARK                         _______ _______ _______ _____ _____    ______ ____
ROOT
ATOM      1  O   UNL     1      44.663   6.718  11.227  0.00  0.00    +0.000 OA
ATOM      2  C   UNL     1      45.516   5.922  11.604  0.00  0.00    +0.000 C 
ATOM      3  N   UNL     1      45.677   4.690  11.018  0.00  0.00    +0.000 N 
ATOM      4  H   UNL     1      46.219   3.978  11.497  0.00  0.00    +0.000 HD
ENDROOT
BRANCH   2   5
ATOM      5  C   UNL     1      46.452   6.259  12.680  0.00  0.00    +0.000 A 
ATOM      6  C   UNL     1      47.000   7.529  12.751  0.00  0.00    +0.000 A 
ATOM      7  S   UNL     1      48.064   7.742  14.067  0.00  0.00    +0.000 S 
ATOM      8  C   UNL     1      47.791   6.152  14.612  0.00  0.00    +0.000 A 
ATOM      9  N   UNL     1      48.382   5.689  15.747  0.00  0.00    +0.000 NA
ATOM     10  C   UNL     1      48.058   4.478  16.060  0.00  0.00    +0.000 A 
ATOM     11  N   UNL     1      47.205   3.684  15.334  0.00  0.00    +0.000 N 
ATOM     12  C   UNL     1      46.617   4.096  14.167  0.00  0.00    +0.000 A 
ATOM     13  O   UNL     1      45.907   3.340  13.507  0.00  0.00    +0.000 OA
ATOM     14  C   UNL     1      46.927   5.461  13.783  0.00  0.00    +0.000 A 
ATOM     15  H   UNL     1      47.006   2.739  15.625  0.00  0.00    +0.000 HD
ENDBRANCH   2   5
BRANCH   3  16
ATOM     16  C   UNL     1      44.747   4.236  10.018  0.00  0.00    +0.000 C 
BRANCH  16  17
ATOM     17  C   UNL     1      45.427   3.476   8.910  0.00  0.00    +0.000 A 
ATOM     18  C   UNL     1      46.045   4.165   7.859  0.00  0.00    +0.000 A 
ATOM     19  C   UNL     1      46.727   3.471   6.856  0.00  0.00    +0.000 A 
ATOM     20  C   UNL     1      46.796   2.072   6.876  0.00  0.00    +0.000 A 
ATOM     21  C   UNL     1      46.146   1.382   7.906  0.00  0.00    +0.000 A 
ATOM     22  C   UNL     1      45.459   2.076   8.907  0.00  0.00    +0.000 A 
BRANCH  20  23
ATOM     23  C   UNL     1      47.538   1.322   5.795  0.00  0.00    +0.000 C 
BRANCH  23  24
ATOM     24  C   UNL     1      46.646   0.563   4.784  0.00  0.00    +0.000 C 
ATOM     25  C   UNL     1      47.290  -0.760   4.333  0.00  0.00    +0.000 C 
ATOM     26  C   UNL     1      46.662  -1.331   3.070  0.00  0.00    +0.000 C 
ATOM     27  O   UNL     1      46.630  -0.353   2.035  0.00  0.00    +0.000 OA
ATOM     28  C   UNL     1      45.783   0.736   2.385  0.00  0.00    +0.000 C 
ATOM     29  C   UNL     1      46.349   1.483   3.584  0.00  0.00    +0.000 C 
ENDBRANCH  23  24
ENDBRANCH  20  23
ENDBRANCH  16  17
ENDBRANCH   3  16
TORSDOF 5
ENDMDL
MODEL 5
REMARK VINA RESULT:    -7.739      2.253      3.293
REMARK INTER + INTRA:         -10.232
REMARK INTER:                  -9.710
REMARK INTRA:                  -0.522
REMARK UNBOUND:                -0.230
REMARK  Name = 
REMARK  5 active torsions:
REMARK  status: ('A' for Active; 'I' for Inactive)
REMARK    1  A    between atoms: C_2  and  C_18
REMARK    2  A    between atoms: N_3  and  C_4
REMARK    3  A    between atoms: C_4  and  C_5
REMARK    4  A    between atoms: C_8  and  C_9
REMARK    5  A    between atoms: C_9  and  C_10
REMARK                            x       y       z     vdW  Elec       q    Type
REMARK                         _______ _______ _______ _____ _____    ______ ____
ROOT
ATOM      1  O   UNL     1      50.338   6.766  15.423  0.00  0.00    +0.000 OA
ATOM      2  C   UNL     1      49.173   6.710  15.802  0.00  0.00    +0.000 C 
ATOM      3  N   UNL     1      48.126   6.560  14.926  0.00  0.00    +0.000 N 
ATOM      4  H   UNL     1      47.181   6.753  15.242  0.00  0.00    +0.000 HD
ENDROOT
BRANCH   2   5
ATOM      5  C   UNL     1      48.831   6.755  17.226  0.00  0.00    +0.000 A 
ATOM      6  C   UNL     1      48.364   7.931  17.791  0.00  0.00    +0.000 A 
ATOM      7  S   UNL     1      48.016   7.798  19.455  0.00  0.00    +0.000 S 
ATOM      8  C   UNL     1      48.435   6.148  19.465  0.00  0.00    +0.000 A 
ATOM      9  N   UNL     1      48.323   5.402  20.598  0.00  0.00    +0.000 NA
ATOM     10  C   UNL     1      48.643   4.160  20.451  0.00  0.00    +0.000 A 
ATOM     11  N   UNL     1      49.074   3.596  19.276  0.00  0.00    +0.000 N 
ATOM     12  C   UNL     1      49.236   4.316  18.121  0.00  0.00    +0.000 A 
ATOM     13  O   UNL     1      49.684   3.796  17.101  0.00  0.00    +0.000 OA
ATOM     14  C   UNL     1      48.865   5.715  18.224  0.00  0.00    +0.000 A 
ATOM     15  H   UNL     1      49.323   2.620  19.232  0.00  0.00    +0.000 HD
ENDBRANCH   2   5
BRANCH   3  16
ATOM     16  C   UNL     1      48.358   6.600  13.506  0.00  0.00    +0.000 C 
BRANCH  16  17
ATOM     17  C   UNL     1      47.184   6.073  12.723  0.00  0.00    +0.000 A 
ATOM     18  C   UNL     1      46.733   6.757  11.587  0.00  0.00    +0.000 A 
ATOM     19  C   UNL     1      45.681   6.248  10.821  0.00  0.00    +0.000 A 
ATOM     20  C   UNL     1      45.050   5.051  11.180  0.00  0.00    +0.000 A 
ATOM     21  C   UNL     1      45.476   4.387  12.337  0.00  0.00    +0.000 A 
ATOM     22  C   UNL     1      46.525   4.899  13.108  0.00  0.00    +0.000 A 
BRANCH  20  23
ATOM     23  C   UNL     1      43.916   4.498  10.349  0.00  0.00    +0.000 C 
BRANCH  23  24
ATOM     24  C   UNL     1      44.343   3.641   9.133  0.00  0.00    +0.000 C 
ATOM     25  C   UNL     1      44.733   2.211   9.550  0.00  0.00    +0.000 C 
ATOM     26  C   UNL     1      45.526   1.472   8.481  0.00  0.00    +0.000 C 
ATOM     27  O   UNL     1      46.643   2.246   8.056  0.00  0.00    +0.000 OA
ATOM     28  C   UNL     1      46.222   3.445   7.413  0.00  0.00    +0.000 C 
ATOM     29  C   UNL     1      45.499   4.349   8.400  0.00  0.00    +0.000 C 
ENDBRANCH  23  24
ENDBRANCH  20  23
ENDBRANCH  16  17
ENDBRANCH   3  16
TORSDOF 5
ENDMDL
MODEL 6
REMARK VINA RESULT:    -7.426      3.985     10.571
REMARK INTER + INTRA:          -9.827
REMARK INTER:                  -8.789
REMARK INTRA:                  -1.037
REMARK UNBOUND:                -0.230
REMARK  Name = 
REMARK  5 active torsions:
REMARK  status: ('A' for Active; 'I' for Inactive)
REMARK    1  A    between atoms: C_2  and  C_18
REMARK    2  A    between atoms: N_3  and  C_4
REMARK    3  A    between atoms: C_4  and  C_5
REMARK    4  A    between atoms: C_8  and  C_9
REMARK    5  A    between atoms: C_9  and  C_10
REMARK                            x       y       z     vdW  Elec       q    Type
REMARK                         _______ _______ _______ _____ _____    ______ ____
ROOT
ATOM      1  O   UNL     1      48.517   6.141  13.914  0.00  0.00    +0.000 OA
ATOM      2  C   UNL     1      47.395   5.681  14.096  0.00  0.00    +0.000 C 
ATOM      3  N   UNL     1      47.059   5.005  15.244  0.00  0.00    +0.000 N 
ATOM      4  H   UNL     1      46.215   4.442  15.260  0.00  0.00    +0.000 HD
ENDROOT
BRANCH   2   5
ATOM      5  C   UNL     1      46.325   5.867  13.112  0.00  0.00    +0.000 A 
ATOM      6  C   UNL     1      45.982   7.142  12.692  0.00  0.00    +0.000 A 
ATOM      7  S   UNL     1      44.720   7.167  11.546  0.00  0.00    +0.000 S 
ATOM      8  C   UNL     1      44.621   5.468  11.540  0.00  0.00    +0.000 A 
ATOM      9  N   UNL     1      43.746   4.819  10.724  0.00  0.00    +0.000 NA
ATOM     10  C   UNL     1      43.803   3.531  10.799  0.00  0.00    +0.000 A 
ATOM     11  N   UNL     1      44.649   2.831  11.623  0.00  0.00    +0.000 N 
ATOM     12  C   UNL     1      45.520   3.443  12.487  0.00  0.00    +0.000 A 
ATOM     13  O   UNL     1      46.221   2.790  13.257  0.00  0.00    +0.000 OA
ATOM     14  C   UNL     1      45.515   4.893  12.423  0.00  0.00    +0.000 A 
ATOM     15  H   UNL     1      44.633   1.824  11.645  0.00  0.00    +0.000 HD
ENDBRANCH   2   5
BRANCH   3  16
ATOM     16  C   UNL     1      48.067   4.694  16.222  0.00  0.00    +0.000 C 
BRANCH  16  17
ATOM     17  C   UNL     1      48.049   5.654  17.383  0.00  0.00    +0.000 A 
ATOM     18  C   UNL     1      48.781   6.847  17.320  0.00  0.00    +0.000 A 
ATOM     19  C   UNL     1      48.726   7.770  18.368  0.00  0.00    +0.000 A 
ATOM     20  C   UNL     1      47.949   7.515  19.505  0.00  0.00    +0.000 A 
ATOM     21  C   UNL     1      47.248   6.306  19.584  0.00  0.00    +0.000 A 
ATOM     22  C   UNL     1      47.307   5.379  18.538  0.00  0.00    +0.000 A 
BRANCH  20  23
ATOM     23  C   UNL     1      47.886   8.516  20.635  0.00  0.00    +0.000 C 
BRANCH  23  24
ATOM     24  C   UNL     1      46.717   9.528  20.559  0.00  0.00    +0.000 C 
ATOM     25  C   UNL     1      47.108  10.797  19.781  0.00  0.00    +0.000 C 
ATOM     26  C   UNL     1      46.158  11.961  20.019  0.00  0.00    +0.000 C 
ATOM     27  O   UNL     1      45.991  12.200  21.413  0.00  0.00    +0.000 OA
ATOM     28  C   UNL     1      45.357  11.095  22.050  0.00  0.00    +0.000 C 
ATOM     29  C   UNL     1      46.251   9.865  21.989  0.00  0.00    +0.000 C 
ENDBRANCH  23  24
ENDBRANCH  20  23
ENDBRANCH  16  17
ENDBRANCH   3  16
TORSDOF 5
ENDMDL
MODEL 7
REMARK VINA RESULT:    -7.399      2.657      4.033
REMARK INTER + INTRA:          -9.793
REMARK INTER:                  -9.019
REMARK INTRA:                  -0.773
REMARK UNBOUND:                -0.230
REMARK  Name = 
REMARK  5 active torsions:
REMARK  status: ('A' for Active; 'I' for Inactive)
REMARK    1  A    between atoms: C_2  and  C_18
REMARK    2  A    between atoms: N_3  and  C_4
REMARK    3  A    between atoms: C_4  and  C_5
REMARK    4  A    between atoms: C_8  and  C_9
REMARK    5  A    between atoms: C_9  and  C_10
REMARK                            x       y       z     vdW  Elec       q    Type
REMARK                         _______ _______ _______ _____ _____    ______ ____
ROOT
ATOM      1  O   UNL     1      50.277   6.134  15.890  0.00  0.00    +0.000 OA
ATOM      2  C   UNL     1      49.112   6.220  16.263  0.00  0.00    +0.000 C 
ATOM      3  N   UNL     1      48.074   6.405  15.381  0.00  0.00    +0.000 N 
ATOM      4  H   UNL     1      47.171   6.706  15.733  0.00  0.00    +0.000 HD
ENDROOT
BRANCH   2   5
ATOM      5  C   UNL     1      48.751   6.085  17.676  0.00  0.00    +0.000 A 
ATOM      6  C   UNL     1      48.943   4.878  18.330  0.00  0.00    +0.000 A 
ATOM      7  S   UNL     1      48.469   4.905  19.968  0.00  0.00    +0.000 S 
ATOM      8  C   UNL     1      48.030   6.547  19.868  0.00  0.00    +0.000 A 
ATOM      9  N   UNL     1      47.571   7.218  20.960  0.00  0.00    +0.000 NA
ATOM     10  C   UNL     1      47.310   8.464  20.748  0.00  0.00    +0.000 A 
ATOM     11  N   UNL     1      47.456   9.100  19.539  0.00  0.00    +0.000 N 
ATOM     12  C   UNL     1      47.880   8.456  18.407  0.00  0.00    +0.000 A 
ATOM     13  O   UNL     1      47.941   9.038  17.326  0.00  0.00    +0.000 OA
ATOM     14  C   UNL     1      48.213   7.057  18.596  0.00  0.00    +0.000 A 
ATOM     15  H   UNL     1      47.219  10.075  19.437  0.00  0.00    +0.000 HD
ENDBRANCH   2   5
BRANCH   3  16
ATOM     16  C   UNL     1      48.342   6.641  13.987  0.00  0.00    +0.000 C 
BRANCH  16  17
ATOM     17  C   UNL     1      47.211   6.182  13.105  0.00  0.00    +0.000 A 
ATOM     18  C   UNL     1      46.635   4.920  13.299  0.00  0.00    +0.000 A 
ATOM     19  C   UNL     1      45.549   4.507  12.523  0.00  0.00    +0.000 A 
ATOM     20  C   UNL     1      45.022   5.342  11.529  0.00  0.00    +0.000 A 
ATOM     21  C   UNL     1      45.622   6.588  11.311  0.00  0.00    +0.000 A 
ATOM     22  C   UNL     1      46.713   7.000  12.083  0.00  0.00    +0.000 A 
BRANCH  20  23
ATOM     23  C   UNL     1      43.844   4.897  10.694  0.00  0.00    +0.000 C 
BRANCH  23  24
ATOM     24  C   UNL     1      44.195   4.018   9.469  0.00  0.00    +0.000 C 
ATOM     25  C   UNL     1      44.370   2.539   9.857  0.00  0.00    +0.000 C 
ATOM     26  C   UNL     1      45.094   1.724   8.795  0.00  0.00    +0.000 C 
ATOM     27  O   UNL     1      46.322   2.347   8.430  0.00  0.00    +0.000 OA
ATOM     28  C   UNL     1      46.092   3.607   7.808  0.00  0.00    +0.000 C 
ATOM     29  C   UNL     1      45.463   4.578   8.795  0.00  0.00    +0.000 C 
ENDBRANCH  23  24
ENDBRANCH  20  23
ENDBRANCH  16  17
ENDBRANCH   3  16
TORSDOF 5
ENDMDL
MODEL 8
REMARK VINA RESULT:    -7.383      4.321      8.917
REMARK INTER + INTRA:          -9.771
REMARK INTER:                  -8.771
REMARK INTRA:                  -1.000
REMARK UNBOUND:                -0.230
REMARK  Name = 
REMARK  5 active torsions:
REMARK  status: ('A' for Active; 'I' for Inactive)
REMARK    1  A    between atoms: C_2  and  C_18
REMARK    2  A    between atoms: N_3  and  C_4
REMARK    3  A    between atoms: C_4  and  C_5
REMARK    4  A    between atoms: C_8  and  C_9
REMARK    5  A    between atoms: C_9  and  C_10
REMARK                            x       y       z     vdW  Elec       q    Type
REMARK                         _______ _______ _______ _____ _____    ______ ____
ROOT
ATOM      1  O   UNL     1      47.811   6.930  11.818  0.00  0.00    +0.000 OA
ATOM      2  C   UNL     1      46.874   6.838  12.604  0.00  0.00    +0.000 C 
ATOM      3  N   UNL     1      46.976   7.240  13.914  0.00  0.00    +0.000 N 
ATOM      4  H   UNL     1      46.277   6.936  14.583  0.00  0.00    +0.000 HD
ENDROOT
BRANCH   2   5
ATOM      5  C   UNL     1      45.567   6.332  12.178  0.00  0.00    +0.000 A 
ATOM      6  C   UNL     1      44.643   7.192  11.605  0.00  0.00    +0.000 A 
ATOM      7  S   UNL     1      43.180   6.431  11.169  0.00  0.00    +0.000 S 
ATOM      8  C   UNL     1      43.752   4.915  11.693  0.00  0.00    +0.000 A 
ATOM      9  N   UNL     1      42.990   3.795  11.563  0.00  0.00    +0.000 NA
ATOM     10  C   UNL     1      43.563   2.711  11.970  0.00  0.00    +0.000 A 
ATOM     11  N   UNL     1      44.826   2.647  12.504  0.00  0.00    +0.000 N 
ATOM     12  C   UNL     1      45.614   3.753  12.687  0.00  0.00    +0.000 A 
ATOM     13  O   UNL     1      46.716   3.671  13.225  0.00  0.00    +0.000 OA
ATOM     14  C   UNL     1      45.027   4.996  12.221  0.00  0.00    +0.000 A 
ATOM     15  H   UNL     1      45.209   1.769  12.818  0.00  0.00    +0.000 HD
ENDBRANCH   2   5
BRANCH   3  16
ATOM     16  C   UNL     1      48.245   7.662  14.445  0.00  0.00    +0.000 C 
BRANCH  16  17
ATOM     17  C   UNL     1      48.810   6.670  15.427  0.00  0.00    +0.000 A 
ATOM     18  C   UNL     1      50.131   6.797  15.875  0.00  0.00    +0.000 A 
ATOM     19  C   UNL     1      50.647   5.915  16.827  0.00  0.00    +0.000 A 
ATOM     20  C   UNL     1      49.857   4.880  17.345  0.00  0.00    +0.000 A 
ATOM     21  C   UNL     1      48.549   4.731  16.870  0.00  0.00    +0.000 A 
ATOM     22  C   UNL     1      48.034   5.610  15.911  0.00  0.00    +0.000 A 
BRANCH  20  23
ATOM     23  C   UNL     1      50.414   3.930  18.380  0.00  0.00    +0.000 C 
BRANCH  23  24
ATOM     24  C   UNL     1      51.843   3.407  18.097  0.00  0.00    +0.000 C 
ATOM     25  C   UNL     1      51.841   1.915  17.717  0.00  0.00    +0.000 C 
ATOM     26  C   UNL     1      53.215   1.269  17.823  0.00  0.00    +0.000 C 
ATOM     27  O   UNL     1      53.788   1.510  19.104  0.00  0.00    +0.000 OA
ATOM     28  C   UNL     1      54.038   2.898  19.302  0.00  0.00    +0.000 C 
ATOM     29  C   UNL     1      52.729   3.673  19.331  0.00  0.00    +0.000 C 
ENDBRANCH  23  24
ENDBRANCH  20  23
ENDBRANCH  16  17
ENDBRANCH   3  16
TORSDOF 5
ENDMDL
MODEL 9
REMARK VINA RESULT:    -7.316      3.701      5.073
REMARK INTER + INTRA:          -9.685
REMARK INTER:                  -8.423
REMARK INTRA:                  -1.262
REMARK UNBOUND:                -0.230
REMARK  Name = 
REMARK  5 active torsions:
REMARK  status: ('A' for Active; 'I' for Inactive)
REMARK    1  A    between atoms: C_2  and  C_18
REMARK    2  A    between atoms: N_3  and  C_4
REMARK    3  A    between atoms: C_4  and  C_5
REMARK    4  A    between atoms: C_8  and  C_9
REMARK    5  A    between atoms: C_9  and  C_10
REMARK                            x       y       z     vdW  Elec       q    Type
REMARK                         _______ _______ _______ _____ _____    ______ ____
ROOT
ATOM      1  O   UNL     1      48.417   8.652  16.055  0.00  0.00    +0.000 OA
ATOM      2  C   UNL     1      48.895   7.555  15.788  0.00  0.00    +0.000 C 
ATOM      3  N   UNL     1      49.294   7.221  14.517  0.00  0.00    +0.000 N 
ATOM      4  H   UNL     1      49.459   6.246  14.287  0.00  0.00    +0.000 HD
ENDROOT
BRANCH   2   5
ATOM      5  C   UNL     1      49.112   6.544  16.826  0.00  0.00    +0.000 A 
ATOM      6  C   UNL     1      49.966   6.808  17.885  0.00  0.00    +0.000 A 
ATOM      7  S   UNL     1      50.096   5.521  18.996  0.00  0.00    +0.000 S 
ATOM      8  C   UNL     1      48.979   4.583  18.119  0.00  0.00    +0.000 A 
ATOM      9  N   UNL     1      48.600   3.351  18.557  0.00  0.00    +0.000 NA
ATOM     10  C   UNL     1      47.721   2.767  17.812  0.00  0.00    +0.000 A 
ATOM     11  N   UNL     1      47.192   3.299  16.662  0.00  0.00    +0.000 N 
ATOM     12  C   UNL     1      47.570   4.519  16.165  0.00  0.00    +0.000 A 
ATOM     13  O   UNL     1      47.125   4.941  15.100  0.00  0.00    +0.000 OA
ATOM     14  C   UNL     1      48.539   5.230  16.980  0.00  0.00    +0.000 A 
ATOM     15  H   UNL     1      46.520   2.784  16.117  0.00  0.00    +0.000 HD
ENDBRANCH   2   5
BRANCH   3  16
ATOM     16  C   UNL     1      49.035   8.114  13.418  0.00  0.00    +0.000 C 
BRANCH  16  17
ATOM     17  C   UNL     1      47.696   7.856  12.779  0.00  0.00    +0.000 A 
ATOM     18  C   UNL     1      47.530   6.773  11.906  0.00  0.00    +0.000 A 
ATOM     19  C   UNL     1      46.279   6.492  11.351  0.00  0.00    +0.000 A 
ATOM     20  C   UNL     1      45.169   7.294  11.648  0.00  0.00    +0.000 A 
ATOM     21  C   UNL     1      45.344   8.398  12.490  0.00  0.00    +0.000 A 
ATOM     22  C   UNL     1      46.597   8.684  13.042  0.00  0.00    +0.000 A 
BRANCH  20  23
ATOM     23  C   UNL     1      43.815   6.986  11.052  0.00  0.00    +0.000 C 
BRANCH  23  24
ATOM     24  C   UNL     1      43.172   5.658  11.520  0.00  0.00    +0.000 C 
ATOM     25  C   UNL     1      43.421   5.398  13.016  0.00  0.00    +0.000 C 
ATOM     26  C   UNL     1      43.168   3.953  13.422  0.00  0.00    +0.000 C 
ATOM     27  O   UNL     1      43.889   3.059  12.580  0.00  0.00    +0.000 OA
ATOM     28  C   UNL     1      43.423   3.131  11.237  0.00  0.00    +0.000 C 
ATOM     29  C   UNL     1      43.711   4.505  10.650  0.00  0.00    +0.000 C 
ENDBRANCH  23  24
ENDBRANCH  20  23
ENDBRANCH  16  17
ENDBRANCH   3  16
TORSDOF 5
ENDMDL
