MODEL 1
REMARK VINA RESULT:    -7.866      0.000      0.000
REMARK INTER + INTRA:         -10.292
REMARK INTER:                  -9.705
REMARK INTRA:                  -0.587
REMARK UNBOUND:                -0.587
REMARK  Name = 
REMARK  4 active torsions:
REMARK  status: ('A' for Active; 'I' for Inactive)
REMARK    1  A    between atoms: C_2  and  C_4
REMARK    2  A    between atoms: C_8  and  N_9
REMARK    3  A    between atoms: N_9  and  C_10
REMARK    4  A    between atoms: C_10  and  C_11
REMARK                            x       y       z     vdW  Elec       q    Type
REMARK                         _______ _______ _______ _____ _____    ______ ____
ROOT
ATOM      1  N   UNL     1      43.992   3.035  10.400  0.00  0.00    +0.000 N 
ATOM      2  H   UNL     1      43.083   2.659  10.139  0.00  0.00    +0.000 HD
ENDROOT
BRANCH   1   7
ATOM      3  C   UNL     1      46.415   2.021   7.755  0.00  0.00    +0.000 A 
ATOM      4  C   UNL     1      46.745   3.253   7.181  0.00  0.00    +0.000 A 
ATOM      5  C   UNL     1      46.174   4.416   7.685  0.00  0.00    +0.000 A 
ATOM      6  C   UNL     1      45.258   4.349   8.740  0.00  0.00    +0.000 A 
ATOM      7  C   UNL     1      44.864   3.125   9.300  0.00  0.00    +0.000 A 
ATOM      8  C   UNL     1      45.488   1.964   8.811  0.00  0.00    +0.000 A 
BRANCH   3  10
ATOM      9  N   UNL     1      47.743   0.826   6.092  0.00  0.00    +0.000 N 
ATOM     10  C   UNL     1      47.000   0.755   7.242  0.00  0.00    +0.000 C 
ATOM     11  O   UNL     1      46.848  -0.309   7.825  0.00  0.00    +0.000 OA
ATOM     12  H   UNL     1      48.205  -0.025   5.803  0.00  0.00    +0.000 HD
ATOM     13  H   UNL     1      48.090   1.698   5.724  0.00  0.00    +0.000 HD
ENDBRANCH   3  10
ENDBRANCH   1   7
BRANCH   1  14
ATOM     14  C   UNL     1      43.879   4.195  11.283  0.00  0.00    +0.000 C 
BRANCH  14  15
ATOM     15  C   UNL     1      45.138   4.394  12.094  0.00  0.00    +0.000 A 
ATOM     16  C   UNL     1      45.673   3.373  12.876  0.00  0.00    +0.000 A 
ATOM     17  C   UNL     1      46.831   3.638  13.588  0.00  0.00    +0.000 A 
ATOM     18  N   UNL     1      47.491   4.817  13.556  0.00  0.00    +0.000 NA
ATOM     19  C   UNL     1      46.983   5.816  12.806  0.00  0.00    +0.000 A 
ATOM     20  N   UNL     1      47.682   7.006  12.695  0.00  0.00    +0.000 N 
ATOM     21  C   UNL     1      49.139   6.953  12.743  0.00  0.00    +0.000 C 
ATOM     22  C   UNL     1      49.681   7.564  14.030  0.00  0.00    +0.000 C 
ATOM     23  C   UNL     1      49.115   8.963  14.245  0.00  0.00    +0.000 C 
ATOM     24  C   UNL     1      47.589   8.919  14.254  0.00  0.00    +0.000 C 
ATOM     25  C   UNL     1      47.027   8.278  12.982  0.00  0.00    +0.000 C 
ATOM     26  C   UNL     1      45.806   5.629  12.077  0.00  0.00    +0.000 A 
ENDBRANCH  14  15
ENDBRANCH   1  14
TORSDOF 4
ENDMDL
MODEL 2
REMARK VINA RESULT:    -7.476      2.190      3.366
REMARK INTER + INTRA:          -9.811
REMARK INTER:                  -9.182
REMARK INTRA:                  -0.629
REMARK UNBOUND:                -0.587
REMARK  Name = 
REMARK  4 active torsions:
REMARK  status: ('A' for Active; 'I' for Inactive)
REMARK    1  A    between atoms: C_2  and  C_4
REMARK    2  A    between atoms: C_8  and  N_9
REMARK    3  A    between atoms: N_9  and  C_10
REMARK    4  A    between atoms: C_10  and  C_11
REMARK                            x       y       z     vdW  Elec       q    Type
REMARK                         _______ _______ _______ _____ _____    ______ ____
ROOT
ATOM      1  N   UNL     1      45.124   5.760  10.153  0.00  0.00    +0.000 N 
ATOM      2  H   UNL     1      45.858   6.386   9.830  0.00  0.00    +0.000 HD
ENDROOT
BRANCH   1   7
ATOM      3  C   UNL     1      46.238   2.976   7.938  0.00  0.00    +0.000 A 
ATOM      4  C   UNL     1      45.492   1.902   8.430  0.00  0.00    +0.000 A 
ATOM      5  C   UNL     1      44.611   2.109   9.486  0.00  0.00    +0.000 A 
ATOM      6  C   UNL     1      44.492   3.377  10.064  0.00  0.00    +0.000 A 
ATOM      7  C   UNL     1      45.267   4.461   9.630  0.00  0.00    +0.000 A 
ATOM      8  C   UNL     1      46.116   4.246   8.531  0.00  0.00    +0.000 A 
BRANCH   3  10
ATOM      9  N   UNL     1      47.004   3.563   5.696  0.00  0.00    +0.000 N 
ATOM     10  C   UNL     1      47.194   2.795   6.815  0.00  0.00    +0.000 C 
ATOM     11  O   UNL     1      48.130   2.010   6.884  0.00  0.00    +0.000 OA
ATOM     12  H   UNL     1      47.710   3.492   4.977  0.00  0.00    +0.000 HD
ATOM     13  H   UNL     1      46.409   4.378   5.692  0.00  0.00    +0.000 HD
ENDBRANCH   3  10
ENDBRANCH   1   7
BRANCH   1  14
ATOM     14  C   UNL     1      44.869   5.897  11.586  0.00  0.00    +0.000 C 
BRANCH  14  15
ATOM     15  C   UNL     1      46.157   5.993  12.368  0.00  0.00    +0.000 A 
ATOM     16  C   UNL     1      47.264   6.678  11.872  0.00  0.00    +0.000 A 
ATOM     17  C   UNL     1      48.407   6.720  12.653  0.00  0.00    +0.000 A 
ATOM     18  N   UNL     1      48.513   6.158  13.878  0.00  0.00    +0.000 NA
ATOM     19  C   UNL     1      47.451   5.488  14.370  0.00  0.00    +0.000 A 
ATOM     20  N   UNL     1      47.507   4.971  15.652  0.00  0.00    +0.000 N 
ATOM     21  C   UNL     1      48.295   5.690  16.647  0.00  0.00    +0.000 C 
ATOM     22  C   UNL     1      49.553   4.920  17.032  0.00  0.00    +0.000 C 
ATOM     23  C   UNL     1      49.209   3.492  17.444  0.00  0.00    +0.000 C 
ATOM     24  C   UNL     1      48.451   2.788  16.320  0.00  0.00    +0.000 C 
ATOM     25  C   UNL     1      47.201   3.566  15.898  0.00  0.00    +0.000 C 
ATOM     26  C   UNL     1      46.270   5.386  13.629  0.00  0.00    +0.000 A 
ENDBRANCH  14  15
ENDBRANCH   1  14
TORSDOF 4
ENDMDL
MODEL 3
REMARK VINA RESULT:    -6.994      1.985      2.965
REMARK INTER + INTRA:          -9.217
REMARK INTER:                  -8.770
REMARK INTRA:                  -0.447
REMARK UNBOUND:                -0.587
REMARK  Name = 
REMARK  4 active torsions:
REMARK  status: ('A' for Active; 'I' for Inactive)
REMARK    1  A    between atoms: C_2  and  C_4
REMARK    2  A    between atoms: C_8  and  N_9
REMARK    3  A    between atoms: N_9  and  C_10
REMARK    4  A    between atoms: C_10  and  C_11
REMARK                            x       y       z     vdW  Elec       q    Type
REMARK                         _______ _______ _______ _____ _____    ______ ____
ROOT
ATOM      1  N   UNL     1      45.206   5.551   9.522  0.00  0.00    +0.000 N 
ATOM      2  H   UNL     1      45.903   6.226   9.218  0.00  0.00    +0.000 HD
ENDROOT
BRANCH   1   7
ATOM      3  C   UNL     1      46.485   2.817   7.334  0.00  0.00    +0.000 A 
ATOM      4  C   UNL     1      45.949   1.682   7.951  0.00  0.00    +0.000 A 
ATOM      5  C   UNL     1      45.152   1.830   9.081  0.00  0.00    +0.000 A 
ATOM      6  C   UNL     1      44.912   3.103   9.609  0.00  0.00    +0.000 A 
ATOM      7  C   UNL     1      45.481   4.255   9.047  0.00  0.00    +0.000 A 
ATOM      8  C   UNL     1      46.243   4.091   7.877  0.00  0.00    +0.000 A 
BRANCH   3  10
ATOM      9  N   UNL     1      48.690   2.524   6.330  0.00  0.00    +0.000 N 
ATOM     10  C   UNL     1      47.345   2.700   6.129  0.00  0.00    +0.000 C 
ATOM     11  O   UNL     1      46.881   2.736   4.998  0.00  0.00    +0.000 OA
ATOM     12  H   UNL     1      49.250   2.360   5.505  0.00  0.00    +0.000 HD
ATOM     13  H   UNL     1      49.073   2.248   7.221  0.00  0.00    +0.000 HD
ENDBRANCH   3  10
ENDBRANCH   1   7
BRANCH   1  14
ATOM     14  C   UNL     1      44.863   5.706  10.935  0.00  0.00    +0.000 C 
BRANCH  14  15
ATOM     15  C   UNL     1      45.572   6.890  11.546  0.00  0.00    +0.000 A 
ATOM     16  C   UNL     1      44.884   8.043  11.916  0.00  0.00    +0.000 A 
ATOM     17  C   UNL     1      45.609   9.084  12.471  0.00  0.00    +0.000 A 
ATOM     18  N   UNL     1      46.941   9.048  12.699  0.00  0.00    +0.000 NA
ATOM     19  C   UNL     1      47.622   7.939  12.342  0.00  0.00    +0.000 A 
ATOM     20  N   UNL     1      48.971   7.846  12.636  0.00  0.00    +0.000 N 
ATOM     21  C   UNL     1      49.458   8.504  13.844  0.00  0.00    +0.000 C 
ATOM     22  C   UNL     1      50.326   9.712  13.515  0.00  0.00    +0.000 C 
ATOM     23  C   UNL     1      51.436   9.333  12.540  0.00  0.00    +0.000 C 
ATOM     24  C   UNL     1      50.839   8.720  11.275  0.00  0.00    +0.000 C 
ATOM     25  C   UNL     1      49.936   7.523  11.589  0.00  0.00    +0.000 C 
ATOM     26  C   UNL     1      46.960   6.857  11.757  0.00  0.00    +0.000 A 
ENDBRANCH  14  15
ENDBRANCH   1  14
TORSDOF 4
ENDMDL
MODEL 4
REMARK VINA RESULT:    -6.891      2.566      4.531
REMARK INTER + INTRA:          -9.090
REMARK INTER:                  -8.595
REMARK INTRA:                  -0.495
REMARK UNBOUND:                -0.587
REMARK  Name = 
REMARK  4 active torsions:
REMARK  status: ('A' for Active; 'I' for Inactive)
REMARK    1  A    between atoms: C_2  and  C_4
REMARK    2  A    between atoms: C_8  and  N_9
REMARK    3  A    between atoms: N_9  and  C_10
REMARK    4  A    between atoms: C_10  and  C_11
REMARK                            x       y       z     vdW  Elec       q    Type
REMARK                         _______ _______ _______ _____ _____    ______ ____
ROOT
ATOM      1  N   UNL     1      45.379   6.571  12.157  0.00  0.00    +0.000 N 
ATOM      2  H   UNL     1      44.769   7.317  11.832  0.00  0.00    +0.000 HD
ENDROOT
BRANCH   1   7
ATOM      3  C   UNL     1      44.396   3.431  10.404  0.00  0.00    +0.000 A 
ATOM      4  C   UNL     1      43.604   2.801  11.368  0.00  0.00    +0.000 A 
ATOM      5  C   UNL     1      43.387   3.427  12.589  0.00  0.00    +0.000 A 
ATOM      6  C   UNL     1      43.978   4.667  12.859  0.00  0.00    +0.000 A 
ATOM      7  C   UNL     1      44.822   5.298  11.935  0.00  0.00    +0.000 A 
ATOM      8  C   UNL     1      44.992   4.674  10.687  0.00  0.00    +0.000 A 
BRANCH   3  10
ATOM      9  N   UNL     1      44.359   3.519   7.965  0.00  0.00    +0.000 N 
ATOM     10  C   UNL     1      44.657   2.792   9.088  0.00  0.00    +0.000 C 
ATOM     11  O   UNL     1      45.138   1.670   8.999  0.00  0.00    +0.000 OA
ATOM     12  H   UNL     1      44.622   3.107   7.080  0.00  0.00    +0.000 HD
ATOM     13  H   UNL     1      44.196   4.514   7.991  0.00  0.00    +0.000 HD
ENDBRANCH   3  10
ENDBRANCH   1   7
BRANCH   1  14
ATOM     14  C   UNL     1      46.773   6.787  11.770  0.00  0.00    +0.000 C 
BRANCH  14  15
ATOM     15  C   UNL     1      47.696   6.687  12.960  0.00  0.00    +0.000 A 
ATOM     16  C   UNL     1      48.866   7.438  13.044  0.00  0.00    +0.000 A 
ATOM     17  C   UNL     1      49.657   7.288  14.171  0.00  0.00    +0.000 A 
ATOM     18  N   UNL     1      49.357   6.475  15.209  0.00  0.00    +0.000 NA
ATOM     19  C   UNL     1      48.229   5.739  15.141  0.00  0.00    +0.000 A 
ATOM     20  N   UNL     1      47.859   4.959  16.223  0.00  0.00    +0.000 N 
ATOM     21  C   UNL     1      48.205   5.432  17.559  0.00  0.00    +0.000 C 
ATOM     22  C   UNL     1      49.288   4.570  18.197  0.00  0.00    +0.000 C 
ATOM     23  C   UNL     1      48.903   3.096  18.155  0.00  0.00    +0.000 C 
ATOM     24  C   UNL     1      48.629   2.664  16.716  0.00  0.00    +0.000 C 
ATOM     25  C   UNL     1      47.566   3.540  16.047  0.00  0.00    +0.000 C 
ATOM     26  C   UNL     1      47.392   5.822  14.025  0.00  0.00    +0.000 A 
ENDBRANCH  14  15
ENDBRANCH   1  14
TORSDOF 4
ENDMDL
MODEL 5
REMARK VINA RESULT:    -6.738      3.710      7.886
REMARK INTER + INTRA:          -8.902
REMARK INTER:                  -8.277
REMARK INTRA:                  -0.625
REMARK UNBOUND:                -0.587
REMARK  Name = 
REMARK  4 active torsions:
REMARK  status: ('A' for Active; 'I' for Inactive)
REMARK    1  A    between atoms: C_2  and  C_4
REMARK    2  A    between atoms: C_8  and  N_9
REMARK    3  A    between atoms: N_9  and  C_10
REMARK    4  A    between atoms: C_10  and  C_11
REMARK                            x       y       z     vdW  Elec       q    Type
REMARK                         _______ _______ _______ _____ _____    ______ ____
ROOT
ATOM      1  N   UNL     1      48.511   7.145  16.261  0.00  0.00    +0.000 N 
ATOM      2  H   UNL     1      47.602   7.598  16.327  0.00  0.00    +0.000 HD
ENDROOT
BRANCH   1   7
ATOM      3  C   UNL     1      49.185   3.710  17.541  0.00  0.00    +0.000 A 
ATOM      4  C   UNL     1      48.764   3.812  18.871  0.00  0.00    +0.000 A 
ATOM      5  C   UNL     1      48.244   5.016  19.332  0.00  0.00    +0.000 A 
ATOM      6  C   UNL     1      48.167   6.121  18.478  0.00  0.00    +0.000 A 
ATOM      7  C   UNL     1      48.633   6.067  17.157  0.00  0.00    +0.000 A 
ATOM      8  C   UNL     1      49.110   4.829  16.693  0.00  0.00    +0.000 A 
BRANCH   3  10
ATOM      9  N   UNL     1      50.747   1.845  17.742  0.00  0.00    +0.000 N 
ATOM     10  C   UNL     1      49.752   2.443  17.012  0.00  0.00    +0.000 C 
ATOM     11  O   UNL     1      49.341   1.933  15.978  0.00  0.00    +0.000 OA
ATOM     12  H   UNL     1      51.063   0.942  17.416  0.00  0.00    +0.000 HD
ATOM     13  H   UNL     1      50.941   2.094  18.700  0.00  0.00    +0.000 HD
ENDBRANCH   3  10
ENDBRANCH   1   7
BRANCH   1  14
ATOM     14  C   UNL     1      48.925   6.935  14.874  0.00  0.00    +0.000 C 
BRANCH  14  15
ATOM     15  C   UNL     1      47.750   7.016  13.930  0.00  0.00    +0.000 A 
ATOM     16  C   UNL     1      47.155   8.233  13.606  0.00  0.00    +0.000 A 
ATOM     17  C   UNL     1      46.081   8.220  12.731  0.00  0.00    +0.000 A 
ATOM     18  N   UNL     1      45.585   7.104  12.152  0.00  0.00    +0.000 NA
ATOM     19  C   UNL     1      46.148   5.917  12.460  0.00  0.00    +0.000 A 
ATOM     20  N   UNL     1      45.710   4.770  11.822  0.00  0.00    +0.000 N 
ATOM     21  C   UNL     1      45.238   4.888  10.446  0.00  0.00    +0.000 C 
ATOM     22  C   UNL     1      43.731   4.679  10.349  0.00  0.00    +0.000 C 
ATOM     23  C   UNL     1      43.321   3.374  11.023  0.00  0.00    +0.000 C 
ATOM     24  C   UNL     1      43.788   3.363  12.477  0.00  0.00    +0.000 C 
ATOM     25  C   UNL     1      45.296   3.604  12.596  0.00  0.00    +0.000 C 
ATOM     26  C   UNL     1      47.222   5.851  13.351  0.00  0.00    +0.000 A 
ENDBRANCH  14  15
ENDBRANCH   1  14
TORSDOF 4
ENDMDL
MODEL 6
REMARK VINA RESULT:    -6.690      2.990      5.117
REMARK INTER + INTRA:          -8.842
REMARK INTER:                  -8.199
REMARK INTRA:                  -0.643
REMARK UNBOUND:                -0.587
REMARK  Name = 
REMARK  4 active torsions:
REMARK  status: ('A' for Active; 'I' for Inactive)
REMARK    1  A    between atoms: C_2  and  C_4
REMARK    2  A    between atoms: C_8  and  N_9
REMARK    3  A    between atoms: N_9  and  C_10
REMARK    4  A    between atoms: C_10  and  C_11
REMARK                            x       y       z     vdW  Elec       q    Type
REMARK                         _______ _______ _______ _____ _____    ______ ____
ROOT
ATOM      1  N   UNL     1      46.498   7.200  12.037  0.00  0.00    +0.000 N 
ATOM      2  H   UNL     1      46.054   8.098  11.861  0.00  0.00    +0.000 HD
ENDROOT
BRANCH   1   7
ATOM      3  C   UNL     1      44.522   4.094  11.448  0.00  0.00    +0.000 A 
ATOM      4  C   UNL     1      44.659   3.925  10.067  0.00  0.00    +0.000 A 
ATOM      5  C   UNL     1      45.420   4.834   9.340  0.00  0.00    +0.000 A 
ATOM      6  C   UNL     1      46.020   5.921   9.983  0.00  0.00    +0.000 A 
ATOM      7  C   UNL     1      45.855   6.150  11.356  0.00  0.00    +0.000 A 
ATOM      8  C   UNL     1      45.125   5.195  12.084  0.00  0.00    +0.000 A 
BRANCH   3  10
ATOM      9  N   UNL     1      43.340   1.970  11.667  0.00  0.00    +0.000 N 
ATOM     10  C   UNL     1      43.714   3.148  12.260  0.00  0.00    +0.000 C 
ATOM     11  O   UNL     1      43.406   3.391  13.419  0.00  0.00    +0.000 OA
ATOM     12  H   UNL     1      42.866   1.301  12.257  0.00  0.00    +0.000 HD
ATOM     13  H   UNL     1      43.768   1.630  10.820  0.00  0.00    +0.000 HD
ENDBRANCH   3  10
ENDBRANCH   1   7
BRANCH   1  14
ATOM     14  C   UNL     1      47.956   7.278  11.960  0.00  0.00    +0.000 C 
BRANCH  14  15
ATOM     15  C   UNL     1      48.592   7.035  13.308  0.00  0.00    +0.000 A 
ATOM     16  C   UNL     1      49.789   7.645  13.672  0.00  0.00    +0.000 A 
ATOM     17  C   UNL     1      50.305   7.370  14.928  0.00  0.00    +0.000 A 
ATOM     18  N   UNL     1      49.710   6.564  15.835  0.00  0.00    +0.000 NA
ATOM     19  C   UNL     1      48.551   5.962  15.495  0.00  0.00    +0.000 A 
ATOM     20  N   UNL     1      47.883   5.194  16.433  0.00  0.00    +0.000 N 
ATOM     21  C   UNL     1      47.986   5.581  17.835  0.00  0.00    +0.000 C 
ATOM     22  C   UNL     1      48.815   4.582  18.635  0.00  0.00    +0.000 C 
ATOM     23  C   UNL     1      48.296   3.163  18.432  0.00  0.00    +0.000 C 
ATOM     24  C   UNL     1      48.289   2.812  16.945  0.00  0.00    +0.000 C 
ATOM     25  C   UNL     1      47.487   3.824  16.122  0.00  0.00    +0.000 C 
ATOM     26  C   UNL     1      47.982   6.176  14.237  0.00  0.00    +0.000 A 
ENDBRANCH  14  15
ENDBRANCH   1  14
TORSDOF 4
ENDMDL
MODEL 7
REMARK VINA RESULT:    -6.608      4.583      6.502
REMARK INTER + INTRA:          -8.740
REMARK INTER:                  -8.115
REMARK INTRA:                  -0.625
REMARK UNBOUND:                -0.587
REMARK  Name = 
REMARK  4 active torsions:
REMARK  status: ('A' for Active; 'I' for Inactive)
REMARK    1  A    between atoms: C_2  and  C_4
REMARK    2  A    between atoms: C_8  and  N_9
REMARK    3  A    between atoms: N_9  and  C_10
REMARK    4  A    between atoms: C_10  and  C_11
REMARK                            x       y       z     vdW  Elec       q    Type
REMARK                         _______ _______ _______ _____ _____    ______ ____
ROOT
ATOM      1  N   UNL     1      44.968   7.136  12.957  0.00  0.00    +0.000 N 
ATOM      2  H   UNL     1      44.149   7.675  13.227  0.00  0.00    +0.000 HD
ENDROOT
BRANCH   1   7
ATOM      3  C   UNL     1      44.595   4.547  10.301  0.00  0.00    +0.000 A 
ATOM      4  C   UNL     1      43.828   3.576  10.953  0.00  0.00    +0.000 A 
ATOM      5  C   UNL     1      43.425   3.792  12.266  0.00  0.00    +0.000 A 
ATOM      6  C   UNL     1      43.806   4.960  12.935  0.00  0.00    +0.000 A 
ATOM      7  C   UNL     1      44.621   5.926  12.328  0.00  0.00    +0.000 A 
ATOM      8  C   UNL     1      44.979   5.715  10.985  0.00  0.00    +0.000 A 
BRANCH   3  10
ATOM      9  N   UNL     1      44.334   3.479   8.122  0.00  0.00    +0.000 N 
ATOM     10  C   UNL     1      45.050   4.351   8.901  0.00  0.00    +0.000 C 
ATOM     11  O   UNL     1      46.011   4.955   8.444  0.00  0.00    +0.000 OA
ATOM     12  H   UNL     1      44.602   3.421   7.150  0.00  0.00    +0.000 HD
ATOM     13  H   UNL     1      43.414   3.155   8.377  0.00  0.00    +0.000 HD
ENDBRANCH   3  10
ENDBRANCH   1   7
BRANCH   1  14
ATOM     14  C   UNL     1      45.996   7.966  12.330  0.00  0.00    +0.000 C 
BRANCH  14  15
ATOM     15  C   UNL     1      45.431   9.290  11.874  0.00  0.00    +0.000 A 
ATOM     16  C   UNL     1      46.147  10.476  12.011  0.00  0.00    +0.000 A 
ATOM     17  C   UNL     1      45.557  11.648  11.566  0.00  0.00    +0.000 A 
ATOM     18  N   UNL     1      44.339  11.713  10.984  0.00  0.00    +0.000 NA
ATOM     19  C   UNL     1      43.632  10.572  10.848  0.00  0.00    +0.000 A 
ATOM     20  N   UNL     1      42.416  10.600  10.186  0.00  0.00    +0.000 N 
ATOM     21  C   UNL     1      42.248  11.561   9.102  0.00  0.00    +0.000 C 
ATOM     22  C   UNL     1      41.275  12.672   9.481  0.00  0.00    +0.000 C 
ATOM     23  C   UNL     1      39.960  12.090   9.988  0.00  0.00    +0.000 C 
ATOM     24  C   UNL     1      40.217  11.155  11.167  0.00  0.00    +0.000 C 
ATOM     25  C   UNL     1      41.219  10.051  10.814  0.00  0.00    +0.000 C 
ATOM     26  C   UNL     1      44.154   9.356  11.293  0.00  0.00    +0.000 A 
ENDBRANCH  14  15
ENDBRANCH   1  14
TORSDOF 4
ENDMDL
MODEL 8
REMARK VINA RESULT:    -6.311      3.888      7.368
REMARK INTER + INTRA:          -8.374
REMARK INTER:                  -7.692
REMARK INTRA:                  -0.682
REMARK UNBOUND:                -0.587
REMARK  Name = 
REMARK  4 active torsions:
REMARK  status: ('A' for Active; 'I' for Inactive)
REMARK    1  A    between atoms: C_2  and  C_4
REMARK    2  A    between atoms: C_8  and  N_9
REMARK    3  A    between atoms: N_9  and  C_10
REMARK    4  A    between atoms: C_10  and  C_11
REMARK                            x       y       z     vdW  Elec       q    Type
REMARK                         _______ _______ _______ _____ _____    ______ ____
ROOT
ATOM      1  N   UNL     1      45.948   9.111  13.274  0.00  0.00    +0.000 N 
ATOM      2  H   UNL     1      45.925   9.574  14.180  0.00  0.00    +0.000 HD
ENDROOT
BRANCH   1   7
ATOM      3  C   UNL     1      44.056  10.744  10.509  0.00  0.00    +0.000 A 
ATOM      4  C   UNL     1      45.006  11.635   9.999  0.00  0.00    +0.000 A 
ATOM      5  C   UNL     1      46.275  11.678  10.565  0.00  0.00    +0.000 A 
ATOM      6  C   UNL     1      46.588  10.854  11.652  0.00  0.00    +0.000 A 
ATOM      7  C   UNL     1      45.641   9.992  12.221  0.00  0.00    +0.000 A 
ATOM      8  C   UNL     1      44.379   9.926  11.606  0.00  0.00    +0.000 A 
BRANCH   3  10
ATOM      9  N   UNL     1      42.446  11.389   8.792  0.00  0.00    +0.000 N 
ATOM     10  C   UNL     1      42.688  10.672   9.935  0.00  0.00    +0.000 C 
ATOM     11  O   UNL     1      41.810   9.986  10.442  0.00  0.00    +0.000 OA
ATOM     12  H   UNL     1      41.538  11.262   8.366  0.00  0.00    +0.000 HD
ATOM     13  H   UNL     1      43.187  11.761   8.218  0.00  0.00    +0.000 HD
ENDBRANCH   3  10
ENDBRANCH   1   7
BRANCH   1  14
ATOM     14  C   UNL     1      47.115   8.243  13.125  0.00  0.00    +0.000 C 
BRANCH  14  15
ATOM     15  C   UNL     1      46.708   6.806  12.904  0.00  0.00    +0.000 A 
ATOM     16  C   UNL     1      46.948   5.823  13.860  0.00  0.00    +0.000 A 
ATOM     17  C   UNL     1      46.542   4.528  13.580  0.00  0.00    +0.000 A 
ATOM     18  N   UNL     1      45.906   4.160  12.446  0.00  0.00    +0.000 NA
ATOM     19  C   UNL     1      45.670   5.101  11.508  0.00  0.00    +0.000 A 
ATOM     20  N   UNL     1      44.952   4.765  10.373  0.00  0.00    +0.000 N 
ATOM     21  C   UNL     1      43.917   3.744  10.494  0.00  0.00    +0.000 C 
ATOM     22  C   UNL     1      44.310   2.457   9.777  0.00  0.00    +0.000 C 
ATOM     23  C   UNL     1      44.718   2.744   8.335  0.00  0.00    +0.000 C 
ATOM     24  C   UNL     1      45.853   3.765   8.302  0.00  0.00    +0.000 C 
ATOM     25  C   UNL     1      45.488   5.053   9.047  0.00  0.00    +0.000 C 
ATOM     26  C   UNL     1      46.070   6.423  11.713  0.00  0.00    +0.000 A 
ENDBRANCH  14  15
ENDBRANCH   1  14
TORSDOF 4
ENDMDL
MODEL 9
REMARK VINA RESULT:    -6.059      4.918      8.217
REMARK INTER + INTRA:          -8.063
REMARK INTER:                  -7.574
REMARK INTRA:                  -0.489
REMARK UNBOUND:                -0.587
REMARK  Name = 
REMARK  4 active torsions:
REMARK  status: ('A' for Active; 'I' for Inactive)
REMARK    1  A    between atoms: C_2  and  C_4
REMARK    2  A    between atoms: C_8  and  N_9
REMARK    3  A    between atoms: N_9  and  C_10
REMARK    4  A    between atoms: C_10  and  C_11
REMARK                            x       y       z     vdW  Elec       q    Type
REMARK                         _______ _______ _______ _____ _____    ______ ____
ROOT
ATOM      1  N   UNL     1      48.742   2.886  16.784  0.00  0.00    +0.000 N 
ATOM      2  H   UNL     1      48.648   2.538  15.833  0.00  0.00    +0.000 HD
ENDROOT
BRANCH   1   7
ATOM      3  C   UNL     1      52.176   1.759  17.695  0.00  0.00    +0.000 A 
ATOM      4  C   UNL     1      52.753   2.944  18.161  0.00  0.00    +0.000 A 
ATOM      5  C   UNL     1      51.994   4.109  18.185  0.00  0.00    +0.000 A 
ATOM      6  C   UNL     1      50.673   4.098  17.723  0.00  0.00    +0.000 A 
ATOM      7  C   UNL     1      50.085   2.938  17.198  0.00  0.00    +0.000 A 
ATOM      8  C   UNL     1      50.850   1.760  17.226  0.00  0.00    +0.000 A 
BRANCH   3  10
ATOM      9  N   UNL     1      52.601  -0.496  18.526  0.00  0.00    +0.000 N 
ATOM     10  C   UNL     1      52.955   0.495  17.647  0.00  0.00    +0.000 C 
ATOM     11  O   UNL     1      53.864   0.326  16.846  0.00  0.00    +0.000 OA
ATOM     12  H   UNL     1      53.081  -1.379  18.424  0.00  0.00    +0.000 HD
ATOM     13  H   UNL     1      51.723  -0.492  19.022  0.00  0.00    +0.000 HD
ENDBRANCH   3  10
ENDBRANCH   1   7
BRANCH   1  14
ATOM     14  C   UNL     1      47.900   4.056  17.033  0.00  0.00    +0.000 C 
BRANCH  14  15
ATOM     15  C   UNL     1      47.612   4.807  15.755  0.00  0.00    +0.000 A 
ATOM     16  C   UNL     1      48.323   5.951  15.402  0.00  0.00    +0.000 A 
ATOM     17  C   UNL     1      47.997   6.580  14.212  0.00  0.00    +0.000 A 
ATOM     18  N   UNL     1      47.046   6.144  13.357  0.00  0.00    +0.000 NA
ATOM     19  C   UNL     1      46.345   5.039  13.687  0.00  0.00    +0.000 A 
ATOM     20  N   UNL     1      45.420   4.528  12.793  0.00  0.00    +0.000 N 
ATOM     21  C   UNL     1      45.686   4.684  11.367  0.00  0.00    +0.000 C 
ATOM     22  C   UNL     1      44.723   5.673  10.721  0.00  0.00    +0.000 C 
ATOM     23  C   UNL     1      43.277   5.304  11.033  0.00  0.00    +0.000 C 
ATOM     24  C   UNL     1      43.066   5.233  12.544  0.00  0.00    +0.000 C 
ATOM     25  C   UNL     1      44.048   4.268  13.215  0.00  0.00    +0.000 C 
ATOM     26  C   UNL     1      46.605   4.364  14.882  0.00  0.00    +0.000 A 
ENDBRANCH  14  15
ENDBRANCH   1  14
TORSDOF 4
ENDMDL
