MODEL 1
REMARK VINA RESULT:    -7.869      0.000      0.000
REMARK INTER + INTRA:         -13.485
REMARK INTER:                 -12.239
REMARK INTRA:                  -1.245
REMARK UNBOUND:                -1.245
REMARK  Name = 
REMARK  10 active torsions:
REMARK  status: ('A' for Active; 'I' for Inactive)
REMARK    1  A    between atoms: C_2  and  C_23
REMARK    2  A    between atoms: N_3  and  C_4
REMARK    3  A    between atoms: C_4  and  C_5
REMARK    4  A    between atoms: C_8  and  C_9
REMARK    5  A    between atoms: C_9  and  N_10
REMARK    6  A    between atoms: N_10  and  C_11
REMARK    7  A    between atoms: N_10  and  C_14
REMARK    8  A    between atoms: C_11  and  C_12
REMARK    9  A    between atoms: C_12  and  O_13
REMARK   10  A    between atoms: C_14  and  C_15
REMARK                            x       y       z     vdW  Elec       q    Type
REMARK                         _______ _______ _______ _____ _____    ______ ____
ROOT
ATOM      1  C   UNL     1      47.003   4.542  14.749  0.00  0.00    +0.000 A 
ATOM      2  C   UNL     1      46.591   3.500  13.906  0.00  0.00    +0.000 A 
ATOM      3  C   UNL     1      46.204   3.762  12.591  0.00  0.00    +0.000 A 
ATOM      4  C   UNL     1      46.209   5.074  12.101  0.00  0.00    +0.000 A 
ATOM      5  C   UNL     1      46.716   6.099  12.910  0.00  0.00    +0.000 A 
ATOM      6  C   UNL     1      47.116   5.834  14.222  0.00  0.00    +0.000 A 
ENDROOT
BRANCH   1   7
ATOM      7  C   UNL     1      47.281   4.282  16.209  0.00  0.00    +0.000 C 
BRANCH   7  10
ATOM      8  N   UNL     1      48.336   4.883  18.906  0.00  0.00    +0.000 NA
ATOM      9  C   UNL     1      49.051   4.636  17.863  0.00  0.00    +0.000 C 
ATOM     10  N   UNL     1      48.627   4.678  16.567  0.00  0.00    +0.000 N 
ATOM     11  H   UNL     1      47.391   5.139  18.622  0.00  0.00    +0.000 HD
ATOM     12  H   UNL     1      49.286   4.298  15.887  0.00  0.00    +0.000 HD
BRANCH   9  13
ATOM     13  C   UNL     1      50.457   4.302  18.086  0.00  0.00    +0.000 A 
ATOM     14  C   UNL     1      51.300   5.177  18.758  0.00  0.00    +0.000 A 
ATOM     15  S   UNL     1      52.884   4.581  18.964  0.00  0.00    +0.000 S 
ATOM     16  C   UNL     1      52.491   3.113  18.197  0.00  0.00    +0.000 A 
ATOM     17  N   UNL     1      53.407   2.114  18.089  0.00  0.00    +0.000 NA
ATOM     18  C   UNL     1      52.954   1.040  17.527  0.00  0.00    +0.000 A 
ATOM     19  N   UNL     1      51.681   0.885  17.051  0.00  0.00    +0.000 N 
ATOM     20  C   UNL     1      50.739   1.884  17.096  0.00  0.00    +0.000 A 
ATOM     21  O   UNL     1      49.635   1.738  16.582  0.00  0.00    +0.000 OA
ATOM     22  C   UNL     1      51.180   3.095  17.758  0.00  0.00    +0.000 A 
ATOM     23  H   UNL     1      51.399   0.029  16.591  0.00  0.00    +0.000 HD
ENDBRANCH   9  13
ENDBRANCH   7  10
ENDBRANCH   1   7
BRANCH   4  24
ATOM     24  C   UNL     1      45.639   5.386  10.732  0.00  0.00    +0.000 C 
BRANCH  24  25
ATOM     25  N   UNL     1      44.426   4.585  10.398  0.00  0.00    +0.000 NA
BRANCH  25  26
ATOM     26  C   UNL     1      43.208   5.235  10.939  0.00  0.00    +0.000 C 
BRANCH  26  27
ATOM     27  C   UNL     1      42.756   4.732  12.324  0.00  0.00    +0.000 C 
BRANCH  27  28
ATOM     28  O   UNL     1      42.829   5.781  13.287  0.00  0.00    +0.000 OA
ATOM     29  H   UNL     1      43.771   5.942  13.468  0.00  0.00    +0.000 HD
ENDBRANCH  27  28
ENDBRANCH  26  27
ENDBRANCH  25  26
BRANCH  25  30
ATOM     30  C   UNL     1      44.327   4.437   8.925  0.00  0.00    +0.000 C 
BRANCH  30  31
ATOM     31  C   UNL     1      45.303   3.445   8.332  0.00  0.00    +0.000 A 
ATOM     32  C   UNL     1      45.352   2.133   8.801  0.00  0.00    +0.000 A 
ATOM     33  N   UNL     1      46.233   1.218   8.332  0.00  0.00    +0.000 NA
ATOM     34  C   UNL     1      47.071   1.667   7.372  0.00  0.00    +0.000 A 
ATOM     35  C   UNL     1      47.027   2.966   6.895  0.00  0.00    +0.000 A 
ATOM     36  N   UNL     1      46.149   3.882   7.362  0.00  0.00    +0.000 NA
ENDBRANCH  30  31
ENDBRANCH  25  30
ENDBRANCH  24  25
ENDBRANCH   4  24
TORSDOF 10
ENDMDL
MODEL 2
REMARK VINA RESULT:    -7.746      2.237      2.882
REMARK INTER + INTRA:         -13.294
REMARK INTER:                 -12.324
REMARK INTRA:                  -0.970
REMARK UNBOUND:                -1.245
REMARK  Name = 
REMARK  10 active torsions:
REMARK  status: ('A' for Active; 'I' for Inactive)
REMARK    1  A    between atoms: C_2  and  C_23
REMARK    2  A    between atoms: N_3  and  C_4
REMARK    3  A    between atoms: C_4  and  C_5
REMARK    4  A    between atoms: C_8  and  C_9
REMARK    5  A    between atoms: C_9  and  N_10
REMARK    6  A    between atoms: N_10  and  C_11
REMARK    7  A    between atoms: N_10  and  C_14
REMARK    8  A    between atoms: C_11  and  C_12
REMARK    9  A    between atoms: C_12  and  O_13
REMARK   10  A    between atoms: C_14  and  C_15
REMARK                            x       y       z     vdW  Elec       q    Type
REMARK                         _______ _______ _______ _____ _____    ______ ____
ROOT
ATOM      1  C   UNL     1      47.989   6.279  13.912  0.00  0.00    +0.000 A 
ATOM      2  C   UNL     1      47.041   5.250  14.000  0.00  0.00    +0.000 A 
ATOM      3  C   UNL     1      46.084   5.080  12.999  0.00  0.00    +0.000 A 
ATOM      4  C   UNL     1      46.049   5.947  11.899  0.00  0.00    +0.000 A 
ATOM      5  C   UNL     1      47.057   6.910  11.762  0.00  0.00    +0.000 A 
ATOM      6  C   UNL     1      48.023   7.071  12.758  0.00  0.00    +0.000 A 
ENDROOT
BRANCH   1   7
ATOM      7  C   UNL     1      48.930   6.555  15.059  0.00  0.00    +0.000 C 
BRANCH   7  10
ATOM      8  N   UNL     1      48.968   4.129  16.751  0.00  0.00    +0.000 NA
ATOM      9  C   UNL     1      48.615   5.305  17.140  0.00  0.00    +0.000 C 
ATOM     10  N   UNL     1      48.277   6.353  16.335  0.00  0.00    +0.000 N 
ATOM     11  H   UNL     1      48.940   4.082  15.733  0.00  0.00    +0.000 HD
ATOM     12  H   UNL     1      48.182   7.250  16.813  0.00  0.00    +0.000 HD
BRANCH   9  13
ATOM     13  C   UNL     1      48.548   5.535  18.583  0.00  0.00    +0.000 A 
ATOM     14  C   UNL     1      47.380   5.993  19.178  0.00  0.00    +0.000 A 
ATOM     15  S   UNL     1      47.488   6.144  20.874  0.00  0.00    +0.000 S 
ATOM     16  C   UNL     1      49.088   5.564  20.878  0.00  0.00    +0.000 A 
ATOM     17  N   UNL     1      49.765   5.390  22.045  0.00  0.00    +0.000 NA
ATOM     18  C   UNL     1      50.952   4.898  21.900  0.00  0.00    +0.000 A 
ATOM     19  N   UNL     1      51.525   4.583  20.699  0.00  0.00    +0.000 N 
ATOM     20  C   UNL     1      50.896   4.787  19.494  0.00  0.00    +0.000 A 
ATOM     21  O   UNL     1      51.474   4.574  18.433  0.00  0.00    +0.000 OA
ATOM     22  C   UNL     1      49.544   5.295  19.601  0.00  0.00    +0.000 A 
ATOM     23  H   UNL     1      52.472   4.232  20.651  0.00  0.00    +0.000 HD
ENDBRANCH   9  13
ENDBRANCH   7  10
ENDBRANCH   1   7
BRANCH   4  24
ATOM     24  C   UNL     1      44.917   5.870  10.895  0.00  0.00    +0.000 C 
BRANCH  24  25
ATOM     25  N   UNL     1      44.470   4.477  10.610  0.00  0.00    +0.000 NA
BRANCH  25  26
ATOM     26  C   UNL     1      43.231   4.163  11.362  0.00  0.00    +0.000 C 
BRANCH  26  27
ATOM     27  C   UNL     1      42.491   5.383  11.945  0.00  0.00    +0.000 C 
BRANCH  27  28
ATOM     28  O   UNL     1      42.569   5.384  13.369  0.00  0.00    +0.000 OA
ATOM     29  H   UNL     1      42.698   6.306  13.650  0.00  0.00    +0.000 HD
ENDBRANCH  27  28
ENDBRANCH  26  27
ENDBRANCH  25  26
BRANCH  25  30
ATOM     30  C   UNL     1      44.247   4.322   9.151  0.00  0.00    +0.000 C 
BRANCH  30  31
ATOM     31  C   UNL     1      45.225   3.392   8.467  0.00  0.00    +0.000 A 
ATOM     32  C   UNL     1      45.338   2.063   8.870  0.00  0.00    +0.000 A 
ATOM     33  N   UNL     1      46.225   1.202   8.318  0.00  0.00    +0.000 NA
ATOM     34  C   UNL     1      47.001   1.723   7.343  0.00  0.00    +0.000 A 
ATOM     35  C   UNL     1      46.892   3.040   6.930  0.00  0.00    +0.000 A 
ATOM     36  N   UNL     1      46.008   3.903   7.481  0.00  0.00    +0.000 NA
ENDBRANCH  30  31
ENDBRANCH  25  30
ENDBRANCH  24  25
ENDBRANCH   4  24
TORSDOF 10
ENDMDL
MODEL 3
REMARK VINA RESULT:    -7.669      2.663      3.984
REMARK INTER + INTRA:         -13.174
REMARK INTER:                 -12.170
REMARK INTRA:                  -1.004
REMARK UNBOUND:                -1.245
REMARK  Name = 
REMARK  10 active torsions:
REMARK  status: ('A' for Active; 'I' for Inactive)
REMARK    1  A    between atoms: C_2  and  C_23
REMARK    2  A    between atoms: N_3  and  C_4
REMARK    3  A    between atoms: C_4  and  C_5
REMARK    4  A    between atoms: C_8  and  C_9
REMARK    5  A    between atoms: C_9  and  N_10
REMARK    6  A    between atoms: N_10  and  C_11
REMARK    7  A    between atoms: N_10  and  C_14
REMARK    8  A    between atoms: C_11  and  C_12
REMARK    9  A    between atoms: C_12  and  O_13
REMARK   10  A    between atoms: C_14  and  C_15
REMARK                            x       y       z     vdW  Elec       q    Type
REMARK                         _______ _______ _______ _____ _____    ______ ____
ROOT
ATOM      1  C   UNL     1      47.938   6.337  13.914  0.00  0.00    +0.000 A 
ATOM      2  C   UNL     1      47.018   5.281  13.995  0.00  0.00    +0.000 A 
ATOM      3  C   UNL     1      46.077   5.082  12.983  0.00  0.00    +0.000 A 
ATOM      4  C   UNL     1      46.031   5.942  11.880  0.00  0.00    +0.000 A 
ATOM      5  C   UNL     1      47.014   6.933  11.750  0.00  0.00    +0.000 A 
ATOM      6  C   UNL     1      47.963   7.125  12.757  0.00  0.00    +0.000 A 
ENDROOT
BRANCH   1   7
ATOM      7  C   UNL     1      48.856   6.643  15.071  0.00  0.00    +0.000 C 
BRANCH   7  10
ATOM      8  N   UNL     1      50.462   5.129  17.040  0.00  0.00    +0.000 NA
ATOM      9  C   UNL     1      49.282   5.602  17.245  0.00  0.00    +0.000 C 
ATOM     10  N   UNL     1      48.398   6.008  16.289  0.00  0.00    +0.000 N 
ATOM     11  H   UNL     1      50.642   5.080  16.038  0.00  0.00    +0.000 HD
ATOM     12  H   UNL     1      47.579   6.503  16.642  0.00  0.00    +0.000 HD
BRANCH   9  13
ATOM     13  C   UNL     1      48.837   5.694  18.635  0.00  0.00    +0.000 A 
ATOM     14  C   UNL     1      48.998   4.625  19.507  0.00  0.00    +0.000 A 
ATOM     15  S   UNL     1      48.465   4.948  21.094  0.00  0.00    +0.000 S 
ATOM     16  C   UNL     1      48.036   6.543  20.684  0.00  0.00    +0.000 A 
ATOM     17  N   UNL     1      47.557   7.401  21.624  0.00  0.00    +0.000 NA
ATOM     18  C   UNL     1      47.320   8.593  21.181  0.00  0.00    +0.000 A 
ATOM     19  N   UNL     1      47.501   8.995  19.886  0.00  0.00    +0.000 N 
ATOM     20  C   UNL     1      47.938   8.149  18.895  0.00  0.00    +0.000 A 
ATOM     21  O   UNL     1      48.006   8.521  17.729  0.00  0.00    +0.000 OA
ATOM     22  C   UNL     1      48.262   6.811  19.347  0.00  0.00    +0.000 A 
ATOM     23  H   UNL     1      47.265   9.934  19.596  0.00  0.00    +0.000 HD
ENDBRANCH   9  13
ENDBRANCH   7  10
ENDBRANCH   1   7
BRANCH   4  24
ATOM     24  C   UNL     1      44.914   5.830  10.862  0.00  0.00    +0.000 C 
BRANCH  24  25
ATOM     25  N   UNL     1      44.467   4.429  10.624  0.00  0.00    +0.000 NA
BRANCH  25  26
ATOM     26  C   UNL     1      43.239   4.134  11.403  0.00  0.00    +0.000 C 
BRANCH  26  27
ATOM     27  C   UNL     1      42.482   5.370  11.926  0.00  0.00    +0.000 C 
BRANCH  27  28
ATOM     28  O   UNL     1      42.544   5.433  13.349  0.00  0.00    +0.000 OA
ATOM     29  H   UNL     1      43.067   6.219  13.581  0.00  0.00    +0.000 HD
ENDBRANCH  27  28
ENDBRANCH  26  27
ENDBRANCH  25  26
BRANCH  25  30
ATOM     30  C   UNL     1      44.223   4.231   9.174  0.00  0.00    +0.000 C 
BRANCH  30  31
ATOM     31  C   UNL     1      45.240   3.346   8.487  0.00  0.00    +0.000 A 
ATOM     32  C   UNL     1      45.368   2.005   8.844  0.00  0.00    +0.000 A 
ATOM     33  N   UNL     1      46.289   1.183   8.288  0.00  0.00    +0.000 NA
ATOM     34  C   UNL     1      47.083   1.755   7.357  0.00  0.00    +0.000 A 
ATOM     35  C   UNL     1      46.960   3.085   6.990  0.00  0.00    +0.000 A 
ATOM     36  N   UNL     1      46.042   3.908   7.545  0.00  0.00    +0.000 NA
ENDBRANCH  30  31
ENDBRANCH  25  30
ENDBRANCH  24  25
ENDBRANCH   4  24
TORSDOF 10
ENDMDL
MODEL 4
REMARK VINA RESULT:    -7.641      2.593      3.272
REMARK INTER + INTRA:         -13.129
REMARK INTER:                 -11.933
REMARK INTRA:                  -1.196
REMARK UNBOUND:                -1.245
REMARK  Name = 
REMARK  10 active torsions:
REMARK  status: ('A' for Active; 'I' for Inactive)
REMARK    1  A    between atoms: C_2  and  C_23
REMARK    2  A    between atoms: N_3  and  C_4
REMARK    3  A    between atoms: C_4  and  C_5
REMARK    4  A    between atoms: C_8  and  C_9
REMARK    5  A    between atoms: C_9  and  N_10
REMARK    6  A    between atoms: N_10  and  C_11
REMARK    7  A    between atoms: N_10  and  C_14
REMARK    8  A    between atoms: C_11  and  C_12
REMARK    9  A    between atoms: C_12  and  O_13
REMARK   10  A    between atoms: C_14  and  C_15
REMARK                            x       y       z     vdW  Elec       q    Type
REMARK                         _______ _______ _______ _____ _____    ______ ____
ROOT
ATOM      1  C   UNL     1      48.261   6.608  13.563  0.00  0.00    +0.000 A 
ATOM      2  C   UNL     1      47.278   5.669  13.908  0.00  0.00    +0.000 A 
ATOM      3  C   UNL     1      46.221   5.398  13.038  0.00  0.00    +0.000 A 
ATOM      4  C   UNL     1      46.121   6.070  11.814  0.00  0.00    +0.000 A 
ATOM      5  C   UNL     1      47.156   6.931  11.426  0.00  0.00    +0.000 A 
ATOM      6  C   UNL     1      48.221   7.194  12.292  0.00  0.00    +0.000 A 
ENDROOT
BRANCH   1   7
ATOM      7  C   UNL     1      49.320   7.009  14.560  0.00  0.00    +0.000 C 
BRANCH   7  10
ATOM      8  N   UNL     1      50.882   5.560  16.612  0.00  0.00    +0.000 NA
ATOM      9  C   UNL     1      49.837   6.279  16.838  0.00  0.00    +0.000 C 
ATOM     10  N   UNL     1      48.920   6.684  15.913  0.00  0.00    +0.000 N 
ATOM     11  H   UNL     1      50.920   5.313  15.624  0.00  0.00    +0.000 HD
ATOM     12  H   UNL     1      48.251   7.378  16.245  0.00  0.00    +0.000 HD
BRANCH   9  13
ATOM     13  C   UNL     1      49.596   6.682  18.223  0.00  0.00    +0.000 A 
ATOM     14  C   UNL     1      49.678   8.016  18.602  0.00  0.00    +0.000 A 
ATOM     15  S   UNL     1      49.310   8.286  20.245  0.00  0.00    +0.000 S 
ATOM     16  C   UNL     1      48.990   6.634  20.502  0.00  0.00    +0.000 A 
ATOM     17  N   UNL     1      48.560   6.185  21.712  0.00  0.00    +0.000 NA
ATOM     18  C   UNL     1      48.309   4.917  21.747  0.00  0.00    +0.000 A 
ATOM     19  N   UNL     1      48.466   4.060  20.692  0.00  0.00    +0.000 N 
ATOM     20  C   UNL     1      48.943   4.462  19.467  0.00  0.00    +0.000 A 
ATOM     21  O   UNL     1      49.152   3.651  18.572  0.00  0.00    +0.000 OA
ATOM     22  C   UNL     1      49.197   5.884  19.359  0.00  0.00    +0.000 A 
ATOM     23  H   UNL     1      48.284   3.071  20.795  0.00  0.00    +0.000 HD
ENDBRANCH   9  13
ENDBRANCH   7  10
ENDBRANCH   1   7
BRANCH   4  24
ATOM     24  C   UNL     1      44.895   5.900  10.940  0.00  0.00    +0.000 C 
BRANCH  24  25
ATOM     25  N   UNL     1      44.574   4.476  10.638  0.00  0.00    +0.000 NA
BRANCH  25  26
ATOM     26  C   UNL     1      43.375   4.041  11.394  0.00  0.00    +0.000 C 
BRANCH  26  27
ATOM     27  C   UNL     1      43.575   2.796  12.280  0.00  0.00    +0.000 C 
BRANCH  27  28
ATOM     28  O   UNL     1      42.940   1.659  11.698  0.00  0.00    +0.000 OA
ATOM     29  H   UNL     1      42.702   1.896  10.786  0.00  0.00    +0.000 HD
ENDBRANCH  27  28
ENDBRANCH  26  27
ENDBRANCH  25  26
BRANCH  25  30
ATOM     30  C   UNL     1      44.355   4.322   9.179  0.00  0.00    +0.000 C 
BRANCH  30  31
ATOM     31  C   UNL     1      45.347   3.408   8.494  0.00  0.00    +0.000 A 
ATOM     32  C   UNL     1      45.386   2.049   8.799  0.00  0.00    +0.000 A 
ATOM     33  N   UNL     1      46.280   1.197   8.243  0.00  0.00    +0.000 NA
ATOM     34  C   UNL     1      47.142   1.760   7.367  0.00  0.00    +0.000 A 
ATOM     35  C   UNL     1      47.107   3.108   7.052  0.00  0.00    +0.000 A 
ATOM     36  N   UNL     1      46.216   3.960   7.606  0.00  0.00    +0.000 NA
ENDBRANCH  30  31
ENDBRANCH  25  30
ENDBRANCH  24  25
ENDBRANCH   4  24
TORSDOF 10
ENDMDL
MODEL 5
REMARK VINA RESULT:    -7.486      2.125      2.733
REMARK INTER + INTRA:         -12.889
REMARK INTER:                 -11.404
REMARK INTRA:                  -1.485
REMARK UNBOUND:                -1.245
REMARK  Name = 
REMARK  10 active torsions:
REMARK  status: ('A' for Active; 'I' for Inactive)
REMARK    1  A    between atoms: C_2  and  C_23
REMARK    2  A    between atoms: N_3  and  C_4
REMARK    3  A    between atoms: C_4  and  C_5
REMARK    4  A    between atoms: C_8  and  C_9
REMARK    5  A    between atoms: C_9  and  N_10
REMARK    6  A    between atoms: N_10  and  C_11
REMARK    7  A    between atoms: N_10  and  C_14
REMARK    8  A    between atoms: C_11  and  C_12
REMARK    9  A    between atoms: C_12  and  O_13
REMARK   10  A    between atoms: C_14  and  C_15
REMARK                            x       y       z     vdW  Elec       q    Type
REMARK                         _______ _______ _______ _____ _____    ______ ____
ROOT
ATOM      1  C   UNL     1      48.251   8.072  13.832  0.00  0.00    +0.000 A 
ATOM      2  C   UNL     1      48.499   6.982  12.985  0.00  0.00    +0.000 A 
ATOM      3  C   UNL     1      47.510   6.520  12.116  0.00  0.00    +0.000 A 
ATOM      4  C   UNL     1      46.250   7.131  12.089  0.00  0.00    +0.000 A 
ATOM      5  C   UNL     1      46.037   8.281  12.860  0.00  0.00    +0.000 A 
ATOM      6  C   UNL     1      47.032   8.751  13.721  0.00  0.00    +0.000 A 
ENDROOT
BRANCH   1   7
ATOM      7  C   UNL     1      49.264   8.480  14.873  0.00  0.00    +0.000 C 
BRANCH   7  10
ATOM      8  N   UNL     1      48.170   7.605  17.477  0.00  0.00    +0.000 NA
ATOM      9  C   UNL     1      48.904   6.889  16.698  0.00  0.00    +0.000 C 
ATOM     10  N   UNL     1      49.680   7.349  15.675  0.00  0.00    +0.000 N 
ATOM     11  H   UNL     1      48.265   8.589  17.231  0.00  0.00    +0.000 HD
ATOM     12  H   UNL     1      50.063   6.624  15.067  0.00  0.00    +0.000 HD
BRANCH   9  13
ATOM     13  C   UNL     1      48.927   5.448  16.946  0.00  0.00    +0.000 A 
ATOM     14  C   UNL     1      47.771   4.686  16.831  0.00  0.00    +0.000 A 
ATOM     15  S   UNL     1      48.017   3.021  17.107  0.00  0.00    +0.000 S 
ATOM     16  C   UNL     1      49.686   3.252  17.351  0.00  0.00    +0.000 A 
ATOM     17  N   UNL     1      50.511   2.195  17.579  0.00  0.00    +0.000 NA
ATOM     18  C   UNL     1      51.759   2.515  17.697  0.00  0.00    +0.000 A 
ATOM     19  N   UNL     1      52.249   3.790  17.626  0.00  0.00    +0.000 N 
ATOM     20  C   UNL     1      51.446   4.890  17.444  0.00  0.00    +0.000 A 
ATOM     21  O   UNL     1      51.910   6.025  17.472  0.00  0.00    +0.000 OA
ATOM     22  C   UNL     1      50.042   4.585  17.260  0.00  0.00    +0.000 A 
ATOM     23  H   UNL     1      53.234   3.976  17.760  0.00  0.00    +0.000 HD
ENDBRANCH   9  13
ENDBRANCH   7  10
ENDBRANCH   1   7
BRANCH   4  24
ATOM     24  C   UNL     1      45.124   6.536  11.268  0.00  0.00    +0.000 C 
BRANCH  24  25
ATOM     25  N   UNL     1      45.159   5.047  11.204  0.00  0.00    +0.000 NA
BRANCH  25  26
ATOM     26  C   UNL     1      44.605   4.459  12.447  0.00  0.00    +0.000 C 
BRANCH  26  27
ATOM     27  C   UNL     1      43.066   4.421  12.526  0.00  0.00    +0.000 C 
BRANCH  27  28
ATOM     28  O   UNL     1      42.585   5.418  13.424  0.00  0.00    +0.000 OA
ATOM     29  H   UNL     1      42.617   5.040  14.319  0.00  0.00    +0.000 HD
ENDBRANCH  27  28
ENDBRANCH  26  27
ENDBRANCH  25  26
BRANCH  25  30
ATOM     30  C   UNL     1      44.388   4.589  10.022  0.00  0.00    +0.000 C 
BRANCH  30  31
ATOM     31  C   UNL     1      45.185   3.754   9.044  0.00  0.00    +0.000 A 
ATOM     32  C   UNL     1      45.259   2.370   9.191  0.00  0.00    +0.000 A 
ATOM     33  N   UNL     1      45.990   1.583   8.367  0.00  0.00    +0.000 NA
ATOM     34  C   UNL     1      46.652   2.235   7.386  0.00  0.00    +0.000 A 
ATOM     35  C   UNL     1      46.579   3.609   7.227  0.00  0.00    +0.000 A 
ATOM     36  N   UNL     1      45.851   4.397   8.049  0.00  0.00    +0.000 NA
ENDBRANCH  30  31
ENDBRANCH  25  30
ENDBRANCH  24  25
ENDBRANCH   4  24
TORSDOF 10
ENDMDL
MODEL 6
REMARK VINA RESULT:    -7.171      2.288      3.178
REMARK INTER + INTRA:         -12.399
REMARK INTER:                 -10.898
REMARK INTRA:                  -1.501
REMARK UNBOUND:                -1.245
REMARK  Name = 
REMARK  10 active torsions:
REMARK  status: ('A' for Active; 'I' for Inactive)
REMARK    1  A    between atoms: C_2  and  C_23
REMARK    2  A    between atoms: N_3  and  C_4
REMARK    3  A    between atoms: C_4  and  C_5
REMARK    4  A    between atoms: C_8  and  C_9
REMARK    5  A    between atoms: C_9  and  N_10
REMARK    6  A    between atoms: N_10  and  C_11
REMARK    7  A    between atoms: N_10  and  C_14
REMARK    8  A    between atoms: C_11  and  C_12
REMARK    9  A    between atoms: C_12  and  O_13
REMARK   10  A    between atoms: C_14  and  C_15
REMARK                            x       y       z     vdW  Elec       q    Type
REMARK                         _______ _______ _______ _____ _____    ______ ____
ROOT
ATOM      1  C   UNL     1      48.959   8.245  13.541  0.00  0.00    +0.000 A 
ATOM      2  C   UNL     1      49.002   7.298  12.507  0.00  0.00    +0.000 A 
ATOM      3  C   UNL     1      47.830   6.898  11.864  0.00  0.00    +0.000 A 
ATOM      4  C   UNL     1      46.593   7.427  12.252  0.00  0.00    +0.000 A 
ATOM      5  C   UNL     1      46.562   8.446  13.214  0.00  0.00    +0.000 A 
ATOM      6  C   UNL     1      47.738   8.855  13.849  0.00  0.00    +0.000 A 
ENDROOT
BRANCH   1   7
ATOM      7  C   UNL     1      50.201   8.570  14.334  0.00  0.00    +0.000 C 
BRANCH   7  10
ATOM      8  N   UNL     1      51.575   8.216  16.929  0.00  0.00    +0.000 NA
ATOM      9  C   UNL     1      51.157   7.263  16.170  0.00  0.00    +0.000 C 
ATOM     10  N   UNL     1      50.824   7.369  14.852  0.00  0.00    +0.000 N 
ATOM     11  H   UNL     1      51.643   9.079  16.390  0.00  0.00    +0.000 HD
ATOM     12  H   UNL     1      50.361   6.550  14.458  0.00  0.00    +0.000 HD
BRANCH   9  13
ATOM     13  C   UNL     1      51.050   5.935  16.772  0.00  0.00    +0.000 A 
ATOM     14  C   UNL     1      52.161   5.310  17.322  0.00  0.00    +0.000 A 
ATOM     15  S   UNL     1      51.819   3.792  18.021  0.00  0.00    +0.000 S 
ATOM     16  C   UNL     1      50.164   3.933  17.649  0.00  0.00    +0.000 A 
ATOM     17  N   UNL     1      49.278   2.975  18.033  0.00  0.00    +0.000 NA
ATOM     18  C   UNL     1      48.049   3.238  17.726  0.00  0.00    +0.000 A 
ATOM     19  N   UNL     1      47.633   4.357  17.059  0.00  0.00    +0.000 N 
ATOM     20  C   UNL     1      48.499   5.326  16.612  0.00  0.00    +0.000 A 
ATOM     21  O   UNL     1      48.099   6.273  15.942  0.00  0.00    +0.000 OA
ATOM     22  C   UNL     1      49.885   5.104  16.969  0.00  0.00    +0.000 A 
ATOM     23  H   UNL     1      46.659   4.487  16.820  0.00  0.00    +0.000 HD
ENDBRANCH   9  13
ENDBRANCH   7  10
ENDBRANCH   1   7
BRANCH   4  24
ATOM     24  C   UNL     1      45.305   6.881  11.671  0.00  0.00    +0.000 C 
BRANCH  24  25
ATOM     25  N   UNL     1      45.292   5.395  11.551  0.00  0.00    +0.000 NA
BRANCH  25  26
ATOM     26  C   UNL     1      44.844   4.774  12.822  0.00  0.00    +0.000 C 
BRANCH  26  27
ATOM     27  C   UNL     1      43.351   4.398  12.877  0.00  0.00    +0.000 C 
BRANCH  27  28
ATOM     28  O   UNL     1      42.590   5.452  13.462  0.00  0.00    +0.000 OA
ATOM     29  H   UNL     1      42.188   5.102  14.275  0.00  0.00    +0.000 HD
ENDBRANCH  27  28
ENDBRANCH  26  27
ENDBRANCH  25  26
BRANCH  25  30
ATOM     30  C   UNL     1      44.397   5.001  10.435  0.00  0.00    +0.000 C 
BRANCH  30  31
ATOM     31  C   UNL     1      45.029   4.060   9.434  0.00  0.00    +0.000 A 
ATOM     32  C   UNL     1      44.967   2.680   9.621  0.00  0.00    +0.000 A 
ATOM     33  N   UNL     1      45.550   1.797   8.776  0.00  0.00    +0.000 NA
ATOM     34  C   UNL     1      46.204   2.349   7.731  0.00  0.00    +0.000 A 
ATOM     35  C   UNL     1      46.266   3.718   7.531  0.00  0.00    +0.000 A 
ATOM     36  N   UNL     1      45.685   4.601   8.374  0.00  0.00    +0.000 NA
ENDBRANCH  30  31
ENDBRANCH  25  30
ENDBRANCH  24  25
ENDBRANCH   4  24
TORSDOF 10
ENDMDL
MODEL 7
REMARK VINA RESULT:    -6.929      3.089      4.081
REMARK INTER + INTRA:         -12.023
REMARK INTER:                 -10.686
REMARK INTRA:                  -1.337
REMARK UNBOUND:                -1.245
REMARK  Name = 
REMARK  10 active torsions:
REMARK  status: ('A' for Active; 'I' for Inactive)
REMARK    1  A    between atoms: C_2  and  C_23
REMARK    2  A    between atoms: N_3  and  C_4
REMARK    3  A    between atoms: C_4  and  C_5
REMARK    4  A    between atoms: C_8  and  C_9
REMARK    5  A    between atoms: C_9  and  N_10
REMARK    6  A    between atoms: N_10  and  C_11
REMARK    7  A    between atoms: N_10  and  C_14
REMARK    8  A    between atoms: C_11  and  C_12
REMARK    9  A    between atoms: C_12  and  O_13
REMARK   10  A    between atoms: C_14  and  C_15
REMARK                            x       y       z     vdW  Elec       q    Type
REMARK                         _______ _______ _______ _____ _____    ______ ____
ROOT
ATOM      1  C   UNL     1      47.538   8.580  12.760  0.00  0.00    +0.000 A 
ATOM      2  C   UNL     1      47.849   7.236  12.506  0.00  0.00    +0.000 A 
ATOM      3  C   UNL     1      46.891   6.377  11.966  0.00  0.00    +0.000 A 
ATOM      4  C   UNL     1      45.601   6.844  11.683  0.00  0.00    +0.000 A 
ATOM      5  C   UNL     1      45.322   8.207  11.842  0.00  0.00    +0.000 A 
ATOM      6  C   UNL     1      46.286   9.070  12.371  0.00  0.00    +0.000 A 
ENDROOT
BRANCH   1   7
ATOM      7  C   UNL     1      48.522   9.471  13.477  0.00  0.00    +0.000 C 
BRANCH   7  10
ATOM      8  N   UNL     1      47.692   9.524  16.316  0.00  0.00    +0.000 NA
ATOM      9  C   UNL     1      48.485   8.659  15.787  0.00  0.00    +0.000 C 
ATOM     10  N   UNL     1      49.137   8.785  14.595  0.00  0.00    +0.000 N 
ATOM     11  H   UNL     1      47.630  10.345  15.716  0.00  0.00    +0.000 HD
ATOM     12  H   UNL     1      49.593   7.935  14.262  0.00  0.00    +0.000 HD
BRANCH   9  13
ATOM     13  C   UNL     1      48.731   7.433  16.545  0.00  0.00    +0.000 A 
ATOM     14  C   UNL     1      48.498   6.186  15.979  0.00  0.00    +0.000 A 
ATOM     15  S   UNL     1      48.897   4.882  17.003  0.00  0.00    +0.000 S 
ATOM     16  C   UNL     1      49.434   5.937  18.227  0.00  0.00    +0.000 A 
ATOM     17  N   UNL     1      49.966   5.454  19.381  0.00  0.00    +0.000 NA
ATOM     18  C   UNL     1      50.376   6.369  20.199  0.00  0.00    +0.000 A 
ATOM     19  N   UNL     1      50.284   7.715  19.973  0.00  0.00    +0.000 N 
ATOM     20  C   UNL     1      49.710   8.246  18.843  0.00  0.00    +0.000 A 
ATOM     21  O   UNL     1      49.567   9.457  18.715  0.00  0.00    +0.000 OA
ATOM     22  C   UNL     1      49.275   7.263  17.872  0.00  0.00    +0.000 A 
ATOM     23  H   UNL     1      50.593   8.380  20.669  0.00  0.00    +0.000 HD
ENDBRANCH   9  13
ENDBRANCH   7  10
ENDBRANCH   1   7
BRANCH   4  24
ATOM     24  C   UNL     1      44.513   5.882  11.250  0.00  0.00    +0.000 C 
BRANCH  24  25
ATOM     25  N   UNL     1      45.030   4.546  10.839  0.00  0.00    +0.000 NA
BRANCH  25  26
ATOM     26  C   UNL     1      44.697   3.522  11.860  0.00  0.00    +0.000 C 
BRANCH  26  27
ATOM     27  C   UNL     1      43.225   3.067  11.876  0.00  0.00    +0.000 C 
BRANCH  27  28
ATOM     28  O   UNL     1      43.135   1.654  11.705  0.00  0.00    +0.000 OA
ATOM     29  H   UNL     1      43.116   1.256  12.592  0.00  0.00    +0.000 HD
ENDBRANCH  27  28
ENDBRANCH  26  27
ENDBRANCH  25  26
BRANCH  25  30
ATOM     30  C   UNL     1      44.450   4.178   9.525  0.00  0.00    +0.000 C 
BRANCH  30  31
ATOM     31  C   UNL     1      45.383   3.392   8.630  0.00  0.00    +0.000 A 
ATOM     32  C   UNL     1      45.552   2.021   8.814  0.00  0.00    +0.000 A 
ATOM     33  N   UNL     1      46.404   1.279   8.068  0.00  0.00    +0.000 NA
ATOM     34  C   UNL     1      47.088   1.965   7.125  0.00  0.00    +0.000 A 
ATOM     35  C   UNL     1      46.923   3.326   6.930  0.00  0.00    +0.000 A 
ATOM     36  N   UNL     1      46.073   4.068   7.674  0.00  0.00    +0.000 NA
ENDBRANCH  30  31
ENDBRANCH  25  30
ENDBRANCH  24  25
ENDBRANCH   4  24
TORSDOF 10
ENDMDL
MODEL 8
REMARK VINA RESULT:    -6.844      3.311      4.386
REMARK INTER + INTRA:         -11.891
REMARK INTER:                  -9.597
REMARK INTRA:                  -2.294
REMARK UNBOUND:                -1.245
REMARK  Name = 
REMARK  10 active torsions:
REMARK  status: ('A' for Active; 'I' for Inactive)
REMARK    1  A    between atoms: C_2  and  C_23
REMARK    2  A    between atoms: N_3  and  C_4
REMARK    3  A    between atoms: C_4  and  C_5
REMARK    4  A    between atoms: C_8  and  C_9
REMARK    5  A    between atoms: C_9  and  N_10
REMARK    6  A    between atoms: N_10  and  C_11
REMARK    7  A    between atoms: N_10  and  C_14
REMARK    8  A    between atoms: C_11  and  C_12
REMARK    9  A    between atoms: C_12  and  O_13
REMARK   10  A    between atoms: C_14  and  C_15
REMARK                            x       y       z     vdW  Elec       q    Type
REMARK                         _______ _______ _______ _____ _____    ______ ____
ROOT
ATOM      1  C   UNL     1      49.345   9.049  11.903  0.00  0.00    +0.000 A 
ATOM      2  C   UNL     1      49.212   7.696  11.561  0.00  0.00    +0.000 A 
ATOM      3  C   UNL     1      47.958   7.084  11.562  0.00  0.00    +0.000 A 
ATOM      4  C   UNL     1      46.816   7.813  11.918  0.00  0.00    +0.000 A 
ATOM      5  C   UNL     1      46.936   9.188  12.160  0.00  0.00    +0.000 A 
ATOM      6  C   UNL     1      48.191   9.802  12.146  0.00  0.00    +0.000 A 
ENDROOT
BRANCH   1   7
ATOM      7  C   UNL     1      50.712   9.673  12.044  0.00  0.00    +0.000 C 
BRANCH   7  10
ATOM      8  N   UNL     1      50.610  10.159  14.960  0.00  0.00    +0.000 NA
ATOM      9  C   UNL     1      51.131   9.126  14.393  0.00  0.00    +0.000 C 
ATOM     10  N   UNL     1      51.485   9.019  13.080  0.00  0.00    +0.000 N 
ATOM     11  H   UNL     1      50.513  10.911  14.279  0.00  0.00    +0.000 HD
ATOM     12  H   UNL     1      51.731   8.077  12.776  0.00  0.00    +0.000 HD
BRANCH   9  13
ATOM     13  C   UNL     1      51.391   7.964  15.242  0.00  0.00    +0.000 A 
ATOM     14  C   UNL     1      52.686   7.638  15.626  0.00  0.00    +0.000 A 
ATOM     15  S   UNL     1      52.773   6.282  16.657  0.00  0.00    +0.000 S 
ATOM     16  C   UNL     1      51.080   6.106  16.661  0.00  0.00    +0.000 A 
ATOM     17  N   UNL     1      50.479   5.145  17.412  0.00  0.00    +0.000 NA
ATOM     18  C   UNL     1      49.187   5.160  17.355  0.00  0.00    +0.000 A 
ATOM     19  N   UNL     1      48.449   6.034  16.605  0.00  0.00    +0.000 N 
ATOM     20  C   UNL     1      49.016   6.988  15.795  0.00  0.00    +0.000 A 
ATOM     21  O   UNL     1      48.325   7.697  15.070  0.00  0.00    +0.000 OA
ATOM     22  C   UNL     1      50.462   7.046  15.856  0.00  0.00    +0.000 A 
ATOM     23  H   UNL     1      47.440   5.971  16.577  0.00  0.00    +0.000 HD
ENDBRANCH   9  13
ENDBRANCH   7  10
ENDBRANCH   1   7
BRANCH   4  24
ATOM     24  C   UNL     1      45.479   7.118  12.078  0.00  0.00    +0.000 C 
BRANCH  24  25
ATOM     25  N   UNL     1      45.537   5.652  11.816  0.00  0.00    +0.000 NA
BRANCH  25  26
ATOM     26  C   UNL     1      45.294   4.890  13.065  0.00  0.00    +0.000 C 
BRANCH  26  27
ATOM     27  C   UNL     1      46.457   3.985  13.517  0.00  0.00    +0.000 C 
BRANCH  27  28
ATOM     28  O   UNL     1      47.549   4.771  13.990  0.00  0.00    +0.000 OA
ATOM     29  H   UNL     1      48.309   4.175  14.097  0.00  0.00    +0.000 HD
ENDBRANCH  27  28
ENDBRANCH  26  27
ENDBRANCH  25  26
BRANCH  25  30
ATOM     30  C   UNL     1      44.529   5.298  10.786  0.00  0.00    +0.000 C 
BRANCH  30  31
ATOM     31  C   UNL     1      45.022   4.317   9.745  0.00  0.00    +0.000 A 
ATOM     32  C   UNL     1      44.831   2.947   9.916  0.00  0.00    +0.000 A 
ATOM     33  N   UNL     1      45.288   2.027   9.034  0.00  0.00    +0.000 NA
ATOM     34  C   UNL     1      45.949   2.530   7.969  0.00  0.00    +0.000 A 
ATOM     35  C   UNL     1      46.139   3.890   7.786  0.00  0.00    +0.000 A 
ATOM     36  N   UNL     1      45.685   4.811   8.665  0.00  0.00    +0.000 NA
ENDBRANCH  30  31
ENDBRANCH  25  30
ENDBRANCH  24  25
ENDBRANCH   4  24
TORSDOF 10
ENDMDL
MODEL 9
REMARK VINA RESULT:    -6.699      2.260      3.123
REMARK INTER + INTRA:         -11.665
REMARK INTER:                 -10.452
REMARK INTRA:                  -1.213
REMARK UNBOUND:                -1.245
REMARK  Name = 
REMARK  10 active torsions:
REMARK  status: ('A' for Active; 'I' for Inactive)
REMARK    1  A    between atoms: C_2  and  C_23
REMARK    2  A    between atoms: N_3  and  C_4
REMARK    3  A    between atoms: C_4  and  C_5
REMARK    4  A    between atoms: C_8  and  C_9
REMARK    5  A    between atoms: C_9  and  N_10
REMARK    6  A    between atoms: N_10  and  C_11
REMARK    7  A    between atoms: N_10  and  C_14
REMARK    8  A    between atoms: C_11  and  C_12
REMARK    9  A    between atoms: C_12  and  O_13
REMARK   10  A    between atoms: C_14  and  C_15
REMARK                            x       y       z     vdW  Elec       q    Type
REMARK                         _______ _______ _______ _____ _____    ______ ____
ROOT
ATOM      1  C   UNL     1      48.268   5.325  16.064  0.00  0.00    +0.000 A 
ATOM      2  C   UNL     1      47.366   4.557  15.313  0.00  0.00    +0.000 A 
ATOM      3  C   UNL     1      46.942   4.990  14.056  0.00  0.00    +0.000 A 
ATOM      4  C   UNL     1      47.403   6.205  13.533  0.00  0.00    +0.000 A 
ATOM      5  C   UNL     1      48.380   6.920  14.238  0.00  0.00    +0.000 A 
ATOM      6  C   UNL     1      48.814   6.480  15.492  0.00  0.00    +0.000 A 
ENDROOT
BRANCH   1   7
ATOM      7  C   UNL     1      48.614   4.933  17.479  0.00  0.00    +0.000 C 
BRANCH   7  10
ATOM      8  N   UNL     1      50.061   4.484  20.019  0.00  0.00    +0.000 NA
ATOM      9  C   UNL     1      50.595   4.488  18.847  0.00  0.00    +0.000 C 
ATOM     10  N   UNL     1      50.042   5.002  17.711  0.00  0.00    +0.000 N 
ATOM     11  H   UNL     1      49.154   4.947  19.985  0.00  0.00    +0.000 HD
ATOM     12  H   UNL     1      50.537   4.771  16.849  0.00  0.00    +0.000 HD
BRANCH   9  13
ATOM     13  C   UNL     1      51.931   3.906  18.724  0.00  0.00    +0.000 A 
ATOM     14  C   UNL     1      53.036   4.536  19.280  0.00  0.00    +0.000 A 
ATOM     15  S   UNL     1      54.493   3.673  19.076  0.00  0.00    +0.000 S 
ATOM     16  C   UNL     1      53.692   2.405  18.271  0.00  0.00    +0.000 A 
ATOM     17  N   UNL     1      54.369   1.296  17.867  0.00  0.00    +0.000 NA
ATOM     18  C   UNL     1      53.624   0.394  17.314  0.00  0.00    +0.000 A 
ATOM     19  N   UNL     1      52.276   0.510  17.114  0.00  0.00    +0.000 N 
ATOM     20  C   UNL     1      51.562   1.631  17.462  0.00  0.00    +0.000 A 
ATOM     21  O   UNL     1      50.371   1.734  17.189  0.00  0.00    +0.000 OA
ATOM     22  C   UNL     1      52.340   2.656  18.129  0.00  0.00    +0.000 A 
ATOM     23  H   UNL     1      51.757  -0.219  16.644  0.00  0.00    +0.000 HD
ENDBRANCH   9  13
ENDBRANCH   7  10
ENDBRANCH   1   7
BRANCH   4  24
ATOM     24  C   UNL     1      46.825   6.757  12.246  0.00  0.00    +0.000 C 
BRANCH  24  25
ATOM     25  N   UNL     1      45.467   7.349  12.411  0.00  0.00    +0.000 NA
BRANCH  25  26
ATOM     26  C   UNL     1      45.534   8.829  12.358  0.00  0.00    +0.000 C 
BRANCH  26  27
ATOM     27  C   UNL     1      44.443   9.505  11.503  0.00  0.00    +0.000 C 
BRANCH  27  28
ATOM     28  O   UNL     1      43.686  10.422  12.289  0.00  0.00    +0.000 OA
ATOM     29  H   UNL     1      44.261  11.183  12.480  0.00  0.00    +0.000 HD
ENDBRANCH  27  28
ENDBRANCH  26  27
ENDBRANCH  25  26
BRANCH  25  30
ATOM     30  C   UNL     1      44.574   6.829  11.346  0.00  0.00    +0.000 C 
BRANCH  30  31
ATOM     31  C   UNL     1      44.144   5.392  11.541  0.00  0.00    +0.000 A 
ATOM     32  C   UNL     1      43.724   4.941  12.792  0.00  0.00    +0.000 A 
ATOM     33  N   UNL     1      43.368   3.657  13.028  0.00  0.00    +0.000 NA
ATOM     34  C   UNL     1      43.450   2.832  11.960  0.00  0.00    +0.000 A 
ATOM     35  C   UNL     1      43.859   3.271  10.712  0.00  0.00    +0.000 A 
ATOM     36  N   UNL     1      44.216   4.553  10.474  0.00  0.00    +0.000 NA
ENDBRANCH  30  31
ENDBRANCH  25  30
ENDBRANCH  24  25
ENDBRANCH   4  24
TORSDOF 10
ENDMDL
