MODEL 1
REMARK VINA RESULT:    -8.812      0.000      0.000
REMARK INTER + INTRA:         -11.789
REMARK INTER:                 -11.388
REMARK INTRA:                  -0.401
REMARK UNBOUND:                -0.401
REMARK  Name = 
REMARK  5 active torsions:
REMARK  status: ('A' for Active; 'I' for Inactive)
REMARK    1  A    between atoms: C_2  and  C_18
REMARK    2  A    between atoms: N_3  and  C_4
REMARK    3  A    between atoms: C_4  and  C_5
REMARK    4  A    between atoms: C_8  and  C_9
REMARK    5  A    between atoms: C_9  and  C_10
REMARK                            x       y       z     vdW  Elec       q    Type
REMARK                         _______ _______ _______ _____ _____    ______ ____
ROOT
ATOM      1  O   UNL     1      46.663   3.315  13.783  0.00  0.00    +0.000 OA
ATOM      2  C   UNL     1      46.492   4.480  14.118  0.00  0.00    +0.000 C 
ATOM      3  N   UNL     1      45.323   5.170  13.884  0.00  0.00    +0.000 N 
ATOM      4  H   UNL     1      45.307   6.169  14.022  0.00  0.00    +0.000 HD
ENDROOT
BRANCH   2   5
ATOM      5  C   UNL     1      47.504   5.236  14.859  0.00  0.00    +0.000 A 
ATOM      6  C   UNL     1      48.283   6.227  14.278  0.00  0.00    +0.000 A 
ATOM      7  S   UNL     1      49.297   7.026  15.401  0.00  0.00    +0.000 S 
ATOM      8  C   UNL     1      48.719   6.071  16.686  0.00  0.00    +0.000 A 
ATOM      9  N   UNL     1      49.166   6.263  17.956  0.00  0.00    +0.000 NA
ATOM     10  C   UNL     1      48.631   5.476  18.829  0.00  0.00    +0.000 A 
ATOM     11  N   UNL     1      47.701   4.507  18.547  0.00  0.00    +0.000 N 
ATOM     12  C   UNL     1      47.281   4.220  17.268  0.00  0.00    +0.000 A 
ATOM     13  O   UNL     1      46.594   3.233  17.040  0.00  0.00    +0.000 OA
ATOM     14  C   UNL     1      47.797   5.135  16.262  0.00  0.00    +0.000 A 
ATOM     15  H   UNL     1      47.366   3.881  19.263  0.00  0.00    +0.000 HD
ENDBRANCH   2   5
BRANCH   3  16
ATOM     16  C   UNL     1      44.221   4.568  13.172  0.00  0.00    +0.000 C 
BRANCH  16  17
ATOM     17  C   UNL     1      44.528   4.401  11.707  0.00  0.00    +0.000 A 
ATOM     18  C   UNL     1      44.036   3.290  11.012  0.00  0.00    +0.000 A 
ATOM     19  C   UNL     1      44.299   3.131   9.650  0.00  0.00    +0.000 A 
ATOM     20  C   UNL     1      45.070   4.071   8.956  0.00  0.00    +0.000 A 
ATOM     21  C   UNL     1      45.582   5.171   9.655  0.00  0.00    +0.000 A 
ATOM     22  C   UNL     1      45.320   5.331  11.021  0.00  0.00    +0.000 A 
BRANCH  20  23
ATOM     23  C   UNL     1      45.371   3.885   7.488  0.00  0.00    +0.000 C 
BRANCH  23  24
ATOM     24  C   UNL     1      46.590   2.987   7.163  0.00  0.00    +0.000 C 
ATOM     25  C   UNL     1      46.810   2.861   5.645  0.00  0.00    +0.000 C 
ATOM     26  C   UNL     1      47.668   1.667   5.252  0.00  0.00    +0.000 C 
ATOM     27  O   UNL     1      47.170   0.472   5.846  0.00  0.00    +0.000 OA
ATOM     28  C   UNL     1      47.285   0.522   7.264  0.00  0.00    +0.000 C 
ATOM     29  C   UNL     1      46.391   1.613   7.834  0.00  0.00    +0.000 C 
ENDBRANCH  23  24
ENDBRANCH  20  23
ENDBRANCH  16  17
ENDBRANCH   3  16
TORSDOF 5
ENDMDL
MODEL 2
REMARK VINA RESULT:    -8.193      2.277      3.323
REMARK INTER + INTRA:         -10.988
REMARK INTER:                 -10.266
REMARK INTRA:                  -0.722
REMARK UNBOUND:                -0.401
REMARK  Name = 
REMARK  5 active torsions:
REMARK  status: ('A' for Active; 'I' for Inactive)
REMARK    1  A    between atoms: C_2  and  C_18
REMARK    2  A    between atoms: N_3  and  C_4
REMARK    3  A    between atoms: C_4  and  C_5
REMARK    4  A    between atoms: C_8  and  C_9
REMARK    5  A    between atoms: C_9  and  C_10
REMARK                            x       y       z     vdW  Elec       q    Type
REMARK                         _______ _______ _______ _____ _____    ______ ____
ROOT
ATOM      1  O   UNL     1      47.494   4.356  13.968  0.00  0.00    +0.000 OA
ATOM      2  C   UNL     1      47.374   5.575  13.958  0.00  0.00    +0.000 C 
ATOM      3  N   UNL     1      46.192   6.216  13.658  0.00  0.00    +0.000 N 
ATOM      4  H   UNL     1      46.201   7.211  13.494  0.00  0.00    +0.000 HD
ENDROOT
BRANCH   2   5
ATOM      5  C   UNL     1      48.472   6.470  14.327  0.00  0.00    +0.000 A 
ATOM      6  C   UNL     1      48.949   6.588  15.626  0.00  0.00    +0.000 A 
ATOM      7  S   UNL     1      50.314   7.613  15.748  0.00  0.00    +0.000 S 
ATOM      8  C   UNL     1      50.302   7.920  14.074  0.00  0.00    +0.000 A 
ATOM      9  N   UNL     1      51.245   8.717  13.502  0.00  0.00    +0.000 NA
ATOM     10  C   UNL     1      51.120   8.849  12.223  0.00  0.00    +0.000 A 
ATOM     11  N   UNL     1      50.132   8.270  11.467  0.00  0.00    +0.000 N 
ATOM     12  C   UNL     1      49.109   7.525  12.011  0.00  0.00    +0.000 A 
ATOM     13  O   UNL     1      48.153   7.182  11.329  0.00  0.00    +0.000 OA
ATOM     14  C   UNL     1      49.255   7.283  13.437  0.00  0.00    +0.000 A 
ATOM     15  H   UNL     1      50.050   8.461  10.480  0.00  0.00    +0.000 HD
ENDBRANCH   2   5
BRANCH   3  16
ATOM     16  C   UNL     1      45.009   5.479  13.280  0.00  0.00    +0.000 C 
BRANCH  16  17
ATOM     17  C   UNL     1      45.069   5.024  11.846  0.00  0.00    +0.000 A 
ATOM     18  C   UNL     1      44.613   3.747  11.498  0.00  0.00    +0.000 A 
ATOM     19  C   UNL     1      44.648   3.318  10.170  0.00  0.00    +0.000 A 
ATOM     20  C   UNL     1      45.150   4.150   9.163  0.00  0.00    +0.000 A 
ATOM     21  C   UNL     1      45.628   5.419   9.513  0.00  0.00    +0.000 A 
ATOM     22  C   UNL     1      45.595   5.850  10.844  0.00  0.00    +0.000 A 
BRANCH  20  23
ATOM     23  C   UNL     1      45.206   3.675   7.730  0.00  0.00    +0.000 C 
BRANCH  23  24
ATOM     24  C   UNL     1      46.491   2.909   7.328  0.00  0.00    +0.000 C 
ATOM     25  C   UNL     1      46.726   2.958   5.809  0.00  0.00    +0.000 C 
ATOM     26  C   UNL     1      47.673   1.879   5.304  0.00  0.00    +0.000 C 
ATOM     27  O   UNL     1      47.264   0.596   5.766  0.00  0.00    +0.000 OA
ATOM     28  C   UNL     1      47.369   0.506   7.183  0.00  0.00    +0.000 C 
ATOM     29  C   UNL     1      46.393   1.462   7.852  0.00  0.00    +0.000 C 
ENDBRANCH  23  24
ENDBRANCH  20  23
ENDBRANCH  16  17
ENDBRANCH   3  16
TORSDOF 5
ENDMDL
MODEL 3
REMARK VINA RESULT:    -8.165      1.626      2.086
REMARK INTER + INTRA:         -10.953
REMARK INTER:                 -10.078
REMARK INTRA:                  -0.874
REMARK UNBOUND:                -0.401
REMARK  Name = 
REMARK  5 active torsions:
REMARK  status: ('A' for Active; 'I' for Inactive)
REMARK    1  A    between atoms: C_2  and  C_18
REMARK    2  A    between atoms: N_3  and  C_4
REMARK    3  A    between atoms: C_4  and  C_5
REMARK    4  A    between atoms: C_8  and  C_9
REMARK    5  A    between atoms: C_9  and  C_10
REMARK                            x       y       z     vdW  Elec       q    Type
REMARK                         _______ _______ _______ _____ _____    ______ ____
ROOT
ATOM      1  O   UNL     1      47.856   7.953  12.369  0.00  0.00    +0.000 OA
ATOM      2  C   UNL     1      47.287   7.420  13.314  0.00  0.00    +0.000 C 
ATOM      3  N   UNL     1      45.940   7.137  13.323  0.00  0.00    +0.000 N 
ATOM      4  H   UNL     1      45.502   6.863  14.190  0.00  0.00    +0.000 HD
ENDROOT
BRANCH   2   5
ATOM      5  C   UNL     1      48.009   6.976  14.508  0.00  0.00    +0.000 A 
ATOM      6  C   UNL     1      48.875   7.797  15.218  0.00  0.00    +0.000 A 
ATOM      7  S   UNL     1      49.486   7.060  16.636  0.00  0.00    +0.000 S 
ATOM      8  C   UNL     1      48.609   5.632  16.338  0.00  0.00    +0.000 A 
ATOM      9  N   UNL     1      48.664   4.583  17.203  0.00  0.00    +0.000 NA
ATOM     10  C   UNL     1      47.938   3.573  16.856  0.00  0.00    +0.000 A 
ATOM     11  N   UNL     1      47.174   3.510  15.717  0.00  0.00    +0.000 N 
ATOM     12  C   UNL     1      47.153   4.510  14.771  0.00  0.00    +0.000 A 
ATOM     13  O   UNL     1      46.606   4.338  13.690  0.00  0.00    +0.000 OA
ATOM     14  C   UNL     1      47.891   5.700  15.160  0.00  0.00    +0.000 A 
ATOM     15  H   UNL     1      46.678   2.668  15.469  0.00  0.00    +0.000 HD
ENDBRANCH   2   5
BRANCH   3  16
ATOM     16  C   UNL     1      45.084   7.503  12.220  0.00  0.00    +0.000 C 
BRANCH  16  17
ATOM     17  C   UNL     1      45.024   6.419  11.176  0.00  0.00    +0.000 A 
ATOM     18  C   UNL     1      43.924   5.556  11.125  0.00  0.00    +0.000 A 
ATOM     19  C   UNL     1      43.849   4.558  10.153  0.00  0.00    +0.000 A 
ATOM     20  C   UNL     1      44.877   4.391   9.218  0.00  0.00    +0.000 A 
ATOM     21  C   UNL     1      45.990   5.238   9.282  0.00  0.00    +0.000 A 
ATOM     22  C   UNL     1      46.067   6.239  10.257  0.00  0.00    +0.000 A 
BRANCH  20  23
ATOM     23  C   UNL     1      44.803   3.295   8.180  0.00  0.00    +0.000 C 
BRANCH  23  24
ATOM     24  C   UNL     1      46.163   2.725   7.710  0.00  0.00    +0.000 C 
ATOM     25  C   UNL     1      46.415   3.020   6.221  0.00  0.00    +0.000 C 
ATOM     26  C   UNL     1      47.473   2.123   5.594  0.00  0.00    +0.000 C 
ATOM     27  O   UNL     1      47.188   0.753   5.852  0.00  0.00    +0.000 OA
ATOM     28  C   UNL     1      47.281   0.466   7.244  0.00  0.00    +0.000 C 
ATOM     29  C   UNL     1      46.204   1.214   8.016  0.00  0.00    +0.000 C 
ENDBRANCH  23  24
ENDBRANCH  20  23
ENDBRANCH  16  17
ENDBRANCH   3  16
TORSDOF 5
ENDMDL
MODEL 4
REMARK VINA RESULT:    -7.870      1.729      2.212
REMARK INTER + INTRA:         -10.571
REMARK INTER:                  -9.689
REMARK INTRA:                  -0.882
REMARK UNBOUND:                -0.401
REMARK  Name = 
REMARK  5 active torsions:
REMARK  status: ('A' for Active; 'I' for Inactive)
REMARK    1  A    between atoms: C_2  and  C_18
REMARK    2  A    between atoms: N_3  and  C_4
REMARK    3  A    between atoms: C_4  and  C_5
REMARK    4  A    between atoms: C_8  and  C_9
REMARK    5  A    between atoms: C_9  and  C_10
REMARK                            x       y       z     vdW  Elec       q    Type
REMARK                         _______ _______ _______ _____ _____    ______ ____
ROOT
ATOM      1  O   UNL     1      48.191   6.122  13.414  0.00  0.00    +0.000 OA
ATOM      2  C   UNL     1      47.374   5.639  14.189  0.00  0.00    +0.000 C 
ATOM      3  N   UNL     1      46.013   5.766  14.027  0.00  0.00    +0.000 N 
ATOM      4  H   UNL     1      45.402   5.503  14.785  0.00  0.00    +0.000 HD
ENDROOT
BRANCH   2   5
ATOM      5  C   UNL     1      47.776   4.825  15.338  0.00  0.00    +0.000 A 
ATOM      6  C   UNL     1      47.523   3.463  15.425  0.00  0.00    +0.000 A 
ATOM      7  S   UNL     1      48.207   2.742  16.818  0.00  0.00    +0.000 S 
ATOM      8  C   UNL     1      48.858   4.228  17.334  0.00  0.00    +0.000 A 
ATOM      9  N   UNL     1      49.601   4.310  18.471  0.00  0.00    +0.000 NA
ATOM     10  C   UNL     1      50.040   5.496  18.731  0.00  0.00    +0.000 A 
ATOM     11  N   UNL     1      49.793   6.610  17.968  0.00  0.00    +0.000 N 
ATOM     12  C   UNL     1      48.980   6.593  16.857  0.00  0.00    +0.000 A 
ATOM     13  O   UNL     1      48.639   7.635  16.314  0.00  0.00    +0.000 OA
ATOM     14  C   UNL     1      48.529   5.263  16.480  0.00  0.00    +0.000 A 
ATOM     15  H   UNL     1      50.111   7.522  18.258  0.00  0.00    +0.000 HD
ENDBRANCH   2   5
BRANCH   3  16
ATOM     16  C   UNL     1      45.449   6.532  12.940  0.00  0.00    +0.000 C 
BRANCH  16  17
ATOM     17  C   UNL     1      45.330   5.712  11.683  0.00  0.00    +0.000 A 
ATOM     18  C   UNL     1      45.926   6.158  10.498  0.00  0.00    +0.000 A 
ATOM     19  C   UNL     1      45.837   5.401   9.329  0.00  0.00    +0.000 A 
ATOM     20  C   UNL     1      45.140   4.187   9.315  0.00  0.00    +0.000 A 
ATOM     21  C   UNL     1      44.524   3.750  10.493  0.00  0.00    +0.000 A 
ATOM     22  C   UNL     1      44.611   4.509  11.666  0.00  0.00    +0.000 A 
BRANCH  20  23
ATOM     23  C   UNL     1      45.027   3.380   8.043  0.00  0.00    +0.000 C 
BRANCH  23  24
ATOM     24  C   UNL     1      46.333   2.701   7.562  0.00  0.00    +0.000 C 
ATOM     25  C   UNL     1      46.550   2.900   6.051  0.00  0.00    +0.000 C 
ATOM     26  C   UNL     1      47.529   1.907   5.442  0.00  0.00    +0.000 C 
ATOM     27  O   UNL     1      47.170   0.573   5.784  0.00  0.00    +0.000 OA
ATOM     28  C   UNL     1      47.294   0.355   7.186  0.00  0.00    +0.000 C 
ATOM     29  C   UNL     1      46.292   1.209   7.949  0.00  0.00    +0.000 C 
ENDBRANCH  23  24
ENDBRANCH  20  23
ENDBRANCH  16  17
ENDBRANCH   3  16
TORSDOF 5
ENDMDL
MODEL 5
REMARK VINA RESULT:    -7.728      2.175      3.517
REMARK INTER + INTRA:         -10.388
REMARK INTER:                  -9.410
REMARK INTRA:                  -0.978
REMARK UNBOUND:                -0.401
REMARK  Name = 
REMARK  5 active torsions:
REMARK  status: ('A' for Active; 'I' for Inactive)
REMARK    1  A    between atoms: C_2  and  C_18
REMARK    2  A    between atoms: N_3  and  C_4
REMARK    3  A    between atoms: C_4  and  C_5
REMARK    4  A    between atoms: C_8  and  C_9
REMARK    5  A    between atoms: C_9  and  C_10
REMARK                            x       y       z     vdW  Elec       q    Type
REMARK                         _______ _______ _______ _____ _____    ______ ____
ROOT
ATOM      1  O   UNL     1      44.339   6.532  11.578  0.00  0.00    +0.000 OA
ATOM      2  C   UNL     1      45.411   5.943  11.648  0.00  0.00    +0.000 C 
ATOM      3  N   UNL     1      45.745   4.883  10.836  0.00  0.00    +0.000 N 
ATOM      4  H   UNL     1      46.561   4.332  11.058  0.00  0.00    +0.000 HD
ENDROOT
BRANCH   2   5
ATOM      5  C   UNL     1      46.468   6.356  12.573  0.00  0.00    +0.000 A 
ATOM      6  C   UNL     1      47.105   7.588  12.493  0.00  0.00    +0.000 A 
ATOM      7  S   UNL     1      48.212   7.854  13.770  0.00  0.00    +0.000 S 
ATOM      8  C   UNL     1      47.865   6.337  14.460  0.00  0.00    +0.000 A 
ATOM      9  N   UNL     1      48.466   5.939  15.614  0.00  0.00    +0.000 NA
ATOM     10  C   UNL     1      48.097   4.772  16.027  0.00  0.00    +0.000 A 
ATOM     11  N   UNL     1      47.195   3.962  15.385  0.00  0.00    +0.000 N 
ATOM     12  C   UNL     1      46.626   4.283  14.174  0.00  0.00    +0.000 A 
ATOM     13  O   UNL     1      45.972   3.459  13.549  0.00  0.00    +0.000 OA
ATOM     14  C   UNL     1      46.950   5.623  13.711  0.00  0.00    +0.000 A 
ATOM     15  H   UNL     1      46.995   3.033  15.724  0.00  0.00    +0.000 HD
ENDBRANCH   2   5
BRANCH   3  16
ATOM     16  C   UNL     1      44.818   4.355   9.863  0.00  0.00    +0.000 C 
BRANCH  16  17
ATOM     17  C   UNL     1      45.524   3.578   8.783  0.00  0.00    +0.000 A 
ATOM     18  C   UNL     1      46.211   4.255   7.770  0.00  0.00    +0.000 A 
ATOM     19  C   UNL     1      46.882   3.548   6.771  0.00  0.00    +0.000 A 
ATOM     20  C   UNL     1      46.871   2.148   6.756  0.00  0.00    +0.000 A 
ATOM     21  C   UNL     1      46.165   1.469   7.756  0.00  0.00    +0.000 A 
ATOM     22  C   UNL     1      45.490   2.177   8.757  0.00  0.00    +0.000 A 
BRANCH  20  23
ATOM     23  C   UNL     1      47.581   1.385   5.662  0.00  0.00    +0.000 C 
BRANCH  23  24
ATOM     24  C   UNL     1      46.673   0.523   4.750  0.00  0.00    +0.000 C 
ATOM     25  C   UNL     1      47.377  -0.776   4.319  0.00  0.00    +0.000 C 
ATOM     26  C   UNL     1      46.753  -1.428   3.094  0.00  0.00    +0.000 C 
ATOM     27  O   UNL     1      46.621  -0.485   2.035  0.00  0.00    +0.000 OA
ATOM     28  C   UNL     1      45.698   0.543   2.381  0.00  0.00    +0.000 C 
ATOM     29  C   UNL     1      46.232   1.371   3.541  0.00  0.00    +0.000 C 
ENDBRANCH  23  24
ENDBRANCH  20  23
ENDBRANCH  16  17
ENDBRANCH   3  16
TORSDOF 5
ENDMDL
MODEL 6
REMARK VINA RESULT:    -7.567      4.173      8.679
REMARK INTER + INTRA:         -10.180
REMARK INTER:                  -9.151
REMARK INTRA:                  -1.030
REMARK UNBOUND:                -0.401
REMARK  Name = 
REMARK  5 active torsions:
REMARK  status: ('A' for Active; 'I' for Inactive)
REMARK    1  A    between atoms: C_2  and  C_18
REMARK    2  A    between atoms: N_3  and  C_4
REMARK    3  A    between atoms: C_4  and  C_5
REMARK    4  A    between atoms: C_8  and  C_9
REMARK    5  A    between atoms: C_9  and  C_10
REMARK                            x       y       z     vdW  Elec       q    Type
REMARK                         _______ _______ _______ _____ _____    ______ ____
ROOT
ATOM      1  O   UNL     1      47.860   6.627  11.885  0.00  0.00    +0.000 OA
ATOM      2  C   UNL     1      46.903   6.698  12.646  0.00  0.00    +0.000 C 
ATOM      3  N   UNL     1      46.985   7.228  13.915  0.00  0.00    +0.000 N 
ATOM      4  H   UNL     1      46.214   7.097  14.552  0.00  0.00    +0.000 HD
ENDROOT
BRANCH   2   5
ATOM      5  C   UNL     1      45.559   6.274  12.251  0.00  0.00    +0.000 A 
ATOM      6  C   UNL     1      44.618   7.144  11.717  0.00  0.00    +0.000 A 
ATOM      7  S   UNL     1      43.177   6.359  11.233  0.00  0.00    +0.000 S 
ATOM      8  C   UNL     1      43.775   4.841  11.722  0.00  0.00    +0.000 A 
ATOM      9  N   UNL     1      43.036   3.711  11.557  0.00  0.00    +0.000 NA
ATOM     10  C   UNL     1      43.622   2.633  11.960  0.00  0.00    +0.000 A 
ATOM     11  N   UNL     1      44.871   2.583  12.525  0.00  0.00    +0.000 N 
ATOM     12  C   UNL     1      45.621   3.707  12.789  0.00  0.00    +0.000 A 
ATOM     13  O   UNL     1      46.645   3.635  13.456  0.00  0.00    +0.000 OA
ATOM     14  C   UNL     1      45.037   4.936  12.277  0.00  0.00    +0.000 A 
ATOM     15  H   UNL     1      45.250   1.717  12.879  0.00  0.00    +0.000 HD
ENDBRANCH   2   5
BRANCH   3  16
ATOM     16  C   UNL     1      48.237   7.699  14.457  0.00  0.00    +0.000 C 
BRANCH  16  17
ATOM     17  C   UNL     1      48.819   6.724  15.446  0.00  0.00    +0.000 A 
ATOM     18  C   UNL     1      50.142   6.872  15.879  0.00  0.00    +0.000 A 
ATOM     19  C   UNL     1      50.689   5.985  16.807  0.00  0.00    +0.000 A 
ATOM     20  C   UNL     1      49.931   4.923  17.315  0.00  0.00    +0.000 A 
ATOM     21  C   UNL     1      48.614   4.760  16.866  0.00  0.00    +0.000 A 
ATOM     22  C   UNL     1      48.065   5.648  15.934  0.00  0.00    +0.000 A 
BRANCH  20  23
ATOM     23  C   UNL     1      50.532   3.952  18.303  0.00  0.00    +0.000 C 
BRANCH  23  24
ATOM     24  C   UNL     1      51.761   3.157  17.798  0.00  0.00    +0.000 C 
ATOM     25  C   UNL     1      51.398   1.694  17.488  0.00  0.00    +0.000 C 
ATOM     26  C   UNL     1      52.604   0.766  17.435  0.00  0.00    +0.000 C 
ATOM     27  O   UNL     1      53.400   0.909  18.606  0.00  0.00    +0.000 OA
ATOM     28  C   UNL     1      53.974   2.211  18.676  0.00  0.00    +0.000 C 
ATOM     29  C   UNL     1      52.889   3.265  18.842  0.00  0.00    +0.000 C 
ENDBRANCH  23  24
ENDBRANCH  20  23
ENDBRANCH  16  17
ENDBRANCH   3  16
TORSDOF 5
ENDMDL
MODEL 7
REMARK VINA RESULT:    -7.388      2.288      3.384
REMARK INTER + INTRA:          -9.949
REMARK INTER:                  -9.475
REMARK INTRA:                  -0.474
REMARK UNBOUND:                -0.401
REMARK  Name = 
REMARK  5 active torsions:
REMARK  status: ('A' for Active; 'I' for Inactive)
REMARK    1  A    between atoms: C_2  and  C_18
REMARK    2  A    between atoms: N_3  and  C_4
REMARK    3  A    between atoms: C_4  and  C_5
REMARK    4  A    between atoms: C_8  and  C_9
REMARK    5  A    between atoms: C_9  and  C_10
REMARK                            x       y       z     vdW  Elec       q    Type
REMARK                         _______ _______ _______ _____ _____    ______ ____
ROOT
ATOM      1  O   UNL     1      49.911   6.589  15.445  0.00  0.00    +0.000 OA
ATOM      2  C   UNL     1      48.830   6.114  15.770  0.00  0.00    +0.000 C 
ATOM      3  N   UNL     1      47.751   6.039  14.918  0.00  0.00    +0.000 N 
ATOM      4  H   UNL     1      46.844   5.804  15.293  0.00  0.00    +0.000 HD
ENDROOT
BRANCH   2   5
ATOM      5  C   UNL     1      48.602   5.524  17.091  0.00  0.00    +0.000 A 
ATOM      6  C   UNL     1      48.683   4.159  17.333  0.00  0.00    +0.000 A 
ATOM      7  S   UNL     1      48.491   3.760  18.986  0.00  0.00    +0.000 S 
ATOM      8  C   UNL     1      48.298   5.396  19.415  0.00  0.00    +0.000 A 
ATOM      9  N   UNL     1      48.120   5.762  20.714  0.00  0.00    +0.000 NA
ATOM     10  C   UNL     1      48.002   7.036  20.891  0.00  0.00    +0.000 A 
ATOM     11  N   UNL     1      48.032   7.974  19.891  0.00  0.00    +0.000 N 
ATOM     12  C   UNL     1      48.126   7.647  18.557  0.00  0.00    +0.000 A 
ATOM     13  O   UNL     1      47.966   8.495  17.690  0.00  0.00    +0.000 OA
ATOM     14  C   UNL     1      48.343   6.230  18.315  0.00  0.00    +0.000 A 
ATOM     15  H   UNL     1      47.871   8.951  20.086  0.00  0.00    +0.000 HD
ENDBRANCH   2   5
BRANCH   3  16
ATOM     16  C   UNL     1      47.810   6.569  13.576  0.00  0.00    +0.000 C 
BRANCH  16  17
ATOM     17  C   UNL     1      46.817   5.897  12.666  0.00  0.00    +0.000 A 
ATOM     18  C   UNL     1      46.413   6.527  11.483  0.00  0.00    +0.000 A 
ATOM     19  C   UNL     1      45.505   5.909  10.622  0.00  0.00    +0.000 A 
ATOM     20  C   UNL     1      44.971   4.652  10.930  0.00  0.00    +0.000 A 
ATOM     21  C   UNL     1      45.356   4.030  12.124  0.00  0.00    +0.000 A 
ATOM     22  C   UNL     1      46.265   4.650  12.989  0.00  0.00    +0.000 A 
BRANCH  20  23
ATOM     23  C   UNL     1      43.972   3.994  10.007  0.00  0.00    +0.000 C 
BRANCH  23  24
ATOM     24  C   UNL     1      44.569   3.306   8.755  0.00  0.00    +0.000 C 
ATOM     25  C   UNL     1      45.196   1.945   9.103  0.00  0.00    +0.000 C 
ATOM     26  C   UNL     1      46.177   1.440   8.055  0.00  0.00    +0.000 C 
ATOM     27  O   UNL     1      47.144   2.439   7.749  0.00  0.00    +0.000 OA
ATOM     28  C   UNL     1      46.534   3.567   7.130  0.00  0.00    +0.000 C 
ATOM     29  C   UNL     1      45.587   4.260   8.098  0.00  0.00    +0.000 C 
ENDBRANCH  23  24
ENDBRANCH  20  23
ENDBRANCH  16  17
ENDBRANCH   3  16
TORSDOF 5
ENDMDL
MODEL 8
REMARK VINA RESULT:    -7.204      2.355      3.565
REMARK INTER + INTRA:          -9.711
REMARK INTER:                  -9.121
REMARK INTRA:                  -0.590
REMARK UNBOUND:                -0.401
REMARK  Name = 
REMARK  5 active torsions:
REMARK  status: ('A' for Active; 'I' for Inactive)
REMARK    1  A    between atoms: C_2  and  C_18
REMARK    2  A    between atoms: N_3  and  C_4
REMARK    3  A    between atoms: C_4  and  C_5
REMARK    4  A    between atoms: C_8  and  C_9
REMARK    5  A    between atoms: C_9  and  C_10
REMARK                            x       y       z     vdW  Elec       q    Type
REMARK                         _______ _______ _______ _____ _____    ______ ____
ROOT
ATOM      1  O   UNL     1      50.279   7.819  15.488  0.00  0.00    +0.000 OA
ATOM      2  C   UNL     1      49.213   7.338  15.855  0.00  0.00    +0.000 C 
ATOM      3  N   UNL     1      48.307   6.764  14.992  0.00  0.00    +0.000 N 
ATOM      4  H   UNL     1      47.380   6.549  15.325  0.00  0.00    +0.000 HD
ENDROOT
BRANCH   2   5
ATOM      5  C   UNL     1      48.830   7.277  17.266  0.00  0.00    +0.000 A 
ATOM      6  C   UNL     1      48.230   8.337  17.934  0.00  0.00    +0.000 A 
ATOM      7  S   UNL     1      47.781   7.949  19.539  0.00  0.00    +0.000 S 
ATOM      8  C   UNL     1      48.373   6.361  19.379  0.00  0.00    +0.000 A 
ATOM      9  N   UNL     1      48.272   5.471  20.403  0.00  0.00    +0.000 NA
ATOM     10  C   UNL     1      48.750   4.301  20.135  0.00  0.00    +0.000 A 
ATOM     11  N   UNL     1      49.332   3.945  18.945  0.00  0.00    +0.000 N 
ATOM     12  C   UNL     1      49.532   4.833  17.912  0.00  0.00    +0.000 A 
ATOM     13  O   UNL     1      50.214   4.525  16.944  0.00  0.00    +0.000 OA
ATOM     14  C   UNL     1      48.936   6.139  18.138  0.00  0.00    +0.000 A 
ATOM     15  H   UNL     1      49.744   3.033  18.818  0.00  0.00    +0.000 HD
ENDBRANCH   2   5
BRANCH   3  16
ATOM     16  C   UNL     1      48.535   6.735  13.566  0.00  0.00    +0.000 C 
BRANCH  16  17
ATOM     17  C   UNL     1      47.330   6.230  12.818  0.00  0.00    +0.000 A 
ATOM     18  C   UNL     1      46.750   5.006  13.170  0.00  0.00    +0.000 A 
ATOM     19  C   UNL     1      45.624   4.533  12.495  0.00  0.00    +0.000 A 
ATOM     20  C   UNL     1      45.059   5.267  11.444  0.00  0.00    +0.000 A 
ATOM     21  C   UNL     1      45.652   6.480  11.075  0.00  0.00    +0.000 A 
ATOM     22  C   UNL     1      46.782   6.955  11.751  0.00  0.00    +0.000 A 
BRANCH  20  23
ATOM     23  C   UNL     1      43.853   4.743  10.701  0.00  0.00    +0.000 C 
BRANCH  23  24
ATOM     24  C   UNL     1      44.159   3.883   9.450  0.00  0.00    +0.000 C 
ATOM     25  C   UNL     1      44.398   2.409   9.823  0.00  0.00    +0.000 C 
ATOM     26  C   UNL     1      45.135   1.622   8.749  0.00  0.00    +0.000 C 
ATOM     27  O   UNL     1      46.323   2.299   8.355  0.00  0.00    +0.000 OA
ATOM     28  C   UNL     1      46.018   3.538   7.721  0.00  0.00    +0.000 C 
ATOM     29  C   UNL     1      45.362   4.494   8.706  0.00  0.00    +0.000 C 
ENDBRANCH  23  24
ENDBRANCH  20  23
ENDBRANCH  16  17
ENDBRANCH   3  16
TORSDOF 5
ENDMDL
MODEL 9
REMARK VINA RESULT:    -7.038      3.496      4.980
REMARK INTER + INTRA:          -9.496
REMARK INTER:                  -8.316
REMARK INTRA:                  -1.181
REMARK UNBOUND:                -0.401
REMARK  Name = 
REMARK  5 active torsions:
REMARK  status: ('A' for Active; 'I' for Inactive)
REMARK    1  A    between atoms: C_2  and  C_18
REMARK    2  A    between atoms: N_3  and  C_4
REMARK    3  A    between atoms: C_4  and  C_5
REMARK    4  A    between atoms: C_8  and  C_9
REMARK    5  A    between atoms: C_9  and  C_10
REMARK                            x       y       z     vdW  Elec       q    Type
REMARK                         _______ _______ _______ _____ _____    ______ ____
ROOT
ATOM      1  O   UNL     1      48.372   8.700  16.170  0.00  0.00    +0.000 OA
ATOM      2  C   UNL     1      48.921   7.641  15.893  0.00  0.00    +0.000 C 
ATOM      3  N   UNL     1      49.312   7.303  14.617  0.00  0.00    +0.000 N 
ATOM      4  H   UNL     1      49.595   6.355  14.425  0.00  0.00    +0.000 HD
ENDROOT
BRANCH   2   5
ATOM      5  C   UNL     1      49.268   6.652  16.916  0.00  0.00    +0.000 A 
ATOM      6  C   UNL     1      50.141   6.920  17.961  0.00  0.00    +0.000 A 
ATOM      7  S   UNL     1      50.271   5.626  19.074  0.00  0.00    +0.000 S 
ATOM      8  C   UNL     1      49.164   4.682  18.189  0.00  0.00    +0.000 A 
ATOM      9  N   UNL     1      48.801   3.443  18.618  0.00  0.00    +0.000 NA
ATOM     10  C   UNL     1      47.945   2.849  17.855  0.00  0.00    +0.000 A 
ATOM     11  N   UNL     1      47.430   3.374  16.696  0.00  0.00    +0.000 N 
ATOM     12  C   UNL     1      47.829   4.586  16.179  0.00  0.00    +0.000 A 
ATOM     13  O   UNL     1      47.484   4.933  15.057  0.00  0.00    +0.000 OA
ATOM     14  C   UNL     1      48.731   5.326  17.046  0.00  0.00    +0.000 A 
ATOM     15  H   UNL     1      46.811   2.835  16.109  0.00  0.00    +0.000 HD
ENDBRANCH   2   5
BRANCH   3  16
ATOM     16  C   UNL     1      49.052   8.171  13.493  0.00  0.00    +0.000 C 
BRANCH  16  17
ATOM     17  C   UNL     1      47.723   7.872  12.852  0.00  0.00    +0.000 A 
ATOM     18  C   UNL     1      46.626   8.706  13.093  0.00  0.00    +0.000 A 
ATOM     19  C   UNL     1      45.392   8.449  12.493  0.00  0.00    +0.000 A 
ATOM     20  C   UNL     1      45.224   7.346  11.647  0.00  0.00    +0.000 A 
ATOM     21  C   UNL     1      46.315   6.497  11.423  0.00  0.00    +0.000 A 
ATOM     22  C   UNL     1      47.552   6.753  12.025  0.00  0.00    +0.000 A 
BRANCH  20  23
ATOM     23  C   UNL     1      43.883   7.058  11.016  0.00  0.00    +0.000 C 
BRANCH  23  24
ATOM     24  C   UNL     1      43.223   5.718  11.426  0.00  0.00    +0.000 C 
ATOM     25  C   UNL     1      43.410   5.432  12.926  0.00  0.00    +0.000 C 
ATOM     26  C   UNL     1      43.205   3.970  13.297  0.00  0.00    +0.000 C 
ATOM     27  O   UNL     1      43.991   3.125  12.465  0.00  0.00    +0.000 OA
ATOM     28  C   UNL     1      43.557   3.197  11.110  0.00  0.00    +0.000 C 
ATOM     29  C   UNL     1      43.797   4.590  10.546  0.00  0.00    +0.000 C 
ENDBRANCH  23  24
ENDBRANCH  20  23
ENDBRANCH  16  17
ENDBRANCH   3  16
TORSDOF 5
ENDMDL
