MODEL 1
REMARK VINA RESULT:    -7.772      0.000      0.000
REMARK INTER + INTRA:         -12.421
REMARK INTER:                 -11.633
REMARK INTRA:                  -0.788
REMARK UNBOUND:                -0.788
REMARK  Name = 
REMARK  9 active torsions:
REMARK  status: ('A' for Active; 'I' for Inactive)
REMARK    1  A    between atoms: C_2  and  C_23
REMARK    2  A    between atoms: N_3  and  C_4
REMARK    3  A    between atoms: C_4  and  C_5
REMARK    4  A    between atoms: C_8  and  C_9
REMARK    5  A    between atoms: C_9  and  C_10
REMARK    6  A    between atoms: C_10  and  N_11
REMARK    7  A    between atoms: N_11  and  C_12
REMARK    8  A    between atoms: C_12  and  C_13
REMARK    9  A    between atoms: C_13  and  O_14
REMARK                            x       y       z     vdW  Elec       q    Type
REMARK                         _______ _______ _______ _____ _____    ______ ____
ROOT
ATOM      1  C   UNL     1      47.523   5.050  15.499  0.00  0.00    +0.000 A 
ATOM      2  C   UNL     1      46.637   4.255  14.760  0.00  0.00    +0.000 A 
ATOM      3  C   UNL     1      46.274   4.610  13.459  0.00  0.00    +0.000 A 
ATOM      4  C   UNL     1      46.814   5.756  12.860  0.00  0.00    +0.000 A 
ATOM      5  C   UNL     1      47.732   6.524  13.599  0.00  0.00    +0.000 A 
ATOM      6  C   UNL     1      48.087   6.178  14.900  0.00  0.00    +0.000 A 
ENDROOT
BRANCH   1   7
ATOM      7  C   UNL     1      47.887   4.676  16.908  0.00  0.00    +0.000 C 
BRANCH   7  10
ATOM      8  O   UNL     1      49.233   4.453  19.320  0.00  0.00    +0.000 OA
ATOM      9  C   UNL     1      49.860   4.302  18.280  0.00  0.00    +0.000 C 
ATOM     10  N   UNL     1      49.294   4.426  17.032  0.00  0.00    +0.000 N 
ATOM     11  H   UNL     1      49.791   4.060  16.232  0.00  0.00    +0.000 HD
BRANCH   9  12
ATOM     12  C   UNL     1      51.288   4.014  18.262  0.00  0.00    +0.000 A 
ATOM     13  C   UNL     1      52.255   4.902  18.712  0.00  0.00    +0.000 A 
ATOM     14  S   UNL     1      53.831   4.244  18.669  0.00  0.00    +0.000 S 
ATOM     15  C   UNL     1      53.258   2.766  18.052  0.00  0.00    +0.000 A 
ATOM     16  N   UNL     1      54.107   1.735  17.790  0.00  0.00    +0.000 NA
ATOM     17  C   UNL     1      53.522   0.678  17.324  0.00  0.00    +0.000 A 
ATOM     18  N   UNL     1      52.181   0.565  17.091  0.00  0.00    +0.000 N 
ATOM     19  C   UNL     1      51.295   1.599  17.270  0.00  0.00    +0.000 A 
ATOM     20  O   UNL     1      50.122   1.491  16.883  0.00  0.00    +0.000 OA
ATOM     21  C   UNL     1      51.889   2.778  17.849  0.00  0.00    +0.000 A 
ATOM     22  H   UNL     1      51.791  -0.271  16.676  0.00  0.00    +0.000 HD
ENDBRANCH   9  12
ENDBRANCH   7  10
ENDBRANCH   1   7
BRANCH   4  23
ATOM     23  C   UNL     1      46.560   6.164  11.422  0.00  0.00    +0.000 C 
BRANCH  23  24
ATOM     24  C   UNL     1      45.122   6.074  10.924  0.00  0.00    +0.000 C 
BRANCH  24  25
ATOM     25  N   UNL     1      44.611   4.684  10.837  0.00  0.00    +0.000 N 
ATOM     26  C   UNL     1      45.072   3.988   9.706  0.00  0.00    +0.000 A 
ATOM     27  C   UNL     1      45.547   4.631   8.539  0.00  0.00    +0.000 A 
ATOM     28  N   UNL     1      46.095   3.996   7.480  0.00  0.00    +0.000 NA
ATOM     29  C   UNL     1      46.158   2.665   7.598  0.00  0.00    +0.000 A 
ATOM     30  C   UNL     1      45.673   1.999   8.717  0.00  0.00    +0.000 A 
ATOM     31  N   UNL     1      45.112   2.642   9.771  0.00  0.00    +0.000 NA
BRANCH  25  32
ATOM     32  C   UNL     1      43.189   4.356  11.144  0.00  0.00    +0.000 C 
BRANCH  32  33
ATOM     33  C   UNL     1      42.440   5.480  11.895  0.00  0.00    +0.000 C 
BRANCH  33  34
ATOM     34  O   UNL     1      42.627   5.423  13.307  0.00  0.00    +0.000 OA
ATOM     35  H   UNL     1      43.407   4.855  13.436  0.00  0.00    +0.000 HD
ENDBRANCH  33  34
ENDBRANCH  32  33
ENDBRANCH  25  32
ENDBRANCH  24  25
ENDBRANCH  23  24
ENDBRANCH   4  23
TORSDOF 9
ENDMDL
MODEL 2
REMARK VINA RESULT:    -7.506      2.939      3.673
REMARK INTER + INTRA:         -12.024
REMARK INTER:                 -11.164
REMARK INTRA:                  -0.860
REMARK UNBOUND:                -0.788
REMARK  Name = 
REMARK  9 active torsions:
REMARK  status: ('A' for Active; 'I' for Inactive)
REMARK    1  A    between atoms: C_2  and  C_23
REMARK    2  A    between atoms: N_3  and  C_4
REMARK    3  A    between atoms: C_4  and  C_5
REMARK    4  A    between atoms: C_8  and  C_9
REMARK    5  A    between atoms: C_9  and  C_10
REMARK    6  A    between atoms: C_10  and  N_11
REMARK    7  A    between atoms: N_11  and  C_12
REMARK    8  A    between atoms: C_12  and  C_13
REMARK    9  A    between atoms: C_13  and  O_14
REMARK                            x       y       z     vdW  Elec       q    Type
REMARK                         _______ _______ _______ _____ _____    ______ ____
ROOT
ATOM      1  C   UNL     1      47.080   7.861  13.269  0.00  0.00    +0.000 A 
ATOM      2  C   UNL     1      45.811   8.345  12.926  0.00  0.00    +0.000 A 
ATOM      3  C   UNL     1      45.067   7.745  11.907  0.00  0.00    +0.000 A 
ATOM      4  C   UNL     1      45.570   6.627  11.228  0.00  0.00    +0.000 A 
ATOM      5  C   UNL     1      46.830   6.128  11.607  0.00  0.00    +0.000 A 
ATOM      6  C   UNL     1      47.576   6.731  12.615  0.00  0.00    +0.000 A 
ENDROOT
BRANCH   1   7
ATOM      7  C   UNL     1      47.884   8.529  14.347  0.00  0.00    +0.000 C 
BRANCH   7  10
ATOM      8  O   UNL     1      50.218   7.078  14.700  0.00  0.00    +0.000 OA
ATOM      9  C   UNL     1      49.336   6.985  15.541  0.00  0.00    +0.000 C 
ATOM     10  N   UNL     1      48.127   7.636  15.443  0.00  0.00    +0.000 N 
ATOM     11  H   UNL     1      47.546   7.713  16.266  0.00  0.00    +0.000 HD
BRANCH   9  12
ATOM     12  C   UNL     1      49.463   6.138  16.719  0.00  0.00    +0.000 A 
ATOM     13  C   UNL     1      50.314   6.420  17.780  0.00  0.00    +0.000 A 
ATOM     14  S   UNL     1      50.165   5.305  19.065  0.00  0.00    +0.000 S 
ATOM     15  C   UNL     1      48.966   4.425  18.237  0.00  0.00    +0.000 A 
ATOM     16  N   UNL     1      48.389   3.326  18.793  0.00  0.00    +0.000 NA
ATOM     17  C   UNL     1      47.496   2.764  18.043  0.00  0.00    +0.000 A 
ATOM     18  N   UNL     1      47.141   3.194  16.795  0.00  0.00    +0.000 N 
ATOM     19  C   UNL     1      47.745   4.252  16.162  0.00  0.00    +0.000 A 
ATOM     20  O   UNL     1      47.500   4.491  14.971  0.00  0.00    +0.000 OA
ATOM     21  C   UNL     1      48.701   4.951  16.985  0.00  0.00    +0.000 A 
ATOM     22  H   UNL     1      46.472   2.681  16.237  0.00  0.00    +0.000 HD
ENDBRANCH   9  12
ENDBRANCH   7  10
ENDBRANCH   1   7
BRANCH   4  23
ATOM     23  C   UNL     1      44.797   5.849  10.182  0.00  0.00    +0.000 C 
BRANCH  23  24
ATOM     24  C   UNL     1      45.614   5.030   9.188  0.00  0.00    +0.000 C 
BRANCH  24  25
ATOM     25  N   UNL     1      45.374   3.570   9.285  0.00  0.00    +0.000 N 
ATOM     26  C   UNL     1      45.948   2.837   8.231  0.00  0.00    +0.000 A 
ATOM     27  C   UNL     1      46.283   3.407   6.981  0.00  0.00    +0.000 A 
ATOM     28  N   UNL     1      46.931   2.759   5.990  0.00  0.00    +0.000 NA
ATOM     29  C   UNL     1      47.245   1.488   6.265  0.00  0.00    +0.000 A 
ATOM     30  C   UNL     1      46.904   0.887   7.470  0.00  0.00    +0.000 A 
ATOM     31  N   UNL     1      46.241   1.541   8.457  0.00  0.00    +0.000 NA
BRANCH  25  32
ATOM     32  C   UNL     1      44.043   3.024   9.674  0.00  0.00    +0.000 C 
BRANCH  32  33
ATOM     33  C   UNL     1      43.839   2.912  11.202  0.00  0.00    +0.000 C 
BRANCH  33  34
ATOM     34  O   UNL     1      43.111   1.747  11.580  0.00  0.00    +0.000 OA
ATOM     35  H   UNL     1      42.890   1.303  10.742  0.00  0.00    +0.000 HD
ENDBRANCH  33  34
ENDBRANCH  32  33
ENDBRANCH  25  32
ENDBRANCH  24  25
ENDBRANCH  23  24
ENDBRANCH   4  23
TORSDOF 9
ENDMDL
MODEL 3
REMARK VINA RESULT:    -7.114      3.451      9.122
REMARK INTER + INTRA:         -11.437
REMARK INTER:                  -9.931
REMARK INTRA:                  -1.506
REMARK UNBOUND:                -0.788
REMARK  Name = 
REMARK  9 active torsions:
REMARK  status: ('A' for Active; 'I' for Inactive)
REMARK    1  A    between atoms: C_2  and  C_23
REMARK    2  A    between atoms: N_3  and  C_4
REMARK    3  A    between atoms: C_4  and  C_5
REMARK    4  A    between atoms: C_8  and  C_9
REMARK    5  A    between atoms: C_9  and  C_10
REMARK    6  A    between atoms: C_10  and  N_11
REMARK    7  A    between atoms: N_11  and  C_12
REMARK    8  A    between atoms: C_12  and  C_13
REMARK    9  A    between atoms: C_13  and  O_14
REMARK                            x       y       z     vdW  Elec       q    Type
REMARK                         _______ _______ _______ _____ _____    ______ ____
ROOT
ATOM      1  C   UNL     1      48.147   7.808  13.604  0.00  0.00    +0.000 A 
ATOM      2  C   UNL     1      49.060   6.896  14.150  0.00  0.00    +0.000 A 
ATOM      3  C   UNL     1      49.494   7.023  15.471  0.00  0.00    +0.000 A 
ATOM      4  C   UNL     1      49.001   8.054  16.283  0.00  0.00    +0.000 A 
ATOM      5  C   UNL     1      48.057   8.941  15.733  0.00  0.00    +0.000 A 
ATOM      6  C   UNL     1      47.630   8.822  14.414  0.00  0.00    +0.000 A 
ENDROOT
BRANCH   1   7
ATOM      7  C   UNL     1      47.706   7.680  12.174  0.00  0.00    +0.000 C 
BRANCH   7  10
ATOM      8  O   UNL     1      44.953   7.403  12.325  0.00  0.00    +0.000 OA
ATOM      9  C   UNL     1      45.626   6.427  12.025  0.00  0.00    +0.000 C 
ATOM     10  N   UNL     1      47.000   6.450  11.956  0.00  0.00    +0.000 N 
ATOM     11  H   UNL     1      47.477   5.698  11.479  0.00  0.00    +0.000 HD
BRANCH   9  12
ATOM     12  C   UNL     1      45.036   5.124  11.749  0.00  0.00    +0.000 A 
ATOM     13  C   UNL     1      44.354   4.374  12.697  0.00  0.00    +0.000 A 
ATOM     14  S   UNL     1      43.680   2.943  12.052  0.00  0.00    +0.000 S 
ATOM     15  C   UNL     1      44.282   3.293  10.500  0.00  0.00    +0.000 A 
ATOM     16  N   UNL     1      44.051   2.458   9.450  0.00  0.00    +0.000 NA
ATOM     17  C   UNL     1      44.573   2.858   8.335  0.00  0.00    +0.000 A 
ATOM     18  N   UNL     1      45.307   4.001   8.181  0.00  0.00    +0.000 N 
ATOM     19  C   UNL     1      45.629   4.836   9.222  0.00  0.00    +0.000 A 
ATOM     20  O   UNL     1      46.434   5.763   9.054  0.00  0.00    +0.000 OA
ATOM     21  C   UNL     1      45.014   4.467  10.473  0.00  0.00    +0.000 A 
ATOM     22  H   UNL     1      45.733   4.233   7.293  0.00  0.00    +0.000 HD
ENDBRANCH   9  12
ENDBRANCH   7  10
ENDBRANCH   1   7
BRANCH   4  23
ATOM     23  C   UNL     1      49.335   8.213  17.753  0.00  0.00    +0.000 C 
BRANCH  23  24
ATOM     24  C   UNL     1      48.577   7.321  18.731  0.00  0.00    +0.000 C 
BRANCH  24  25
ATOM     25  N   UNL     1      49.282   6.055  19.047  0.00  0.00    +0.000 N 
ATOM     26  C   UNL     1      48.723   4.930  18.416  0.00  0.00    +0.000 A 
ATOM     27  C   UNL     1      47.391   4.887  17.944  0.00  0.00    +0.000 A 
ATOM     28  N   UNL     1      46.858   3.865  17.239  0.00  0.00    +0.000 NA
ATOM     29  C   UNL     1      47.694   2.847  17.012  0.00  0.00    +0.000 A 
ATOM     30  C   UNL     1      49.000   2.843  17.487  0.00  0.00    +0.000 A 
ATOM     31  N   UNL     1      49.525   3.867  18.205  0.00  0.00    +0.000 NA
BRANCH  25  32
ATOM     32  C   UNL     1      49.735   5.741  20.433  0.00  0.00    +0.000 C 
BRANCH  32  33
ATOM     33  C   UNL     1      48.610   5.826  21.488  0.00  0.00    +0.000 C 
BRANCH  33  34
ATOM     34  O   UNL     1      47.877   4.610  21.617  0.00  0.00    +0.000 OA
ATOM     35  H   UNL     1      47.237   4.775  22.332  0.00  0.00    +0.000 HD
ENDBRANCH  33  34
ENDBRANCH  32  33
ENDBRANCH  25  32
ENDBRANCH  24  25
ENDBRANCH  23  24
ENDBRANCH   4  23
TORSDOF 9
ENDMDL
MODEL 4
REMARK VINA RESULT:    -6.841      3.531      8.795
REMARK INTER + INTRA:         -11.029
REMARK INTER:                  -9.094
REMARK INTRA:                  -1.935
REMARK UNBOUND:                -0.788
REMARK  Name = 
REMARK  9 active torsions:
REMARK  status: ('A' for Active; 'I' for Inactive)
REMARK    1  A    between atoms: C_2  and  C_23
REMARK    2  A    between atoms: N_3  and  C_4
REMARK    3  A    between atoms: C_4  and  C_5
REMARK    4  A    between atoms: C_8  and  C_9
REMARK    5  A    between atoms: C_9  and  C_10
REMARK    6  A    between atoms: C_10  and  N_11
REMARK    7  A    between atoms: N_11  and  C_12
REMARK    8  A    between atoms: C_12  and  C_13
REMARK    9  A    between atoms: C_13  and  O_14
REMARK                            x       y       z     vdW  Elec       q    Type
REMARK                         _______ _______ _______ _____ _____    ______ ____
ROOT
ATOM      1  C   UNL     1      49.401   8.347  15.659  0.00  0.00    +0.000 A 
ATOM      2  C   UNL     1      50.554   8.045  14.922  0.00  0.00    +0.000 A 
ATOM      3  C   UNL     1      51.587   7.293  15.487  0.00  0.00    +0.000 A 
ATOM      4  C   UNL     1      51.473   6.805  16.796  0.00  0.00    +0.000 A 
ATOM      5  C   UNL     1      50.294   7.084  17.511  0.00  0.00    +0.000 A 
ATOM      6  C   UNL     1      49.268   7.842  16.954  0.00  0.00    +0.000 A 
ENDROOT
BRANCH   1   7
ATOM      7  C   UNL     1      48.307   9.180  15.052  0.00  0.00    +0.000 C 
BRANCH   7  10
ATOM      8  O   UNL     1      48.155   8.563  12.355  0.00  0.00    +0.000 OA
ATOM      9  C   UNL     1      47.325   8.084  13.115  0.00  0.00    +0.000 C 
ATOM     10  N   UNL     1      47.292   8.355  14.464  0.00  0.00    +0.000 N 
ATOM     11  H   UNL     1      46.747   7.756  15.069  0.00  0.00    +0.000 HD
BRANCH   9  12
ATOM     12  C   UNL     1      46.256   7.207  12.656  0.00  0.00    +0.000 A 
ATOM     13  C   UNL     1      45.180   7.642  11.895  0.00  0.00    +0.000 A 
ATOM     14  S   UNL     1      44.149   6.367  11.414  0.00  0.00    +0.000 S 
ATOM     15  C   UNL     1      45.114   5.213  12.209  0.00  0.00    +0.000 A 
ATOM     16  N   UNL     1      44.793   3.890  12.185  0.00  0.00    +0.000 NA
ATOM     17  C   UNL     1      45.621   3.137  12.834  0.00  0.00    +0.000 A 
ATOM     18  N   UNL     1      46.723   3.585  13.507  0.00  0.00    +0.000 N 
ATOM     19  C   UNL     1      47.047   4.914  13.622  0.00  0.00    +0.000 A 
ATOM     20  O   UNL     1      47.959   5.271  14.382  0.00  0.00    +0.000 OA
ATOM     21  C   UNL     1      46.191   5.788  12.860  0.00  0.00    +0.000 A 
ATOM     22  H   UNL     1      47.304   2.950  14.040  0.00  0.00    +0.000 HD
ENDBRANCH   9  12
ENDBRANCH   7  10
ENDBRANCH   1   7
BRANCH   4  23
ATOM     23  C   UNL     1      52.492   5.899  17.457  0.00  0.00    +0.000 C 
BRANCH  23  24
ATOM     24  C   UNL     1      51.952   4.816  18.386  0.00  0.00    +0.000 C 
BRANCH  24  25
ATOM     25  N   UNL     1      51.602   3.556  17.687  0.00  0.00    +0.000 N 
ATOM     26  C   UNL     1      50.218   3.321  17.617  0.00  0.00    +0.000 A 
ATOM     27  C   UNL     1      49.284   3.911  18.499  0.00  0.00    +0.000 A 
ATOM     28  N   UNL     1      47.943   3.792  18.391  0.00  0.00    +0.000 NA
ATOM     29  C   UNL     1      47.529   3.043  17.364  0.00  0.00    +0.000 A 
ATOM     30  C   UNL     1      48.420   2.424  16.496  0.00  0.00    +0.000 A 
ATOM     31  N   UNL     1      49.766   2.537  16.617  0.00  0.00    +0.000 NA
BRANCH  25  32
ATOM     32  C   UNL     1      52.363   2.296  17.926  0.00  0.00    +0.000 C 
BRANCH  32  33
ATOM     33  C   UNL     1      53.781   2.525  18.495  0.00  0.00    +0.000 C 
BRANCH  33  34
ATOM     34  O   UNL     1      54.109   1.622  19.548  0.00  0.00    +0.000 OA
ATOM     35  H   UNL     1      53.708   0.773  19.288  0.00  0.00    +0.000 HD
ENDBRANCH  33  34
ENDBRANCH  32  33
ENDBRANCH  25  32
ENDBRANCH  24  25
ENDBRANCH  23  24
ENDBRANCH   4  23
TORSDOF 9
ENDMDL
MODEL 5
REMARK VINA RESULT:    -6.814      3.598      8.861
REMARK INTER + INTRA:         -10.988
REMARK INTER:                  -9.586
REMARK INTRA:                  -1.401
REMARK UNBOUND:                -0.788
REMARK  Name = 
REMARK  9 active torsions:
REMARK  status: ('A' for Active; 'I' for Inactive)
REMARK    1  A    between atoms: C_2  and  C_23
REMARK    2  A    between atoms: N_3  and  C_4
REMARK    3  A    between atoms: C_4  and  C_5
REMARK    4  A    between atoms: C_8  and  C_9
REMARK    5  A    between atoms: C_9  and  C_10
REMARK    6  A    between atoms: C_10  and  N_11
REMARK    7  A    between atoms: N_11  and  C_12
REMARK    8  A    between atoms: C_12  and  C_13
REMARK    9  A    between atoms: C_13  and  O_14
REMARK                            x       y       z     vdW  Elec       q    Type
REMARK                         _______ _______ _______ _____ _____    ______ ____
ROOT
ATOM      1  C   UNL     1      48.493   8.097  13.351  0.00  0.00    +0.000 A 
ATOM      2  C   UNL     1      47.764   8.871  14.264  0.00  0.00    +0.000 A 
ATOM      3  C   UNL     1      47.996   8.766  15.637  0.00  0.00    +0.000 A 
ATOM      4  C   UNL     1      48.984   7.900  16.124  0.00  0.00    +0.000 A 
ATOM      5  C   UNL     1      49.735   7.156  15.195  0.00  0.00    +0.000 A 
ATOM      6  C   UNL     1      49.499   7.252  13.827  0.00  0.00    +0.000 A 
ENDROOT
BRANCH   1   7
ATOM      7  C   UNL     1      48.218   8.196  11.878  0.00  0.00    +0.000 C 
BRANCH   7  10
ATOM      8  O   UNL     1      45.477   8.042  11.497  0.00  0.00    +0.000 OA
ATOM      9  C   UNL     1      46.166   7.071  11.215  0.00  0.00    +0.000 C 
ATOM     10  N   UNL     1      47.529   7.033  11.398  0.00  0.00    +0.000 N 
ATOM     11  H   UNL     1      48.064   6.313  10.933  0.00  0.00    +0.000 HD
BRANCH   9  12
ATOM     12  C   UNL     1      45.599   5.835  10.691  0.00  0.00    +0.000 A 
ATOM     13  C   UNL     1      45.808   5.385   9.394  0.00  0.00    +0.000 A 
ATOM     14  S   UNL     1      45.110   3.853   9.103  0.00  0.00    +0.000 S 
ATOM     15  C   UNL     1      44.516   3.759  10.696  0.00  0.00    +0.000 A 
ATOM     16  N   UNL     1      43.816   2.674  11.124  0.00  0.00    +0.000 NA
ATOM     17  C   UNL     1      43.431   2.749  12.357  0.00  0.00    +0.000 A 
ATOM     18  N   UNL     1      43.674   3.806  13.188  0.00  0.00    +0.000 N 
ATOM     19  C   UNL     1      44.311   4.953  12.783  0.00  0.00    +0.000 A 
ATOM     20  O   UNL     1      44.353   5.941  13.530  0.00  0.00    +0.000 OA
ATOM     21  C   UNL     1      44.816   4.890  11.434  0.00  0.00    +0.000 A 
ATOM     22  H   UNL     1      43.301   3.827  14.129  0.00  0.00    +0.000 HD
ENDBRANCH   9  12
ENDBRANCH   7  10
ENDBRANCH   1   7
BRANCH   4  23
ATOM     23  C   UNL     1      49.377   7.794  17.584  0.00  0.00    +0.000 C 
BRANCH  23  24
ATOM     24  C   UNL     1      48.534   6.871  18.458  0.00  0.00    +0.000 C 
BRANCH  24  25
ATOM     25  N   UNL     1      49.213   5.599  18.804  0.00  0.00    +0.000 N 
ATOM     26  C   UNL     1      48.791   4.509  18.022  0.00  0.00    +0.000 A 
ATOM     27  C   UNL     1      47.553   4.475  17.340  0.00  0.00    +0.000 A 
ATOM     28  N   UNL     1      47.166   3.493  16.497  0.00  0.00    +0.000 NA
ATOM     29  C   UNL     1      48.055   2.506  16.344  0.00  0.00    +0.000 A 
ATOM     30  C   UNL     1      49.267   2.492  17.022  0.00  0.00    +0.000 A 
ATOM     31  N   UNL     1      49.644   3.475  17.877  0.00  0.00    +0.000 NA
BRANCH  25  32
ATOM     32  C   UNL     1      49.447   5.202  20.222  0.00  0.00    +0.000 C 
BRANCH  32  33
ATOM     33  C   UNL     1      48.319   5.637  21.184  0.00  0.00    +0.000 C 
BRANCH  33  34
ATOM     34  O   UNL     1      47.583   4.536  21.711  0.00  0.00    +0.000 OA
ATOM     35  H   UNL     1      47.550   3.885  20.987  0.00  0.00    +0.000 HD
ENDBRANCH  33  34
ENDBRANCH  32  33
ENDBRANCH  25  32
ENDBRANCH  24  25
ENDBRANCH  23  24
ENDBRANCH   4  23
TORSDOF 9
ENDMDL
MODEL 6
REMARK VINA RESULT:    -6.814      2.769      3.386
REMARK INTER + INTRA:         -10.987
REMARK INTER:                  -9.865
REMARK INTRA:                  -1.122
REMARK UNBOUND:                -0.788
REMARK  Name = 
REMARK  9 active torsions:
REMARK  status: ('A' for Active; 'I' for Inactive)
REMARK    1  A    between atoms: C_2  and  C_23
REMARK    2  A    between atoms: N_3  and  C_4
REMARK    3  A    between atoms: C_4  and  C_5
REMARK    4  A    between atoms: C_8  and  C_9
REMARK    5  A    between atoms: C_9  and  C_10
REMARK    6  A    between atoms: C_10  and  N_11
REMARK    7  A    between atoms: N_11  and  C_12
REMARK    8  A    between atoms: C_12  and  C_13
REMARK    9  A    between atoms: C_13  and  O_14
REMARK                            x       y       z     vdW  Elec       q    Type
REMARK                         _______ _______ _______ _____ _____    ______ ____
ROOT
ATOM      1  C   UNL     1      48.763   6.992  13.715  0.00  0.00    +0.000 A 
ATOM      2  C   UNL     1      47.825   6.108  14.264  0.00  0.00    +0.000 A 
ATOM      3  C   UNL     1      46.643   5.808  13.585  0.00  0.00    +0.000 A 
ATOM      4  C   UNL     1      46.387   6.367  12.326  0.00  0.00    +0.000 A 
ATOM      5  C   UNL     1      47.354   7.224  11.768  0.00  0.00    +0.000 A 
ATOM      6  C   UNL     1      48.529   7.532  12.448  0.00  0.00    +0.000 A 
ENDROOT
BRANCH   1   7
ATOM      7  C   UNL     1      50.020   7.331  14.464  0.00  0.00    +0.000 C 
BRANCH   7  10
ATOM      8  O   UNL     1      51.739   6.173  16.304  0.00  0.00    +0.000 OA
ATOM      9  C   UNL     1      50.734   6.737  16.712  0.00  0.00    +0.000 C 
ATOM     10  N   UNL     1      49.801   7.313  15.882  0.00  0.00    +0.000 N 
ATOM     11  H   UNL     1      49.131   7.960  16.274  0.00  0.00    +0.000 HD
BRANCH   9  12
ATOM     12  C   UNL     1      50.404   6.819  18.129  0.00  0.00    +0.000 A 
ATOM     13  C   UNL     1      50.630   7.948  18.906  0.00  0.00    +0.000 A 
ATOM     14  S   UNL     1      50.039   7.785  20.500  0.00  0.00    +0.000 S 
ATOM     15  C   UNL     1      49.471   6.212  20.189  0.00  0.00    +0.000 A 
ATOM     16  N   UNL     1      48.838   5.488  21.152  0.00  0.00    +0.000 NA
ATOM     17  C   UNL     1      48.465   4.310  20.765  0.00  0.00    +0.000 A 
ATOM     18  N   UNL     1      48.677   3.794  19.518  0.00  0.00    +0.000 N 
ATOM     19  C   UNL     1      49.374   4.455  18.537  0.00  0.00    +0.000 A 
ATOM     20  O   UNL     1      49.679   3.872  17.486  0.00  0.00    +0.000 OA
ATOM     21  C   UNL     1      49.753   5.798  18.899  0.00  0.00    +0.000 A 
ATOM     22  H   UNL     1      48.407   2.845  19.292  0.00  0.00    +0.000 HD
ENDBRANCH   9  12
ENDBRANCH   7  10
ENDBRANCH   1   7
BRANCH   4  23
ATOM     23  C   UNL     1      45.184   6.023  11.471  0.00  0.00    +0.000 C 
BRANCH  23  24
ATOM     24  C   UNL     1      45.460   5.336  10.137  0.00  0.00    +0.000 C 
BRANCH  24  25
ATOM     25  N   UNL     1      45.060   3.908  10.112  0.00  0.00    +0.000 N 
ATOM     26  C   UNL     1      45.548   3.209   8.994  0.00  0.00    +0.000 A 
ATOM     27  C   UNL     1      45.944   3.843   7.794  0.00  0.00    +0.000 A 
ATOM     28  N   UNL     1      46.517   3.215   6.744  0.00  0.00    +0.000 NA
ATOM     29  C   UNL     1      46.688   1.899   6.907  0.00  0.00    +0.000 A 
ATOM     30  C   UNL     1      46.283   1.238   8.061  0.00  0.00    +0.000 A 
ATOM     31  N   UNL     1      45.697   1.874   9.106  0.00  0.00    +0.000 NA
BRANCH  25  32
ATOM     32  C   UNL     1      43.676   3.481  10.466  0.00  0.00    +0.000 C 
BRANCH  32  33
ATOM     33  C   UNL     1      43.572   2.791  11.845  0.00  0.00    +0.000 C 
BRANCH  33  34
ATOM     34  O   UNL     1      44.824   2.710  12.521  0.00  0.00    +0.000 OA
ATOM     35  H   UNL     1      44.665   3.101  13.398  0.00  0.00    +0.000 HD
ENDBRANCH  33  34
ENDBRANCH  32  33
ENDBRANCH  25  32
ENDBRANCH  24  25
ENDBRANCH  23  24
ENDBRANCH   4  23
TORSDOF 9
ENDMDL
MODEL 7
REMARK VINA RESULT:    -6.802      3.140      9.449
REMARK INTER + INTRA:         -10.971
REMARK INTER:                  -9.687
REMARK INTRA:                  -1.284
REMARK UNBOUND:                -0.788
REMARK  Name = 
REMARK  9 active torsions:
REMARK  status: ('A' for Active; 'I' for Inactive)
REMARK    1  A    between atoms: C_2  and  C_23
REMARK    2  A    between atoms: N_3  and  C_4
REMARK    3  A    between atoms: C_4  and  C_5
REMARK    4  A    between atoms: C_8  and  C_9
REMARK    5  A    between atoms: C_9  and  C_10
REMARK    6  A    between atoms: C_10  and  N_11
REMARK    7  A    between atoms: N_11  and  C_12
REMARK    8  A    between atoms: C_12  and  C_13
REMARK    9  A    between atoms: C_13  and  O_14
REMARK                            x       y       z     vdW  Elec       q    Type
REMARK                         _______ _______ _______ _____ _____    ______ ____
ROOT
ATOM      1  C   UNL     1      48.688   7.625  13.018  0.00  0.00    +0.000 A 
ATOM      2  C   UNL     1      48.370   7.002  14.233  0.00  0.00    +0.000 A 
ATOM      3  C   UNL     1      49.312   6.916  15.260  0.00  0.00    +0.000 A 
ATOM      4  C   UNL     1      50.586   7.478  15.102  0.00  0.00    +0.000 A 
ATOM      5  C   UNL     1      50.880   8.133  13.892  0.00  0.00    +0.000 A 
ATOM      6  C   UNL     1      49.946   8.211  12.863  0.00  0.00    +0.000 A 
ENDROOT
BRANCH   1   7
ATOM      7  C   UNL     1      47.678   7.688  11.909  0.00  0.00    +0.000 C 
BRANCH   7  10
ATOM      8  O   UNL     1      44.916   7.469  11.838  0.00  0.00    +0.000 OA
ATOM      9  C   UNL     1      45.590   6.454  11.727  0.00  0.00    +0.000 C 
ATOM     10  N   UNL     1      46.964   6.450  11.783  0.00  0.00    +0.000 N 
ATOM     11  H   UNL     1      47.464   5.637  11.451  0.00  0.00    +0.000 HD
BRANCH   9  12
ATOM     12  C   UNL     1      44.995   5.134  11.564  0.00  0.00    +0.000 A 
ATOM     13  C   UNL     1      44.319   4.467  12.577  0.00  0.00    +0.000 A 
ATOM     14  S   UNL     1      43.638   2.989  12.058  0.00  0.00    +0.000 S 
ATOM     15  C   UNL     1      44.229   3.207  10.477  0.00  0.00    +0.000 A 
ATOM     16  N   UNL     1      43.988   2.289   9.502  0.00  0.00    +0.000 NA
ATOM     17  C   UNL     1      44.502   2.594   8.354  0.00  0.00    +0.000 A 
ATOM     18  N   UNL     1      45.236   3.718   8.100  0.00  0.00    +0.000 N 
ATOM     19  C   UNL     1      45.568   4.636   9.066  0.00  0.00    +0.000 A 
ATOM     20  O   UNL     1      46.373   5.544   8.816  0.00  0.00    +0.000 OA
ATOM     21  C   UNL     1      44.963   4.373  10.348  0.00  0.00    +0.000 A 
ATOM     22  H   UNL     1      45.656   3.875   7.193  0.00  0.00    +0.000 HD
ENDBRANCH   9  12
ENDBRANCH   7  10
ENDBRANCH   1   7
BRANCH   4  23
ATOM     23  C   UNL     1      51.636   7.524  16.194  0.00  0.00    +0.000 C 
BRANCH  23  24
ATOM     24  C   UNL     1      51.357   6.711  17.454  0.00  0.00    +0.000 C 
BRANCH  24  25
ATOM     25  N   UNL     1      51.587   5.256  17.282  0.00  0.00    +0.000 N 
ATOM     26  C   UNL     1      50.457   4.473  17.577  0.00  0.00    +0.000 A 
ATOM     27  C   UNL     1      49.394   4.919  18.396  0.00  0.00    +0.000 A 
ATOM     28  N   UNL     1      48.249   4.236  18.610  0.00  0.00    +0.000 NA
ATOM     29  C   UNL     1      48.177   3.057  17.984  0.00  0.00    +0.000 A 
ATOM     30  C   UNL     1      49.214   2.573  17.196  0.00  0.00    +0.000 A 
ATOM     31  N   UNL     1      50.367   3.259  16.996  0.00  0.00    +0.000 NA
BRANCH  25  32
ATOM     32  C   UNL     1      52.844   4.606  17.750  0.00  0.00    +0.000 C 
BRANCH  32  33
ATOM     33  C   UNL     1      52.875   4.332  19.271  0.00  0.00    +0.000 C 
BRANCH  33  34
ATOM     34  O   UNL     1      52.931   2.943  19.583  0.00  0.00    +0.000 OA
ATOM     35  H   UNL     1      53.052   2.495  18.726  0.00  0.00    +0.000 HD
ENDBRANCH  33  34
ENDBRANCH  32  33
ENDBRANCH  25  32
ENDBRANCH  24  25
ENDBRANCH  23  24
ENDBRANCH   4  23
TORSDOF 9
ENDMDL
MODEL 8
REMARK VINA RESULT:    -6.675      5.869     10.533
REMARK INTER + INTRA:         -10.780
REMARK INTER:                  -9.760
REMARK INTRA:                  -1.020
REMARK UNBOUND:                -0.788
REMARK  Name = 
REMARK  9 active torsions:
REMARK  status: ('A' for Active; 'I' for Inactive)
REMARK    1  A    between atoms: C_2  and  C_23
REMARK    2  A    between atoms: N_3  and  C_4
REMARK    3  A    between atoms: C_4  and  C_5
REMARK    4  A    between atoms: C_8  and  C_9
REMARK    5  A    between atoms: C_9  and  C_10
REMARK    6  A    between atoms: C_10  and  N_11
REMARK    7  A    between atoms: N_11  and  C_12
REMARK    8  A    between atoms: C_12  and  C_13
REMARK    9  A    between atoms: C_13  and  O_14
REMARK                            x       y       z     vdW  Elec       q    Type
REMARK                         _______ _______ _______ _____ _____    ______ ____
ROOT
ATOM      1  C   UNL     1      45.954   3.180   7.430  0.00  0.00    +0.000 A 
ATOM      2  C   UNL     1      45.733   1.889   7.927  0.00  0.00    +0.000 A 
ATOM      3  C   UNL     1      45.097   1.695   9.155  0.00  0.00    +0.000 A 
ATOM      4  C   UNL     1      44.644   2.792   9.899  0.00  0.00    +0.000 A 
ATOM      5  C   UNL     1      44.838   4.082   9.371  0.00  0.00    +0.000 A 
ATOM      6  C   UNL     1      45.481   4.277   8.152  0.00  0.00    +0.000 A 
ENDROOT
BRANCH   1   7
ATOM      7  C   UNL     1      46.664   3.380   6.121  0.00  0.00    +0.000 C 
BRANCH   7  10
ATOM      8  O   UNL     1      48.428   1.277   5.742  0.00  0.00    +0.000 OA
ATOM      9  C   UNL     1      47.363   1.267   5.140  0.00  0.00    +0.000 C 
ATOM     10  N   UNL     1      46.435   2.278   5.232  0.00  0.00    +0.000 N 
ATOM     11  H   UNL     1      45.493   2.106   4.910  0.00  0.00    +0.000 HD
BRANCH   9  12
ATOM     12  C   UNL     1      46.990   0.195   4.227  0.00  0.00    +0.000 A 
ATOM     13  C   UNL     1      46.866   0.363   2.855  0.00  0.00    +0.000 A 
ATOM     14  S   UNL     1      46.525  -1.096   2.035  0.00  0.00    +0.000 S 
ATOM     15  C   UNL     1      46.536  -1.980   3.489  0.00  0.00    +0.000 A 
ATOM     16  N   UNL     1      46.317  -3.324   3.498  0.00  0.00    +0.000 NA
ATOM     17  C   UNL     1      46.356  -3.854   4.678  0.00  0.00    +0.000 A 
ATOM     18  N   UNL     1      46.582  -3.167   5.837  0.00  0.00    +0.000 N 
ATOM     19  C   UNL     1      46.735  -1.804   5.888  0.00  0.00    +0.000 A 
ATOM     20  O   UNL     1      46.769  -1.219   6.980  0.00  0.00    +0.000 OA
ATOM     21  C   UNL     1      46.765  -1.175   4.591  0.00  0.00    +0.000 A 
ATOM     22  H   UNL     1      46.549  -3.633   6.735  0.00  0.00    +0.000 HD
ENDBRANCH   9  12
ENDBRANCH   7  10
ENDBRANCH   1   7
BRANCH   4  23
ATOM     23  C   UNL     1      43.855   2.678  11.189  0.00  0.00    +0.000 C 
BRANCH  23  24
ATOM     24  C   UNL     1      44.501   3.255  12.445  0.00  0.00    +0.000 C 
BRANCH  24  25
ATOM     25  N   UNL     1      44.418   4.733  12.528  0.00  0.00    +0.000 N 
ATOM     26  C   UNL     1      45.558   5.327  13.096  0.00  0.00    +0.000 A 
ATOM     27  C   UNL     1      46.460   4.632  13.933  0.00  0.00    +0.000 A 
ATOM     28  N   UNL     1      47.619   5.140  14.406  0.00  0.00    +0.000 NA
ATOM     29  C   UNL     1      47.872   6.397  14.029  0.00  0.00    +0.000 A 
ATOM     30  C   UNL     1      46.994   7.121  13.232  0.00  0.00    +0.000 A 
ATOM     31  N   UNL     1      45.826   6.608  12.771  0.00  0.00    +0.000 NA
BRANCH  25  32
ATOM     32  C   UNL     1      43.167   5.419  12.960  0.00  0.00    +0.000 C 
BRANCH  32  33
ATOM     33  C   UNL     1      42.331   5.984  11.790  0.00  0.00    +0.000 C 
BRANCH  33  34
ATOM     34  O   UNL     1      43.006   7.014  11.072  0.00  0.00    +0.000 OA
ATOM     35  H   UNL     1      42.787   6.854  10.136  0.00  0.00    +0.000 HD
ENDBRANCH  33  34
ENDBRANCH  32  33
ENDBRANCH  25  32
ENDBRANCH  24  25
ENDBRANCH  23  24
ENDBRANCH   4  23
TORSDOF 9
ENDMDL
MODEL 9
REMARK VINA RESULT:    -6.507      3.390      9.792
REMARK INTER + INTRA:         -10.528
REMARK INTER:                  -9.488
REMARK INTRA:                  -1.040
REMARK UNBOUND:                -0.788
REMARK  Name = 
REMARK  9 active torsions:
REMARK  status: ('A' for Active; 'I' for Inactive)
REMARK    1  A    between atoms: C_2  and  C_23
REMARK    2  A    between atoms: N_3  and  C_4
REMARK    3  A    between atoms: C_4  and  C_5
REMARK    4  A    between atoms: C_8  and  C_9
REMARK    5  A    between atoms: C_9  and  C_10
REMARK    6  A    between atoms: C_10  and  N_11
REMARK    7  A    between atoms: N_11  and  C_12
REMARK    8  A    between atoms: C_12  and  C_13
REMARK    9  A    between atoms: C_13  and  O_14
REMARK                            x       y       z     vdW  Elec       q    Type
REMARK                         _______ _______ _______ _____ _____    ______ ____
ROOT
ATOM      1  C   UNL     1      48.815   7.629  13.284  0.00  0.00    +0.000 A 
ATOM      2  C   UNL     1      50.132   8.045  13.515  0.00  0.00    +0.000 A 
ATOM      3  C   UNL     1      50.791   7.710  14.700  0.00  0.00    +0.000 A 
ATOM      4  C   UNL     1      50.151   6.926  15.669  0.00  0.00    +0.000 A 
ATOM      5  C   UNL     1      48.841   6.483  15.408  0.00  0.00    +0.000 A 
ATOM      6  C   UNL     1      48.179   6.824  14.232  0.00  0.00    +0.000 A 
ENDROOT
BRANCH   1   7
ATOM      7  C   UNL     1      48.104   8.017  12.019  0.00  0.00    +0.000 C 
BRANCH   7  10
ATOM      8  O   UNL     1      45.365   7.831  11.640  0.00  0.00    +0.000 OA
ATOM      9  C   UNL     1      46.076   6.911  11.258  0.00  0.00    +0.000 C 
ATOM     10  N   UNL     1      47.441   6.891  11.429  0.00  0.00    +0.000 N 
ATOM     11  H   UNL     1      47.990   6.235  10.891  0.00  0.00    +0.000 HD
BRANCH   9  12
ATOM     12  C   UNL     1      45.536   5.720  10.615  0.00  0.00    +0.000 A 
ATOM     13  C   UNL     1      45.788   5.381   9.293  0.00  0.00    +0.000 A 
ATOM     14  S   UNL     1      45.113   3.875   8.854  0.00  0.00    +0.000 S 
ATOM     15  C   UNL     1      44.472   3.645  10.414  0.00  0.00    +0.000 A 
ATOM     16  N   UNL     1      43.768   2.523  10.728  0.00  0.00    +0.000 NA
ATOM     17  C   UNL     1      43.345   2.493  11.951  0.00  0.00    +0.000 A 
ATOM     18  N   UNL     1      43.553   3.478  12.874  0.00  0.00    +0.000 N 
ATOM     19  C   UNL     1      44.192   4.659  12.586  0.00  0.00    +0.000 A 
ATOM     20  O   UNL     1      44.203   5.582  13.413  0.00  0.00    +0.000 OA
ATOM     21  C   UNL     1      44.739   4.712  11.253  0.00  0.00    +0.000 A 
ATOM     22  H   UNL     1      43.151   3.419  13.801  0.00  0.00    +0.000 HD
ENDBRANCH   9  12
ENDBRANCH   7  10
ENDBRANCH   1   7
BRANCH   4  23
ATOM     23  C   UNL     1      50.817   6.427  16.935  0.00  0.00    +0.000 C 
BRANCH  23  24
ATOM     24  C   UNL     1      50.382   5.060  17.451  0.00  0.00    +0.000 C 
BRANCH  24  25
ATOM     25  N   UNL     1      50.005   5.060  18.886  0.00  0.00    +0.000 N 
ATOM     26  C   UNL     1      51.059   4.693  19.741  0.00  0.00    +0.000 A 
ATOM     27  C   UNL     1      52.180   3.944  19.315  0.00  0.00    +0.000 A 
ATOM     28  N   UNL     1      53.257   3.668  20.082  0.00  0.00    +0.000 NA
ATOM     29  C   UNL     1      53.197   4.156  21.325  0.00  0.00    +0.000 A 
ATOM     30  C   UNL     1      52.098   4.870  21.787  0.00  0.00    +0.000 A 
ATOM     31  N   UNL     1      51.014   5.132  21.015  0.00  0.00    +0.000 NA
BRANCH  25  32
ATOM     32  C   UNL     1      48.702   4.505  19.349  0.00  0.00    +0.000 C 
BRANCH  32  33
ATOM     33  C   UNL     1      47.516   5.482  19.184  0.00  0.00    +0.000 C 
BRANCH  33  34
ATOM     34  O   UNL     1      46.567   5.045  18.214  0.00  0.00    +0.000 OA
ATOM     35  H   UNL     1      46.395   4.111  18.432  0.00  0.00    +0.000 HD
ENDBRANCH  33  34
ENDBRANCH  32  33
ENDBRANCH  25  32
ENDBRANCH  24  25
ENDBRANCH  23  24
ENDBRANCH   4  23
TORSDOF 9
ENDMDL
