MODEL 1
REMARK VINA RESULT:    -7.608      0.000      0.000
REMARK INTER + INTRA:          -9.579
REMARK INTER:                  -8.943
REMARK INTRA:                  -0.637
REMARK UNBOUND:                -0.637
REMARK  Name = 
REMARK  3 active torsions:
REMARK  status: ('A' for Active; 'I' for Inactive)
REMARK    1  A    between atoms: C_4  and  C_5
REMARK    2  A    between atoms: C_5  and  C_6
REMARK    3  A    between atoms: C_10  and  C_11
REMARK                            x       y       z     vdW  Elec       q    Type
REMARK                         _______ _______ _______ _____ _____    ______ ____
ROOT
ATOM      1  C   UNL     1      45.708   5.077  11.949  0.00  0.00    +0.000 A 
ATOM      2  C   UNL     1      46.078   6.424  11.810  0.00  0.00    +0.000 A 
ATOM      3  C   UNL     1      46.833   7.069  12.790  0.00  0.00    +0.000 A 
ATOM      4  C   UNL     1      47.236   6.372  13.928  0.00  0.00    +0.000 A 
ATOM      5  C   UNL     1      46.952   5.006  14.082  0.00  0.00    +0.000 A 
ATOM      6  C   UNL     1      46.223   4.375  13.056  0.00  0.00    +0.000 A 
ENDROOT
BRANCH   5   7
ATOM      7  C   UNL     1      47.301   4.290  15.321  0.00  0.00    +0.000 A 
ATOM      8  C   UNL     1      47.216   4.874  16.583  0.00  0.00    +0.000 A 
ATOM      9  C   UNL     1      47.659   4.163  17.696  0.00  0.00    +0.000 A 
ATOM     10  C   UNL     1      48.181   2.887  17.524  0.00  0.00    +0.000 A 
ATOM     11  C   UNL     1      48.222   2.367  16.241  0.00  0.00    +0.000 A 
ATOM     12  N   UNL     1      47.780   3.029  15.150  0.00  0.00    +0.000 NA
ENDBRANCH   5   7
BRANCH   1  13
ATOM     13  C   UNL     1      44.636   4.452  11.049  0.00  0.00    +0.000 C 
ATOM     14  C   UNL     1      43.380   3.912  11.742  0.00  0.00    +0.000 C 
ATOM     15  C   UNL     1      43.301   5.209  11.010  0.00  0.00    +0.000 C 
BRANCH  13  19
ATOM     16  C   UNL     1      46.080   2.449   7.458  0.00  0.00    +0.000 A 
ATOM     17  C   UNL     1      46.079   3.839   7.528  0.00  0.00    +0.000 A 
ATOM     18  C   UNL     1      45.581   4.483   8.665  0.00  0.00    +0.000 A 
ATOM     19  C   UNL     1      45.079   3.759   9.761  0.00  0.00    +0.000 A 
ATOM     20  C   UNL     1      45.066   2.355   9.648  0.00  0.00    +0.000 A 
ATOM     21  C   UNL     1      45.565   1.706   8.515  0.00  0.00    +0.000 A 
ENDBRANCH  13  19
ENDBRANCH   1  13
TORSDOF 3
ENDMDL
MODEL 2
REMARK VINA RESULT:    -7.562      2.193      4.145
REMARK INTER + INTRA:          -9.525
REMARK INTER:                  -8.786
REMARK INTRA:                  -0.739
REMARK UNBOUND:                -0.637
REMARK  Name = 
REMARK  3 active torsions:
REMARK  status: ('A' for Active; 'I' for Inactive)
REMARK    1  A    between atoms: C_4  and  C_5
REMARK    2  A    between atoms: C_5  and  C_6
REMARK    3  A    between atoms: C_10  and  C_11
REMARK                            x       y       z     vdW  Elec       q    Type
REMARK                         _______ _______ _______ _____ _____    ______ ____
ROOT
ATOM      1  C   UNL     1      45.439   4.975  12.054  0.00  0.00    +0.000 A 
ATOM      2  C   UNL     1      45.811   4.265  13.207  0.00  0.00    +0.000 A 
ATOM      3  C   UNL     1      46.884   4.680  13.995  0.00  0.00    +0.000 A 
ATOM      4  C   UNL     1      47.605   5.821  13.643  0.00  0.00    +0.000 A 
ATOM      5  C   UNL     1      47.231   6.604  12.541  0.00  0.00    +0.000 A 
ATOM      6  C   UNL     1      46.118   6.181  11.789  0.00  0.00    +0.000 A 
ENDROOT
BRANCH   5   7
ATOM      7  C   UNL     1      48.041   7.759  12.117  0.00  0.00    +0.000 A 
ATOM      8  C   UNL     1      49.395   7.660  11.803  0.00  0.00    +0.000 A 
ATOM      9  C   UNL     1      50.114   8.817  11.507  0.00  0.00    +0.000 A 
ATOM     10  C   UNL     1      49.467  10.045  11.535  0.00  0.00    +0.000 A 
ATOM     11  C   UNL     1      48.117  10.065  11.843  0.00  0.00    +0.000 A 
ATOM     12  N   UNL     1      47.395   8.956  12.113  0.00  0.00    +0.000 NA
ENDBRANCH   5   7
BRANCH   1  13
ATOM     13  C   UNL     1      44.479   4.370  11.025  0.00  0.00    +0.000 C 
ATOM     14  C   UNL     1      43.191   3.739  11.568  0.00  0.00    +0.000 C 
ATOM     15  C   UNL     1      43.120   5.077  10.912  0.00  0.00    +0.000 C 
BRANCH  13  19
ATOM     16  C   UNL     1      46.315   2.657   7.464  0.00  0.00    +0.000 A 
ATOM     17  C   UNL     1      46.248   4.039   7.617  0.00  0.00    +0.000 A 
ATOM     18  C   UNL     1      45.625   4.589   8.742  0.00  0.00    +0.000 A 
ATOM     19  C   UNL     1      45.062   3.777   9.743  0.00  0.00    +0.000 A 
ATOM     20  C   UNL     1      45.121   2.384   9.545  0.00  0.00    +0.000 A 
ATOM     21  C   UNL     1      45.744   1.828   8.424  0.00  0.00    +0.000 A 
ENDBRANCH  13  19
ENDBRANCH   1  13
TORSDOF 3
ENDMDL
MODEL 3
REMARK VINA RESULT:    -6.988      3.158      5.275
REMARK INTER + INTRA:          -8.851
REMARK INTER:                  -8.217
REMARK INTRA:                  -0.634
REMARK UNBOUND:                -0.637
REMARK  Name = 
REMARK  3 active torsions:
REMARK  status: ('A' for Active; 'I' for Inactive)
REMARK    1  A    between atoms: C_4  and  C_5
REMARK    2  A    between atoms: C_5  and  C_6
REMARK    3  A    between atoms: C_10  and  C_11
REMARK                            x       y       z     vdW  Elec       q    Type
REMARK                         _______ _______ _______ _____ _____    ______ ____
ROOT
ATOM      1  C   UNL     1      45.155   5.753  11.877  0.00  0.00    +0.000 A 
ATOM      2  C   UNL     1      46.427   5.546  12.433  0.00  0.00    +0.000 A 
ATOM      3  C   UNL     1      47.266   6.619  12.733  0.00  0.00    +0.000 A 
ATOM      4  C   UNL     1      46.842   7.924  12.484  0.00  0.00    +0.000 A 
ATOM      5  C   UNL     1      45.553   8.188  11.995  0.00  0.00    +0.000 A 
ATOM      6  C   UNL     1      44.716   7.085  11.741  0.00  0.00    +0.000 A 
ENDROOT
BRANCH   5   7
ATOM      7  C   UNL     1      45.135   9.557  11.650  0.00  0.00    +0.000 A 
ATOM      8  C   UNL     1      45.943  10.673  11.863  0.00  0.00    +0.000 A 
ATOM      9  C   UNL     1      45.435  11.944  11.602  0.00  0.00    +0.000 A 
ATOM     10  C   UNL     1      44.132  12.074  11.139  0.00  0.00    +0.000 A 
ATOM     11  C   UNL     1      43.393  10.920  10.939  0.00  0.00    +0.000 A 
ATOM     12  N   UNL     1      43.870   9.677  11.165  0.00  0.00    +0.000 NA
ENDBRANCH   5   7
BRANCH   1  13
ATOM     13  C   UNL     1      44.359   4.596  11.265  0.00  0.00    +0.000 C 
ATOM     14  C   UNL     1      43.563   3.714  12.235  0.00  0.00    +0.000 C 
ATOM     15  C   UNL     1      42.834   4.714  11.401  0.00  0.00    +0.000 C 
BRANCH  13  19
ATOM     16  C   UNL     1      46.058   2.682   7.737  0.00  0.00    +0.000 A 
ATOM     17  C   UNL     1      46.048   4.070   7.840  0.00  0.00    +0.000 A 
ATOM     18  C   UNL     1      45.469   4.686   8.955  0.00  0.00    +0.000 A 
ATOM     19  C   UNL     1      44.894   3.934   9.995  0.00  0.00    +0.000 A 
ATOM     20  C   UNL     1      44.893   2.534   9.848  0.00  0.00    +0.000 A 
ATOM     21  C   UNL     1      45.472   1.912   8.737  0.00  0.00    +0.000 A 
ENDBRANCH  13  19
ENDBRANCH   1  13
TORSDOF 3
ENDMDL
MODEL 4
REMARK VINA RESULT:    -6.751      1.456      1.720
REMARK INTER + INTRA:          -8.572
REMARK INTER:                  -7.905
REMARK INTRA:                  -0.667
REMARK UNBOUND:                -0.637
REMARK  Name = 
REMARK  3 active torsions:
REMARK  status: ('A' for Active; 'I' for Inactive)
REMARK    1  A    between atoms: C_4  and  C_5
REMARK    2  A    between atoms: C_5  and  C_6
REMARK    3  A    between atoms: C_10  and  C_11
REMARK                            x       y       z     vdW  Elec       q    Type
REMARK                         _______ _______ _______ _____ _____    ______ ____
ROOT
ATOM      1  C   UNL     1      46.555   6.056  12.133  0.00  0.00    +0.000 A 
ATOM      2  C   UNL     1      47.376   6.997  11.493  0.00  0.00    +0.000 A 
ATOM      3  C   UNL     1      48.479   7.551  12.142  0.00  0.00    +0.000 A 
ATOM      4  C   UNL     1      48.784   7.166  13.447  0.00  0.00    +0.000 A 
ATOM      5  C   UNL     1      48.037   6.177  14.105  0.00  0.00    +0.000 A 
ATOM      6  C   UNL     1      46.953   5.609  13.408  0.00  0.00    +0.000 A 
ENDROOT
BRANCH   5   7
ATOM      7  C   UNL     1      48.303   5.831  15.512  0.00  0.00    +0.000 A 
ATOM      8  C   UNL     1      48.901   6.714  16.409  0.00  0.00    +0.000 A 
ATOM      9  C   UNL     1      49.209   6.276  17.696  0.00  0.00    +0.000 A 
ATOM     10  C   UNL     1      48.917   4.967  18.057  0.00  0.00    +0.000 A 
ATOM     11  C   UNL     1      48.310   4.151  17.116  0.00  0.00    +0.000 A 
ATOM     12  N   UNL     1      47.984   4.558  15.871  0.00  0.00    +0.000 NA
ENDBRANCH   5   7
BRANCH   1  13
ATOM     13  C   UNL     1      45.185   5.678  11.559  0.00  0.00    +0.000 C 
ATOM     14  C   UNL     1      43.997   5.707  12.527  0.00  0.00    +0.000 C 
ATOM     15  C   UNL     1      44.154   6.815  11.540  0.00  0.00    +0.000 C 
BRANCH  13  19
ATOM     16  C   UNL     1      45.196   2.728   8.350  0.00  0.00    +0.000 A 
ATOM     17  C   UNL     1      45.682   4.012   8.118  0.00  0.00    +0.000 A 
ATOM     18  C   UNL     1      45.644   4.970   9.137  0.00  0.00    +0.000 A 
ATOM     19  C   UNL     1      45.128   4.670  10.410  0.00  0.00    +0.000 A 
ATOM     20  C   UNL     1      44.618   3.372  10.605  0.00  0.00    +0.000 A 
ATOM     21  C   UNL     1      44.655   2.410   9.592  0.00  0.00    +0.000 A 
ENDBRANCH  13  19
ENDBRANCH   1  13
TORSDOF 3
ENDMDL
MODEL 5
REMARK VINA RESULT:    -6.462      3.509      6.920
REMARK INTER + INTRA:          -8.232
REMARK INTER:                  -8.113
REMARK INTRA:                  -0.119
REMARK UNBOUND:                -0.637
REMARK  Name = 
REMARK  3 active torsions:
REMARK  status: ('A' for Active; 'I' for Inactive)
REMARK    1  A    between atoms: C_4  and  C_5
REMARK    2  A    between atoms: C_5  and  C_6
REMARK    3  A    between atoms: C_10  and  C_11
REMARK                            x       y       z     vdW  Elec       q    Type
REMARK                         _______ _______ _______ _____ _____    ______ ____
ROOT
ATOM      1  C   UNL     1      44.887   6.539  11.705  0.00  0.00    +0.000 A 
ATOM      2  C   UNL     1      43.632   6.176  12.218  0.00  0.00    +0.000 A 
ATOM      3  C   UNL     1      42.957   5.051  11.745  0.00  0.00    +0.000 A 
ATOM      4  C   UNL     1      43.533   4.263  10.748  0.00  0.00    +0.000 A 
ATOM      5  C   UNL     1      44.816   4.542  10.252  0.00  0.00    +0.000 A 
ATOM      6  C   UNL     1      45.487   5.662  10.779  0.00  0.00    +0.000 A 
ENDROOT
BRANCH   5   7
ATOM      7  C   UNL     1      45.389   3.764   9.141  0.00  0.00    +0.000 A 
ATOM      8  C   UNL     1      45.430   2.371   9.133  0.00  0.00    +0.000 A 
ATOM      9  C   UNL     1      46.079   1.712   8.091  0.00  0.00    +0.000 A 
ATOM     10  C   UNL     1      46.675   2.458   7.082  0.00  0.00    +0.000 A 
ATOM     11  C   UNL     1      46.582   3.838   7.150  0.00  0.00    +0.000 A 
ATOM     12  N   UNL     1      45.942   4.498   8.138  0.00  0.00    +0.000 NA
ENDBRANCH   5   7
BRANCH   1  13
ATOM     13  C   UNL     1      45.490   7.919  11.986  0.00  0.00    +0.000 C 
ATOM     14  C   UNL     1      46.288   8.074  13.285  0.00  0.00    +0.000 C 
ATOM     15  C   UNL     1      47.025   7.968  11.992  0.00  0.00    +0.000 C 
BRANCH  13  19
ATOM     16  C   UNL     1      43.302  11.449  10.664  0.00  0.00    +0.000 A 
ATOM     17  C   UNL     1      42.878  10.181  10.277  0.00  0.00    +0.000 A 
ATOM     18  C   UNL     1      43.602   9.050  10.669  0.00  0.00    +0.000 A 
ATOM     19  C   UNL     1      44.758   9.155  11.462  0.00  0.00    +0.000 A 
ATOM     20  C   UNL     1      45.177  10.453  11.814  0.00  0.00    +0.000 A 
ATOM     21  C   UNL     1      44.457  11.587  11.426  0.00  0.00    +0.000 A 
ENDBRANCH  13  19
ENDBRANCH   1  13
TORSDOF 3
ENDMDL
MODEL 6
REMARK VINA RESULT:    -5.999      2.841      7.161
REMARK INTER + INTRA:          -7.687
REMARK INTER:                  -7.063
REMARK INTRA:                  -0.624
REMARK UNBOUND:                -0.637
REMARK  Name = 
REMARK  3 active torsions:
REMARK  status: ('A' for Active; 'I' for Inactive)
REMARK    1  A    between atoms: C_4  and  C_5
REMARK    2  A    between atoms: C_5  and  C_6
REMARK    3  A    between atoms: C_10  and  C_11
REMARK                            x       y       z     vdW  Elec       q    Type
REMARK                         _______ _______ _______ _____ _____    ______ ____
ROOT
ATOM      1  C   UNL     1      47.009   7.774  12.343  0.00  0.00    +0.000 A 
ATOM      2  C   UNL     1      46.008   8.757  12.371  0.00  0.00    +0.000 A 
ATOM      3  C   UNL     1      44.761   8.534  11.789  0.00  0.00    +0.000 A 
ATOM      4  C   UNL     1      44.491   7.314  11.170  0.00  0.00    +0.000 A 
ATOM      5  C   UNL     1      45.432   6.273  11.175  0.00  0.00    +0.000 A 
ATOM      6  C   UNL     1      46.667   6.517  11.806  0.00  0.00    +0.000 A 
ENDROOT
BRANCH   5   7
ATOM      7  C   UNL     1      45.183   5.017  10.448  0.00  0.00    +0.000 A 
ATOM      8  C   UNL     1      45.505   4.843   9.103  0.00  0.00    +0.000 A 
ATOM      9  C   UNL     1      45.146   3.659   8.462  0.00  0.00    +0.000 A 
ATOM     10  C   UNL     1      44.471   2.677   9.176  0.00  0.00    +0.000 A 
ATOM     11  C   UNL     1      44.197   2.915  10.513  0.00  0.00    +0.000 A 
ATOM     12  N   UNL     1      44.552   4.045  11.161  0.00  0.00    +0.000 NA
ENDBRANCH   5   7
BRANCH   1  13
ATOM     13  C   UNL     1      48.462   8.110  12.696  0.00  0.00    +0.000 C 
ATOM     14  C   UNL     1      49.535   7.686  11.687  0.00  0.00    +0.000 C 
ATOM     15  C   UNL     1      49.139   9.123  11.761  0.00  0.00    +0.000 C 
BRANCH  13  19
ATOM     16  C   UNL     1      49.484   8.070  16.932  0.00  0.00    +0.000 A 
ATOM     17  C   UNL     1      48.512   8.947  16.458  0.00  0.00    +0.000 A 
ATOM     18  C   UNL     1      48.210   8.987  15.093  0.00  0.00    +0.000 A 
ATOM     19  C   UNL     1      48.864   8.150  14.170  0.00  0.00    +0.000 A 
ATOM     20  C   UNL     1      49.862   7.295  14.677  0.00  0.00    +0.000 A 
ATOM     21  C   UNL     1      50.166   7.250  16.041  0.00  0.00    +0.000 A 
ENDBRANCH  13  19
ENDBRANCH   1  13
TORSDOF 3
ENDMDL
MODEL 7
REMARK VINA RESULT:    -5.989      2.048      7.224
REMARK INTER + INTRA:          -7.676
REMARK INTER:                  -6.988
REMARK INTRA:                  -0.688
REMARK UNBOUND:                -0.637
REMARK  Name = 
REMARK  3 active torsions:
REMARK  status: ('A' for Active; 'I' for Inactive)
REMARK    1  A    between atoms: C_4  and  C_5
REMARK    2  A    between atoms: C_5  and  C_6
REMARK    3  A    between atoms: C_10  and  C_11
REMARK                            x       y       z     vdW  Elec       q    Type
REMARK                         _______ _______ _______ _____ _____    ______ ____
ROOT
ATOM      1  C   UNL     1      48.510   5.900  16.068  0.00  0.00    +0.000 A 
ATOM      2  C   UNL     1      49.390   6.883  15.588  0.00  0.00    +0.000 A 
ATOM      3  C   UNL     1      49.352   7.298  14.257  0.00  0.00    +0.000 A 
ATOM      4  C   UNL     1      48.424   6.737  13.381  0.00  0.00    +0.000 A 
ATOM      5  C   UNL     1      47.476   5.803  13.827  0.00  0.00    +0.000 A 
ATOM      6  C   UNL     1      47.516   5.435  15.186  0.00  0.00    +0.000 A 
ENDROOT
BRANCH   5   7
ATOM      7  C   UNL     1      46.552   5.145  12.887  0.00  0.00    +0.000 A 
ATOM      8  C   UNL     1      46.044   5.781  11.755  0.00  0.00    +0.000 A 
ATOM      9  C   UNL     1      45.098   5.125  10.970  0.00  0.00    +0.000 A 
ATOM     10  C   UNL     1      44.678   3.852  11.334  0.00  0.00    +0.000 A 
ATOM     11  C   UNL     1      45.236   3.279  12.465  0.00  0.00    +0.000 A 
ATOM     12  N   UNL     1      46.169   3.886  13.229  0.00  0.00    +0.000 NA
ENDBRANCH   5   7
BRANCH   1  13
ATOM     13  C   UNL     1      48.741   5.222  17.423  0.00  0.00    +0.000 C 
ATOM     14  C   UNL     1      48.636   6.110  18.668  0.00  0.00    +0.000 C 
ATOM     15  C   UNL     1      47.514   5.181  18.345  0.00  0.00    +0.000 C 
BRANCH  13  19
ATOM     16  C   UNL     1      51.545   1.885  17.433  0.00  0.00    +0.000 A 
ATOM     17  C   UNL     1      50.231   1.689  17.019  0.00  0.00    +0.000 A 
ATOM     18  C   UNL     1      49.320   2.751  17.051  0.00  0.00    +0.000 A 
ATOM     19  C   UNL     1      49.700   4.033  17.489  0.00  0.00    +0.000 A 
ATOM     20  C   UNL     1      51.028   4.192  17.928  0.00  0.00    +0.000 A 
ATOM     21  C   UNL     1      51.943   3.135  17.896  0.00  0.00    +0.000 A 
ENDBRANCH  13  19
ENDBRANCH   1  13
TORSDOF 3
ENDMDL
MODEL 8
REMARK VINA RESULT:    -5.969      2.027      7.995
REMARK INTER + INTRA:          -7.653
REMARK INTER:                  -7.296
REMARK INTRA:                  -0.357
REMARK UNBOUND:                -0.637
REMARK  Name = 
REMARK  3 active torsions:
REMARK  status: ('A' for Active; 'I' for Inactive)
REMARK    1  A    between atoms: C_4  and  C_5
REMARK    2  A    between atoms: C_5  and  C_6
REMARK    3  A    between atoms: C_10  and  C_11
REMARK                            x       y       z     vdW  Elec       q    Type
REMARK                         _______ _______ _______ _____ _____    ______ ____
ROOT
ATOM      1  C   UNL     1      47.990   5.131  16.278  0.00  0.00    +0.000 A 
ATOM      2  C   UNL     1      48.861   6.210  16.061  0.00  0.00    +0.000 A 
ATOM      3  C   UNL     1      48.902   6.867  14.831  0.00  0.00    +0.000 A 
ATOM      4  C   UNL     1      48.064   6.456  13.795  0.00  0.00    +0.000 A 
ATOM      5  C   UNL     1      47.126   5.429  13.983  0.00  0.00    +0.000 A 
ATOM      6  C   UNL     1      47.083   4.813  15.248  0.00  0.00    +0.000 A 
ENDROOT
BRANCH   5   7
ATOM      7  C   UNL     1      46.301   4.936  12.867  0.00  0.00    +0.000 A 
ATOM      8  C   UNL     1      45.993   5.714  11.752  0.00  0.00    +0.000 A 
ATOM      9  C   UNL     1      45.125   5.209  10.786  0.00  0.00    +0.000 A 
ATOM     10  C   UNL     1      44.581   3.942  10.957  0.00  0.00    +0.000 A 
ATOM     11  C   UNL     1      44.943   3.223  12.084  0.00  0.00    +0.000 A 
ATOM     12  N   UNL     1      45.798   3.683  13.022  0.00  0.00    +0.000 NA
ENDBRANCH   5   7
BRANCH   1  13
ATOM     13  C   UNL     1      48.150   4.216  17.497  0.00  0.00    +0.000 C 
ATOM     14  C   UNL     1      47.528   2.818  17.399  0.00  0.00    +0.000 C 
ATOM     15  C   UNL     1      49.006   2.963  17.259  0.00  0.00    +0.000 C 
BRANCH  13  19
ATOM     16  C   UNL     1      48.255   5.880  21.523  0.00  0.00    +0.000 A 
ATOM     17  C   UNL     1      47.285   6.304  20.619  0.00  0.00    +0.000 A 
ATOM     18  C   UNL     1      47.275   5.799  19.315  0.00  0.00    +0.000 A 
ATOM     19  C   UNL     1      48.223   4.854  18.884  0.00  0.00    +0.000 A 
ATOM     20  C   UNL     1      49.207   4.466  19.813  0.00  0.00    +0.000 A 
ATOM     21  C   UNL     1      49.222   4.966  21.118  0.00  0.00    +0.000 A 
ENDBRANCH  13  19
ENDBRANCH   1  13
TORSDOF 3
ENDMDL
MODEL 9
REMARK VINA RESULT:    -5.949      4.278      7.165
REMARK INTER + INTRA:          -7.628
REMARK INTER:                  -6.961
REMARK INTRA:                  -0.667
REMARK UNBOUND:                -0.637
REMARK  Name = 
REMARK  3 active torsions:
REMARK  status: ('A' for Active; 'I' for Inactive)
REMARK    1  A    between atoms: C_4  and  C_5
REMARK    2  A    between atoms: C_5  and  C_6
REMARK    3  A    between atoms: C_10  and  C_11
REMARK                            x       y       z     vdW  Elec       q    Type
REMARK                         _______ _______ _______ _____ _____    ______ ____
ROOT
ATOM      1  C   UNL     1      46.334   8.548  12.331  0.00  0.00    +0.000 A 
ATOM      2  C   UNL     1      47.417   9.421  12.140  0.00  0.00    +0.000 A 
ATOM      3  C   UNL     1      47.219  10.733  11.709  0.00  0.00    +0.000 A 
ATOM      4  C   UNL     1      45.927  11.197  11.465  0.00  0.00    +0.000 A 
ATOM      5  C   UNL     1      44.807  10.387  11.708  0.00  0.00    +0.000 A 
ATOM      6  C   UNL     1      45.039   9.082  12.181  0.00  0.00    +0.000 A 
ENDROOT
BRANCH   5   7
ATOM      7  C   UNL     1      43.448  10.845  11.370  0.00  0.00    +0.000 A 
ATOM      8  C   UNL     1      42.542  10.064  10.655  0.00  0.00    +0.000 A 
ATOM      9  C   UNL     1      41.312  10.608  10.289  0.00  0.00    +0.000 A 
ATOM     10  C   UNL     1      41.016  11.918  10.642  0.00  0.00    +0.000 A 
ATOM     11  C   UNL     1      41.960  12.629  11.364  0.00  0.00    +0.000 A 
ATOM     12  N   UNL     1      43.150  12.117  11.747  0.00  0.00    +0.000 NA
ENDBRANCH   5   7
BRANCH   1  13
ATOM     13  C   UNL     1      46.550   7.041  12.500  0.00  0.00    +0.000 C 
ATOM     14  C   UNL     1      47.987   6.527  12.352  0.00  0.00    +0.000 C 
ATOM     15  C   UNL     1      47.396   6.640  13.717  0.00  0.00    +0.000 C 
BRANCH  13  19
ATOM     16  C   UNL     1      43.238   4.492  11.268  0.00  0.00    +0.000 A 
ATOM     17  C   UNL     1      43.289   4.987  12.568  0.00  0.00    +0.000 A 
ATOM     18  C   UNL     1      44.372   5.774  12.975  0.00  0.00    +0.000 A 
ATOM     19  C   UNL     1      45.422   6.092  12.096  0.00  0.00    +0.000 A 
ATOM     20  C   UNL     1      45.355   5.552  10.797  0.00  0.00    +0.000 A 
ATOM     21  C   UNL     1      44.275   4.766  10.384  0.00  0.00    +0.000 A 
ENDBRANCH  13  19
ENDBRANCH   1  13
TORSDOF 3
ENDMDL
