MODEL 1
REMARK VINA RESULT:    -8.335      0.000      0.000
REMARK INTER + INTRA:         -12.561
REMARK INTER:                 -11.502
REMARK INTRA:                  -1.058
REMARK UNBOUND:                -1.058
REMARK  Name = 
REMARK  7 active torsions:
REMARK  status: ('A' for Active; 'I' for Inactive)
REMARK    1  A    between atoms: N_1  and  C_2
REMARK    2  A    between atoms: C_2  and  C_3
REMARK    3  A    between atoms: C_2  and  C_10
REMARK    4  A    between atoms: C_3  and  C_4
REMARK    5  A    between atoms: C_13  and  C_14
REMARK    6  A    between atoms: C_14  and  N_15
REMARK    7  A    between atoms: C_16  and  C_18
REMARK                            x       y       z     vdW  Elec       q    Type
REMARK                         _______ _______ _______ _____ _____    ______ ____
ROOT
ATOM      1  C   UNL     1      45.146   4.144  11.140  0.00  0.00    +0.000 A 
ATOM      2  C   UNL     1      45.588   5.262  10.405  0.00  0.00    +0.000 A 
ATOM      3  C   UNL     1      46.073   6.414  11.030  0.00  0.00    +0.000 A 
ATOM      4  C   UNL     1      46.105   6.499  12.423  0.00  0.00    +0.000 A 
ATOM      5  C   UNL     1      45.566   5.442  13.167  0.00  0.00    +0.000 A 
ATOM      6  C   UNL     1      45.096   4.279  12.535  0.00  0.00    +0.000 A 
ENDROOT
BRANCH   1   7
ATOM      7  C   UNL     1      44.700   2.881  10.392  0.00  0.00    +0.000 C 
BRANCH   7   8
ATOM      8  N   UNL     1      43.402   2.417  10.926  0.00  0.00    +0.000 NA
ATOM      9  H   UNL     1      43.374   1.401  10.928  0.00  0.00    +0.000 HD
ATOM     10  H   UNL     1      42.665   2.724  10.293  0.00  0.00    +0.000 HD
ENDBRANCH   7   8
BRANCH   7  11
ATOM     11  C   UNL     1      44.594   3.021   8.844  0.00  0.00    +0.000 C 
BRANCH  11  12
ATOM     12  C   UNL     1      45.811   2.544   8.070  0.00  0.00    +0.000 A 
ATOM     13  C   UNL     1      46.195   1.198   8.079  0.00  0.00    +0.000 A 
ATOM     14  C   UNL     1      47.289   0.808   7.319  0.00  0.00    +0.000 A 
ATOM     15  N   UNL     1      48.025   1.654   6.569  0.00  0.00    +0.000 NA
ATOM     16  C   UNL     1      47.646   2.950   6.576  0.00  0.00    +0.000 A 
ATOM     17  C   UNL     1      46.563   3.433   7.294  0.00  0.00    +0.000 A 
ENDBRANCH  11  12
ENDBRANCH   7  11
ENDBRANCH   1   7
BRANCH   4  18
ATOM     18  C   UNL     1      46.683   7.715  13.101  0.00  0.00    +0.000 C 
BRANCH  18  19
ATOM     19  N   UNL     1      47.314   7.375  14.344  0.00  0.00    +0.000 N 
ATOM     20  C   UNL     1      48.572   6.826  14.384  0.00  0.00    +0.000 C 
ATOM     21  O   UNL     1      49.226   6.618  13.363  0.00  0.00    +0.000 OA
ATOM     22  H   UNL     1      46.720   7.329  15.166  0.00  0.00    +0.000 HD
BRANCH  20  23
ATOM     23  C   UNL     1      49.123   6.558  15.716  0.00  0.00    +0.000 A 
ATOM     24  C   UNL     1      50.155   7.346  16.208  0.00  0.00    +0.000 A 
ATOM     25  S   UNL     1      50.646   6.924  17.785  0.00  0.00    +0.000 S 
ATOM     26  C   UNL     1      49.532   5.640  17.847  0.00  0.00    +0.000 A 
ATOM     27  N   UNL     1      49.455   4.833  18.939  0.00  0.00    +0.000 NA
ATOM     28  C   UNL     1      48.586   3.883  18.841  0.00  0.00    +0.000 A 
ATOM     29  N   UNL     1      47.781   3.672  17.752  0.00  0.00    +0.000 N 
ATOM     30  C   UNL     1      47.799   4.480  16.642  0.00  0.00    +0.000 A 
ATOM     31  O   UNL     1      47.023   4.295  15.706  0.00  0.00    +0.000 OA
ATOM     32  C   UNL     1      48.778   5.553  16.692  0.00  0.00    +0.000 A 
ATOM     33  H   UNL     1      47.107   2.922  17.746  0.00  0.00    +0.000 HD
ENDBRANCH  20  23
ENDBRANCH  18  19
ENDBRANCH   4  18
TORSDOF 7
ENDMDL
MODEL 2
REMARK VINA RESULT:    -7.957      2.098      2.577
REMARK INTER + INTRA:         -12.039
REMARK INTER:                 -10.782
REMARK INTRA:                  -1.257
REMARK UNBOUND:                -1.058
REMARK  Name = 
REMARK  7 active torsions:
REMARK  status: ('A' for Active; 'I' for Inactive)
REMARK    1  A    between atoms: N_1  and  C_2
REMARK    2  A    between atoms: C_2  and  C_3
REMARK    3  A    between atoms: C_2  and  C_10
REMARK    4  A    between atoms: C_3  and  C_4
REMARK    5  A    between atoms: C_13  and  C_14
REMARK    6  A    between atoms: C_14  and  N_15
REMARK    7  A    between atoms: C_16  and  C_18
REMARK                            x       y       z     vdW  Elec       q    Type
REMARK                         _______ _______ _______ _____ _____    ______ ____
ROOT
ATOM      1  C   UNL     1      45.278   4.669  11.540  0.00  0.00    +0.000 A 
ATOM      2  C   UNL     1      45.733   4.244  12.804  0.00  0.00    +0.000 A 
ATOM      3  C   UNL     1      46.611   5.014  13.571  0.00  0.00    +0.000 A 
ATOM      4  C   UNL     1      47.091   6.231  13.084  0.00  0.00    +0.000 A 
ATOM      5  C   UNL     1      46.737   6.614  11.784  0.00  0.00    +0.000 A 
ATOM      6  C   UNL     1      45.841   5.846  11.024  0.00  0.00    +0.000 A 
ENDROOT
BRANCH   1   7
ATOM      7  C   UNL     1      44.253   3.815  10.783  0.00  0.00    +0.000 C 
BRANCH   7   8
ATOM      8  N   UNL     1      42.895   4.090  11.300  0.00  0.00    +0.000 NA
ATOM      9  H   UNL     1      42.207   3.594  10.740  0.00  0.00    +0.000 HD
ATOM     10  H   UNL     1      42.702   5.083  11.180  0.00  0.00    +0.000 HD
ENDBRANCH   7   8
BRANCH   7  11
ATOM     11  C   UNL     1      44.254   3.981   9.234  0.00  0.00    +0.000 C 
BRANCH  11  12
ATOM     12  C   UNL     1      45.326   3.193   8.502  0.00  0.00    +0.000 A 
ATOM     13  C   UNL     1      45.483   1.817   8.708  0.00  0.00    +0.000 A 
ATOM     14  C   UNL     1      46.450   1.136   7.981  0.00  0.00    +0.000 A 
ATOM     15  N   UNL     1      47.268   1.723   7.083  0.00  0.00    +0.000 NA
ATOM     16  C   UNL     1      47.109   3.051   6.900  0.00  0.00    +0.000 A 
ATOM     17  C   UNL     1      46.165   3.815   7.572  0.00  0.00    +0.000 A 
ENDBRANCH  11  12
ENDBRANCH   7  11
ENDBRANCH   1   7
BRANCH   4  18
ATOM     18  C   UNL     1      47.990   7.092  13.933  0.00  0.00    +0.000 C 
BRANCH  18  19
ATOM     19  N   UNL     1      47.928   6.717  15.318  0.00  0.00    +0.000 N 
ATOM     20  C   UNL     1      49.062   6.434  16.037  0.00  0.00    +0.000 C 
ATOM     21  O   UNL     1      50.186   6.510  15.540  0.00  0.00    +0.000 OA
ATOM     22  H   UNL     1      47.021   6.435  15.679  0.00  0.00    +0.000 HD
BRANCH  20  23
ATOM     23  C   UNL     1      48.871   6.100  17.451  0.00  0.00    +0.000 A 
ATOM     24  C   UNL     1      49.187   4.828  17.909  0.00  0.00    +0.000 A 
ATOM     25  S   UNL     1      48.944   4.623  19.584  0.00  0.00    +0.000 S 
ATOM     26  C   UNL     1      48.358   6.212  19.748  0.00  0.00    +0.000 A 
ATOM     27  N   UNL     1      47.936   6.682  20.953  0.00  0.00    +0.000 NA
ATOM     28  C   UNL     1      47.492   7.894  20.929  0.00  0.00    +0.000 A 
ATOM     29  N   UNL     1      47.440   8.682  19.808  0.00  0.00    +0.000 N 
ATOM     30  C   UNL     1      47.886   8.265  18.578  0.00  0.00    +0.000 A 
ATOM     31  O   UNL     1      47.876   9.018  17.607  0.00  0.00    +0.000 OA
ATOM     32  C   UNL     1      48.375   6.897  18.547  0.00  0.00    +0.000 A 
ATOM     33  H   UNL     1      47.099   9.630  19.860  0.00  0.00    +0.000 HD
ENDBRANCH  20  23
ENDBRANCH  18  19
ENDBRANCH   4  18
TORSDOF 7
ENDMDL
MODEL 3
REMARK VINA RESULT:    -7.872      1.629      2.188
REMARK INTER + INTRA:         -11.921
REMARK INTER:                 -10.697
REMARK INTRA:                  -1.224
REMARK UNBOUND:                -1.058
REMARK  Name = 
REMARK  7 active torsions:
REMARK  status: ('A' for Active; 'I' for Inactive)
REMARK    1  A    between atoms: N_1  and  C_2
REMARK    2  A    between atoms: C_2  and  C_3
REMARK    3  A    between atoms: C_2  and  C_10
REMARK    4  A    between atoms: C_3  and  C_4
REMARK    5  A    between atoms: C_13  and  C_14
REMARK    6  A    between atoms: C_14  and  N_15
REMARK    7  A    between atoms: C_16  and  C_18
REMARK                            x       y       z     vdW  Elec       q    Type
REMARK                         _______ _______ _______ _____ _____    ______ ____
ROOT
ATOM      1  C   UNL     1      45.284   4.672  11.639  0.00  0.00    +0.000 A 
ATOM      2  C   UNL     1      45.828   4.217  12.858  0.00  0.00    +0.000 A 
ATOM      3  C   UNL     1      46.787   4.952  13.560  0.00  0.00    +0.000 A 
ATOM      4  C   UNL     1      47.261   6.161  13.049  0.00  0.00    +0.000 A 
ATOM      5  C   UNL     1      46.814   6.572  11.787  0.00  0.00    +0.000 A 
ATOM      6  C   UNL     1      45.837   5.840  11.093  0.00  0.00    +0.000 A 
ENDROOT
BRANCH   1   7
ATOM      7  C   UNL     1      44.178   3.856  10.959  0.00  0.00    +0.000 C 
BRANCH   7   8
ATOM      8  N   UNL     1      42.869   4.192  11.560  0.00  0.00    +0.000 NA
ATOM      9  H   UNL     1      42.246   4.557  10.845  0.00  0.00    +0.000 HD
ATOM     10  H   UNL     1      43.008   4.945  12.232  0.00  0.00    +0.000 HD
ENDBRANCH   7   8
BRANCH   7  11
ATOM     11  C   UNL     1      44.084   4.013   9.412  0.00  0.00    +0.000 C 
BRANCH  11  12
ATOM     12  C   UNL     1      45.162   3.286   8.625  0.00  0.00    +0.000 A 
ATOM     13  C   UNL     1      46.013   3.975   7.754  0.00  0.00    +0.000 A 
ATOM     14  C   UNL     1      47.010   3.270   7.093  0.00  0.00    +0.000 A 
ATOM     15  N   UNL     1      47.208   1.942   7.228  0.00  0.00    +0.000 NA
ATOM     16  C   UNL     1      46.375   1.291   8.066  0.00  0.00    +0.000 A 
ATOM     17  C   UNL     1      45.357   1.909   8.778  0.00  0.00    +0.000 A 
ENDBRANCH  11  12
ENDBRANCH   7  11
ENDBRANCH   1   7
BRANCH   4  18
ATOM     18  C   UNL     1      48.250   6.986  13.833  0.00  0.00    +0.000 C 
BRANCH  18  19
ATOM     19  N   UNL     1      48.082   6.808  15.247  0.00  0.00    +0.000 N 
ATOM     20  C   UNL     1      48.913   7.423  16.151  0.00  0.00    +0.000 C 
ATOM     21  O   UNL     1      49.824   8.171  15.797  0.00  0.00    +0.000 OA
ATOM     22  H   UNL     1      47.494   6.038  15.549  0.00  0.00    +0.000 HD
BRANCH  20  23
ATOM     23  C   UNL     1      48.617   7.193  17.569  0.00  0.00    +0.000 A 
ATOM     24  C   UNL     1      48.162   8.241  18.358  0.00  0.00    +0.000 A 
ATOM     25  S   UNL     1      47.826   7.789  19.967  0.00  0.00    +0.000 S 
ATOM     26  C   UNL     1      48.327   6.189  19.680  0.00  0.00    +0.000 A 
ATOM     27  N   UNL     1      48.319   5.264  20.677  0.00  0.00    +0.000 NA
ATOM     28  C   UNL     1      48.748   4.098  20.328  0.00  0.00    +0.000 A 
ATOM     29  N   UNL     1      49.177   3.770  19.067  0.00  0.00    +0.000 N 
ATOM     30  C   UNL     1      49.170   4.659  18.020  0.00  0.00    +0.000 A 
ATOM     31  O   UNL     1      49.508   4.316  16.889  0.00  0.00    +0.000 OA
ATOM     32  C   UNL     1      48.716   5.996  18.368  0.00  0.00    +0.000 A 
ATOM     33  H   UNL     1      49.482   2.833  18.853  0.00  0.00    +0.000 HD
ENDBRANCH  20  23
ENDBRANCH  18  19
ENDBRANCH   4  18
TORSDOF 7
ENDMDL
MODEL 4
REMARK VINA RESULT:    -7.680      2.866      4.752
REMARK INTER + INTRA:         -11.656
REMARK INTER:                 -10.635
REMARK INTRA:                  -1.021
REMARK UNBOUND:                -1.058
REMARK  Name = 
REMARK  7 active torsions:
REMARK  status: ('A' for Active; 'I' for Inactive)
REMARK    1  A    between atoms: N_1  and  C_2
REMARK    2  A    between atoms: C_2  and  C_3
REMARK    3  A    between atoms: C_2  and  C_10
REMARK    4  A    between atoms: C_3  and  C_4
REMARK    5  A    between atoms: C_13  and  C_14
REMARK    6  A    between atoms: C_14  and  N_15
REMARK    7  A    between atoms: C_16  and  C_18
REMARK                            x       y       z     vdW  Elec       q    Type
REMARK                         _______ _______ _______ _____ _____    ______ ____
ROOT
ATOM      1  C   UNL     1      46.578   2.688   6.676  0.00  0.00    +0.000 A 
ATOM      2  C   UNL     1      45.995   1.853   7.651  0.00  0.00    +0.000 A 
ATOM      3  C   UNL     1      45.410   2.367   8.811  0.00  0.00    +0.000 A 
ATOM      4  C   UNL     1      45.413   3.742   9.052  0.00  0.00    +0.000 A 
ATOM      5  C   UNL     1      46.087   4.574   8.149  0.00  0.00    +0.000 A 
ATOM      6  C   UNL     1      46.658   4.056   6.976  0.00  0.00    +0.000 A 
ENDROOT
BRANCH   1   7
ATOM      7  C   UNL     1      47.133   2.066   5.388  0.00  0.00    +0.000 C 
BRANCH   7   8
ATOM      8  N   UNL     1      48.405   2.726   5.024  0.00  0.00    +0.000 NA
ATOM      9  H   UNL     1      49.188   2.189   5.386  0.00  0.00    +0.000 HD
ATOM     10  H   UNL     1      48.440   3.634   5.486  0.00  0.00    +0.000 HD
ENDBRANCH   7   8
BRANCH   7  11
ATOM     11  C   UNL     1      47.351   0.524   5.428  0.00  0.00    +0.000 C 
BRANCH  11  12
ATOM     12  C   UNL     1      46.770  -0.239   4.251  0.00  0.00    +0.000 A 
ATOM     13  C   UNL     1      46.242   0.431   3.142  0.00  0.00    +0.000 A 
ATOM     14  C   UNL     1      45.763  -0.315   2.073  0.00  0.00    +0.000 A 
ATOM     15  N   UNL     1      45.764  -1.663   2.036  0.00  0.00    +0.000 NA
ATOM     16  C   UNL     1      46.271  -2.295   3.115  0.00  0.00    +0.000 A 
ATOM     17  C   UNL     1      46.781  -1.638   4.226  0.00  0.00    +0.000 A 
ENDBRANCH  11  12
ENDBRANCH   7  11
ENDBRANCH   1   7
BRANCH   4  18
ATOM     18  C   UNL     1      44.730   4.305  10.272  0.00  0.00    +0.000 C 
BRANCH  18  19
ATOM     19  N   UNL     1      45.681   4.767  11.243  0.00  0.00    +0.000 N 
ATOM     20  C   UNL     1      45.816   6.101  11.538  0.00  0.00    +0.000 C 
ATOM     21  O   UNL     1      45.117   6.961  11.003  0.00  0.00    +0.000 OA
ATOM     22  H   UNL     1      46.406   4.114  11.526  0.00  0.00    +0.000 HD
BRANCH  20  23
ATOM     23  C   UNL     1      46.795   6.443  12.575  0.00  0.00    +0.000 A 
ATOM     24  C   UNL     1      47.607   7.557  12.417  0.00  0.00    +0.000 A 
ATOM     25  S   UNL     1      48.655   7.832  13.733  0.00  0.00    +0.000 S 
ATOM     26  C   UNL     1      48.096   6.441  14.538  0.00  0.00    +0.000 A 
ATOM     27  N   UNL     1      48.617   6.072  15.739  0.00  0.00    +0.000 NA
ATOM     28  C   UNL     1      48.121   4.983  16.224  0.00  0.00    +0.000 A 
ATOM     29  N   UNL     1      47.144   4.235  15.620  0.00  0.00    +0.000 N 
ATOM     30  C   UNL     1      46.564   4.586  14.426  0.00  0.00    +0.000 A 
ATOM     31  O   UNL     1      45.651   3.921  13.940  0.00  0.00    +0.000 OA
ATOM     32  C   UNL     1      47.105   5.794  13.826  0.00  0.00    +0.000 A 
ATOM     33  H   UNL     1      46.784   3.403  16.062  0.00  0.00    +0.000 HD
ENDBRANCH  20  23
ENDBRANCH  18  19
ENDBRANCH   4  18
TORSDOF 7
ENDMDL
MODEL 5
REMARK VINA RESULT:    -7.499      3.761      4.550
REMARK INTER + INTRA:         -11.407
REMARK INTER:                 -10.080
REMARK INTRA:                  -1.327
REMARK UNBOUND:                -1.058
REMARK  Name = 
REMARK  7 active torsions:
REMARK  status: ('A' for Active; 'I' for Inactive)
REMARK    1  A    between atoms: N_1  and  C_2
REMARK    2  A    between atoms: C_2  and  C_3
REMARK    3  A    between atoms: C_2  and  C_10
REMARK    4  A    between atoms: C_3  and  C_4
REMARK    5  A    between atoms: C_13  and  C_14
REMARK    6  A    between atoms: C_14  and  N_15
REMARK    7  A    between atoms: C_16  and  C_18
REMARK                            x       y       z     vdW  Elec       q    Type
REMARK                         _______ _______ _______ _____ _____    ______ ____
ROOT
ATOM      1  C   UNL     1      44.973   4.457  11.036  0.00  0.00    +0.000 A 
ATOM      2  C   UNL     1      44.557   4.709  12.359  0.00  0.00    +0.000 A 
ATOM      3  C   UNL     1      44.706   5.964  12.955  0.00  0.00    +0.000 A 
ATOM      4  C   UNL     1      45.307   7.010  12.254  0.00  0.00    +0.000 A 
ATOM      5  C   UNL     1      45.827   6.746  10.981  0.00  0.00    +0.000 A 
ATOM      6  C   UNL     1      45.659   5.488  10.378  0.00  0.00    +0.000 A 
ENDROOT
BRANCH   1   7
ATOM      7  C   UNL     1      44.709   3.080  10.414  0.00  0.00    +0.000 C 
BRANCH   7   8
ATOM      8  N   UNL     1      43.509   2.475  11.032  0.00  0.00    +0.000 NA
ATOM      9  H   UNL     1      43.649   2.381  12.034  0.00  0.00    +0.000 HD
ATOM     10  H   UNL     1      43.402   1.530  10.666  0.00  0.00    +0.000 HD
ENDBRANCH   7   8
BRANCH   7  11
ATOM     11  C   UNL     1      44.548   3.064   8.864  0.00  0.00    +0.000 C 
BRANCH  11  12
ATOM     12  C   UNL     1      45.759   2.561   8.097  0.00  0.00    +0.000 A 
ATOM     13  C   UNL     1      46.554   3.433   7.344  0.00  0.00    +0.000 A 
ATOM     14  C   UNL     1      47.675   2.929   6.697  0.00  0.00    +0.000 A 
ATOM     15  N   UNL     1      48.048   1.634   6.739  0.00  0.00    +0.000 NA
ATOM     16  C   UNL     1      47.268   0.804   7.464  0.00  0.00    +0.000 A 
ATOM     17  C   UNL     1      46.135   1.215   8.152  0.00  0.00    +0.000 A 
ENDBRANCH  11  12
ENDBRANCH   7  11
ENDBRANCH   1   7
BRANCH   4  18
ATOM     18  C   UNL     1      45.415   8.381  12.872  0.00  0.00    +0.000 C 
BRANCH  18  19
ATOM     19  N   UNL     1      46.775   8.841  12.899  0.00  0.00    +0.000 N 
ATOM     20  C   UNL     1      47.179   9.929  12.166  0.00  0.00    +0.000 C 
ATOM     21  O   UNL     1      46.395  10.575  11.470  0.00  0.00    +0.000 OA
ATOM     22  H   UNL     1      47.470   8.206  13.280  0.00  0.00    +0.000 HD
BRANCH  20  23
ATOM     23  C   UNL     1      48.584  10.324  12.307  0.00  0.00    +0.000 A 
ATOM     24  C   UNL     1      48.902  11.629  12.660  0.00  0.00    +0.000 A 
ATOM     25  S   UNL     1      50.577  11.904  12.822  0.00  0.00    +0.000 S 
ATOM     26  C   UNL     1      50.938  10.303  12.375  0.00  0.00    +0.000 A 
ATOM     27  N   UNL     1      52.227   9.876  12.284  0.00  0.00    +0.000 NA
ATOM     28  C   UNL     1      52.357   8.647  11.909  0.00  0.00    +0.000 A 
ATOM     29  N   UNL     1      51.314   7.804  11.626  0.00  0.00    +0.000 N 
ATOM     30  C   UNL     1      49.998   8.178  11.738  0.00  0.00    +0.000 A 
ATOM     31  O   UNL     1      49.087   7.379  11.530  0.00  0.00    +0.000 OA
ATOM     32  C   UNL     1      49.797   9.562  12.135  0.00  0.00    +0.000 A 
ATOM     33  H   UNL     1      51.483   6.846  11.357  0.00  0.00    +0.000 HD
ENDBRANCH  20  23
ENDBRANCH  18  19
ENDBRANCH   4  18
TORSDOF 7
ENDMDL
MODEL 6
REMARK VINA RESULT:    -7.411      2.921      5.228
REMARK INTER + INTRA:         -11.286
REMARK INTER:                 -10.549
REMARK INTRA:                  -0.737
REMARK UNBOUND:                -1.058
REMARK  Name = 
REMARK  7 active torsions:
REMARK  status: ('A' for Active; 'I' for Inactive)
REMARK    1  A    between atoms: N_1  and  C_2
REMARK    2  A    between atoms: C_2  and  C_3
REMARK    3  A    between atoms: C_2  and  C_10
REMARK    4  A    between atoms: C_3  and  C_4
REMARK    5  A    between atoms: C_13  and  C_14
REMARK    6  A    between atoms: C_14  and  N_15
REMARK    7  A    between atoms: C_16  and  C_18
REMARK                            x       y       z     vdW  Elec       q    Type
REMARK                         _______ _______ _______ _____ _____    ______ ____
ROOT
ATOM      1  C   UNL     1      46.628   2.630   7.077  0.00  0.00    +0.000 A 
ATOM      2  C   UNL     1      45.986   1.810   8.026  0.00  0.00    +0.000 A 
ATOM      3  C   UNL     1      45.191   2.341   9.046  0.00  0.00    +0.000 A 
ATOM      4  C   UNL     1      45.034   3.722   9.170  0.00  0.00    +0.000 A 
ATOM      5  C   UNL     1      45.755   4.554   8.304  0.00  0.00    +0.000 A 
ATOM      6  C   UNL     1      46.539   4.017   7.270  0.00  0.00    +0.000 A 
ENDROOT
BRANCH   1   7
ATOM      7  C   UNL     1      47.422   1.981   5.936  0.00  0.00    +0.000 C 
BRANCH   7   8
ATOM      8  N   UNL     1      48.846   2.364   6.038  0.00  0.00    +0.000 NA
ATOM      9  H   UNL     1      49.434   1.560   5.835  0.00  0.00    +0.000 HD
ATOM     10  H   UNL     1      49.040   2.627   7.003  0.00  0.00    +0.000 HD
ENDBRANCH   7   8
BRANCH   7  11
ATOM     11  C   UNL     1      47.316   0.429   5.845  0.00  0.00    +0.000 C 
BRANCH  11  12
ATOM     12  C   UNL     1      46.848  -0.106   4.502  0.00  0.00    +0.000 A 
ATOM     13  C   UNL     1      46.884  -1.475   4.215  0.00  0.00    +0.000 A 
ATOM     14  C   UNL     1      46.405  -1.916   2.989  0.00  0.00    +0.000 A 
ATOM     15  N   UNL     1      45.908  -1.099   2.038  0.00  0.00    +0.000 NA
ATOM     16  C   UNL     1      45.885   0.219   2.327  0.00  0.00    +0.000 A 
ATOM     17  C   UNL     1      46.333   0.754   3.527  0.00  0.00    +0.000 A 
ENDBRANCH  11  12
ENDBRANCH   7  11
ENDBRANCH   1   7
BRANCH   4  18
ATOM     18  C   UNL     1      44.130   4.296  10.230  0.00  0.00    +0.000 C 
BRANCH  18  19
ATOM     19  N   UNL     1      44.642   5.534  10.747  0.00  0.00    +0.000 N 
ATOM     20  C   UNL     1      45.207   5.611  11.995  0.00  0.00    +0.000 C 
ATOM     21  O   UNL     1      45.323   4.625  12.722  0.00  0.00    +0.000 OA
ATOM     22  H   UNL     1      44.361   6.385  10.269  0.00  0.00    +0.000 HD
BRANCH  20  23
ATOM     23  C   UNL     1      45.727   6.923  12.395  0.00  0.00    +0.000 A 
ATOM     24  C   UNL     1      45.018   8.073  12.075  0.00  0.00    +0.000 A 
ATOM     25  S   UNL     1      45.743   9.505  12.651  0.00  0.00    +0.000 S 
ATOM     26  C   UNL     1      47.056   8.642  13.303  0.00  0.00    +0.000 A 
ATOM     27  N   UNL     1      48.077   9.290  13.927  0.00  0.00    +0.000 NA
ATOM     28  C   UNL     1      49.020   8.516  14.350  0.00  0.00    +0.000 A 
ATOM     29  N   UNL     1      49.029   7.151  14.215  0.00  0.00    +0.000 N 
ATOM     30  C   UNL     1      48.006   6.452  13.625  0.00  0.00    +0.000 A 
ATOM     31  O   UNL     1      48.021   5.224  13.571  0.00  0.00    +0.000 OA
ATOM     32  C   UNL     1      46.928   7.280  13.110  0.00  0.00    +0.000 A 
ATOM     33  H   UNL     1      49.788   6.601  14.587  0.00  0.00    +0.000 HD
ENDBRANCH  20  23
ENDBRANCH  18  19
ENDBRANCH   4  18
TORSDOF 7
ENDMDL
MODEL 7
REMARK VINA RESULT:    -6.915      2.187      3.009
REMARK INTER + INTRA:         -10.601
REMARK INTER:                  -9.440
REMARK INTRA:                  -1.162
REMARK UNBOUND:                -1.058
REMARK  Name = 
REMARK  7 active torsions:
REMARK  status: ('A' for Active; 'I' for Inactive)
REMARK    1  A    between atoms: N_1  and  C_2
REMARK    2  A    between atoms: C_2  and  C_3
REMARK    3  A    between atoms: C_2  and  C_10
REMARK    4  A    between atoms: C_3  and  C_4
REMARK    5  A    between atoms: C_13  and  C_14
REMARK    6  A    between atoms: C_14  and  N_15
REMARK    7  A    between atoms: C_16  and  C_18
REMARK                            x       y       z     vdW  Elec       q    Type
REMARK                         _______ _______ _______ _____ _____    ______ ____
ROOT
ATOM      1  C   UNL     1      45.133   5.483  12.808  0.00  0.00    +0.000 A 
ATOM      2  C   UNL     1      46.089   4.690  13.475  0.00  0.00    +0.000 A 
ATOM      3  C   UNL     1      47.266   5.233  13.996  0.00  0.00    +0.000 A 
ATOM      4  C   UNL     1      47.544   6.592  13.842  0.00  0.00    +0.000 A 
ATOM      5  C   UNL     1      46.659   7.371  13.086  0.00  0.00    +0.000 A 
ATOM      6  C   UNL     1      45.469   6.825  12.578  0.00  0.00    +0.000 A 
ENDROOT
BRANCH   1   7
ATOM      7  C   UNL     1      43.825   4.840  12.329  0.00  0.00    +0.000 C 
BRANCH   7   8
ATOM      8  N   UNL     1      42.693   5.360  13.124  0.00  0.00    +0.000 NA
ATOM      9  H   UNL     1      43.043   5.939  13.884  0.00  0.00    +0.000 HD
ATOM     10  H   UNL     1      42.216   4.571  13.559  0.00  0.00    +0.000 HD
ENDBRANCH   7   8
BRANCH   7  11
ATOM     11  C   UNL     1      43.508   5.014  10.814  0.00  0.00    +0.000 C 
BRANCH  11  12
ATOM     12  C   UNL     1      44.288   4.100   9.884  0.00  0.00    +0.000 A 
ATOM     13  C   UNL     1      45.108   4.619   8.876  0.00  0.00    +0.000 A 
ATOM     14  C   UNL     1      45.833   3.741   8.082  0.00  0.00    +0.000 A 
ATOM     15  N   UNL     1      45.791   2.399   8.213  0.00  0.00    +0.000 NA
ATOM     16  C   UNL     1      44.991   1.913   9.185  0.00  0.00    +0.000 A 
ATOM     17  C   UNL     1      44.236   2.710  10.034  0.00  0.00    +0.000 A 
ENDBRANCH  11  12
ENDBRANCH   7  11
ENDBRANCH   1   7
BRANCH   4  18
ATOM     18  C   UNL     1      48.783   7.193  14.455  0.00  0.00    +0.000 C 
BRANCH  18  19
ATOM     19  N   UNL     1      49.175   6.494  15.646  0.00  0.00    +0.000 N 
ATOM     20  C   UNL     1      49.664   7.161  16.742  0.00  0.00    +0.000 C 
ATOM     21  O   UNL     1      49.769   8.387  16.766  0.00  0.00    +0.000 OA
ATOM     22  H   UNL     1      49.305   5.490  15.571  0.00  0.00    +0.000 HD
BRANCH  20  23
ATOM     23  C   UNL     1      49.994   6.340  17.911  0.00  0.00    +0.000 A 
ATOM     24  C   UNL     1      51.241   5.739  18.003  0.00  0.00    +0.000 A 
ATOM     25  S   UNL     1      51.472   4.858  19.444  0.00  0.00    +0.000 S 
ATOM     26  C   UNL     1      49.892   5.205  19.972  0.00  0.00    +0.000 A 
ATOM     27  N   UNL     1      49.426   4.713  21.152  0.00  0.00    +0.000 NA
ATOM     28  C   UNL     1      48.203   5.032  21.417  0.00  0.00    +0.000 A 
ATOM     29  N   UNL     1      47.407   5.807  20.612  0.00  0.00    +0.000 N 
ATOM     30  C   UNL     1      47.845   6.354  19.432  0.00  0.00    +0.000 A 
ATOM     31  O   UNL     1      47.123   7.091  18.764  0.00  0.00    +0.000 OA
ATOM     32  C   UNL     1      49.211   6.005  19.076  0.00  0.00    +0.000 A 
ATOM     33  H   UNL     1      46.465   6.037  20.887  0.00  0.00    +0.000 HD
ENDBRANCH  20  23
ENDBRANCH  18  19
ENDBRANCH   4  18
TORSDOF 7
ENDMDL
MODEL 8
REMARK VINA RESULT:    -6.828      1.871      3.225
REMARK INTER + INTRA:         -10.482
REMARK INTER:                  -9.933
REMARK INTRA:                  -0.548
REMARK UNBOUND:                -1.058
REMARK  Name = 
REMARK  7 active torsions:
REMARK  status: ('A' for Active; 'I' for Inactive)
REMARK    1  A    between atoms: N_1  and  C_2
REMARK    2  A    between atoms: C_2  and  C_3
REMARK    3  A    between atoms: C_2  and  C_10
REMARK    4  A    between atoms: C_3  and  C_4
REMARK    5  A    between atoms: C_13  and  C_14
REMARK    6  A    between atoms: C_14  and  N_15
REMARK    7  A    between atoms: C_16  and  C_18
REMARK                            x       y       z     vdW  Elec       q    Type
REMARK                         _______ _______ _______ _____ _____    ______ ____
ROOT
ATOM      1  C   UNL     1      45.476   4.632  10.996  0.00  0.00    +0.000 A 
ATOM      2  C   UNL     1      45.447   3.383  11.649  0.00  0.00    +0.000 A 
ATOM      3  C   UNL     1      45.913   3.220  12.956  0.00  0.00    +0.000 A 
ATOM      4  C   UNL     1      46.457   4.302  13.650  0.00  0.00    +0.000 A 
ATOM      5  C   UNL     1      46.595   5.522  12.977  0.00  0.00    +0.000 A 
ATOM      6  C   UNL     1      46.109   5.687  11.670  0.00  0.00    +0.000 A 
ENDROOT
BRANCH   1   7
ATOM      7  C   UNL     1      44.875   4.760   9.591  0.00  0.00    +0.000 C 
BRANCH   7   8
ATOM      8  N   UNL     1      45.817   5.483   8.710  0.00  0.00    +0.000 NA
ATOM      9  H   UNL     1      46.090   6.360   9.145  0.00  0.00    +0.000 HD
ATOM     10  H   UNL     1      45.328   5.727   7.850  0.00  0.00    +0.000 HD
ENDBRANCH   7   8
BRANCH   7  11
ATOM     11  C   UNL     1      44.467   3.418   8.911  0.00  0.00    +0.000 C 
BRANCH  11  12
ATOM     12  C   UNL     1      45.553   2.763   8.076  0.00  0.00    +0.000 A 
ATOM     13  C   UNL     1      46.048   1.494   8.396  0.00  0.00    +0.000 A 
ATOM     14  C   UNL     1      47.010   0.922   7.574  0.00  0.00    +0.000 A 
ATOM     15  N   UNL     1      47.514   1.522   6.476  0.00  0.00    +0.000 NA
ATOM     16  C   UNL     1      47.031   2.748   6.184  0.00  0.00    +0.000 A 
ATOM     17  C   UNL     1      46.064   3.397   6.938  0.00  0.00    +0.000 A 
ENDBRANCH  11  12
ENDBRANCH   7  11
ENDBRANCH   1   7
BRANCH   4  18
ATOM     18  C   UNL     1      46.905   4.144  15.080  0.00  0.00    +0.000 C 
BRANCH  18  19
ATOM     19  N   UNL     1      47.489   5.354  15.586  0.00  0.00    +0.000 N 
ATOM     20  C   UNL     1      48.414   5.335  16.601  0.00  0.00    +0.000 C 
ATOM     21  O   UNL     1      48.804   4.285  17.109  0.00  0.00    +0.000 OA
ATOM     22  H   UNL     1      47.028   6.226  15.344  0.00  0.00    +0.000 HD
BRANCH  20  23
ATOM     23  C   UNL     1      48.964   6.633  17.005  0.00  0.00    +0.000 A 
ATOM     24  C   UNL     1      48.917   7.019  18.337  0.00  0.00    +0.000 A 
ATOM     25  S   UNL     1      49.638   8.534  18.637  0.00  0.00    +0.000 S 
ATOM     26  C   UNL     1      49.993   8.752  16.987  0.00  0.00    +0.000 A 
ATOM     27  N   UNL     1      50.599   9.888  16.546  0.00  0.00    +0.000 NA
ATOM     28  C   UNL     1      50.784   9.933  15.269  0.00  0.00    +0.000 A 
ATOM     29  N   UNL     1      50.426   8.939  14.394  0.00  0.00    +0.000 N 
ATOM     30  C   UNL     1      49.845   7.762  14.796  0.00  0.00    +0.000 A 
ATOM     31  O   UNL     1      49.588   6.870  13.990  0.00  0.00    +0.000 OA
ATOM     32  C   UNL     1      49.593   7.672  16.224  0.00  0.00    +0.000 A 
ATOM     33  H   UNL     1      50.618   9.028  13.408  0.00  0.00    +0.000 HD
ENDBRANCH  20  23
ENDBRANCH  18  19
ENDBRANCH   4  18
TORSDOF 7
ENDMDL
MODEL 9
REMARK VINA RESULT:    -6.742      2.852      4.084
REMARK INTER + INTRA:         -10.363
REMARK INTER:                  -9.118
REMARK INTRA:                  -1.245
REMARK UNBOUND:                -1.058
REMARK  Name = 
REMARK  7 active torsions:
REMARK  status: ('A' for Active; 'I' for Inactive)
REMARK    1  A    between atoms: N_1  and  C_2
REMARK    2  A    between atoms: C_2  and  C_3
REMARK    3  A    between atoms: C_2  and  C_10
REMARK    4  A    between atoms: C_3  and  C_4
REMARK    5  A    between atoms: C_13  and  C_14
REMARK    6  A    between atoms: C_14  and  N_15
REMARK    7  A    between atoms: C_16  and  C_18
REMARK                            x       y       z     vdW  Elec       q    Type
REMARK                         _______ _______ _______ _____ _____    ______ ____
ROOT
ATOM      1  C   UNL     1      45.205   4.878  11.245  0.00  0.00    +0.000 A 
ATOM      2  C   UNL     1      45.837   4.727  12.496  0.00  0.00    +0.000 A 
ATOM      3  C   UNL     1      46.274   5.825  13.241  0.00  0.00    +0.000 A 
ATOM      4  C   UNL     1      46.120   7.120  12.744  0.00  0.00    +0.000 A 
ATOM      5  C   UNL     1      45.597   7.280  11.454  0.00  0.00    +0.000 A 
ATOM      6  C   UNL     1      45.142   6.175  10.716  0.00  0.00    +0.000 A 
ENDROOT
BRANCH   1   7
ATOM      7  C   UNL     1      44.678   3.636  10.514  0.00  0.00    +0.000 C 
BRANCH   7   8
ATOM      8  N   UNL     1      43.368   3.245  11.076  0.00  0.00    +0.000 NA
ATOM      9  H   UNL     1      42.976   2.479  10.534  0.00  0.00    +0.000 HD
ATOM     10  H   UNL     1      42.727   4.030  10.971  0.00  0.00    +0.000 HD
ENDBRANCH   7   8
BRANCH   7  11
ATOM     11  C   UNL     1      44.551   3.772   8.967  0.00  0.00    +0.000 C 
BRANCH  11  12
ATOM     12  C   UNL     1      45.583   2.997   8.166  0.00  0.00    +0.000 A 
ATOM     13  C   UNL     1      45.890   1.666   8.473  0.00  0.00    +0.000 A 
ATOM     14  C   UNL     1      46.808   0.990   7.681  0.00  0.00    +0.000 A 
ATOM     15  N   UNL     1      47.442   1.543   6.626  0.00  0.00    +0.000 NA
ATOM     16  C   UNL     1      47.140   2.828   6.346  0.00  0.00    +0.000 A 
ATOM     17  C   UNL     1      46.230   3.582   7.072  0.00  0.00    +0.000 A 
ENDBRANCH  11  12
ENDBRANCH   7  11
ENDBRANCH   1   7
BRANCH   4  18
ATOM     18  C   UNL     1      46.535   8.311  13.570  0.00  0.00    +0.000 C 
BRANCH  18  19
ATOM     19  N   UNL     1      47.936   8.589  13.428  0.00  0.00    +0.000 N 
ATOM     20  C   UNL     1      48.846   8.189  14.375  0.00  0.00    +0.000 C 
ATOM     21  O   UNL     1      48.512   7.557  15.377  0.00  0.00    +0.000 OA
ATOM     22  H   UNL     1      48.201   9.287  12.741  0.00  0.00    +0.000 HD
BRANCH  20  23
ATOM     23  C   UNL     1      50.253   8.499  14.099  0.00  0.00    +0.000 A 
ATOM     24  C   UNL     1      51.057   9.016  15.105  0.00  0.00    +0.000 A 
ATOM     25  S   UNL     1      52.671   9.278  14.625  0.00  0.00    +0.000 S 
ATOM     26  C   UNL     1      52.340   8.759  13.039  0.00  0.00    +0.000 A 
ATOM     27  N   UNL     1      53.310   8.763  12.084  0.00  0.00    +0.000 NA
ATOM     28  C   UNL     1      52.915   8.370  10.920  0.00  0.00    +0.000 A 
ATOM     29  N   UNL     1      51.638   7.964  10.625  0.00  0.00    +0.000 N 
ATOM     30  C   UNL     1      50.636   7.909  11.562  0.00  0.00    +0.000 A 
ATOM     31  O   UNL     1      49.518   7.487  11.276  0.00  0.00    +0.000 OA
ATOM     32  C   UNL     1      51.024   8.364  12.887  0.00  0.00    +0.000 A 
ATOM     33  H   UNL     1      51.398   7.649   9.698  0.00  0.00    +0.000 HD
ENDBRANCH  20  23
ENDBRANCH  18  19
ENDBRANCH   4  18
TORSDOF 7
ENDMDL
