MODEL 1
REMARK VINA RESULT:    -8.142      0.000      0.000
REMARK INTER + INTRA:         -13.124
REMARK INTER:                 -12.188
REMARK INTRA:                  -0.936
REMARK UNBOUND:                -0.936
REMARK  Name = 
REMARK  10 active torsions:
REMARK  status: ('A' for Active; 'I' for Inactive)
REMARK    1  A    between atoms: C_1  and  N_2
REMARK    2  A    between atoms: C_4  and  C_5
REMARK    3  A    between atoms: N_7  and  C_8
REMARK    4  A    between atoms: C_8  and  C_9
REMARK    5  A    between atoms: C_12  and  C_13
REMARK    6  A    between atoms: C_13  and  N_14
REMARK    7  A    between atoms: N_14  and  CA_15
REMARK    8  A    between atoms: CA_15  and  C_16
REMARK    9  A    between atoms: CA_15  and  C_18
REMARK   10  A    between atoms: C_16  and  O_17
REMARK                            x       y       z     vdW  Elec       q    Type
REMARK                         _______ _______ _______ _____ _____    ______ ____
ROOT
ATOM      1  C   UNL     1      46.430   7.943  12.975  0.00  0.00    +0.000 A 
ATOM      2  C   UNL     1      45.635   8.613  12.036  0.00  0.00    +0.000 A 
ATOM      3  C   UNL     1      44.572   7.956  11.408  0.00  0.00    +0.000 A 
ATOM      4  C   UNL     1      44.277   6.621  11.714  0.00  0.00    +0.000 A 
ATOM      5  C   UNL     1      45.075   5.953  12.654  0.00  0.00    +0.000 A 
ATOM      6  C   UNL     1      46.136   6.610  13.282  0.00  0.00    +0.000 A 
ENDROOT
BRANCH   1   7
ATOM      7  C   UNL     1      47.570   8.648  13.658  0.00  0.00    +0.000 C 
BRANCH   7  10
ATOM      8  C   UNL     1      49.010   7.171  14.960  0.00  0.00    +0.000 C 
ATOM      9  O   UNL     1      49.649   6.872  13.962  0.00  0.00    +0.000 OA
ATOM     10  N   UNL     1      47.923   8.017  14.908  0.00  0.00    +0.000 N 
ATOM     11  H   UNL     1      47.475   8.324  15.758  0.00  0.00    +0.000 HD
BRANCH   8  15
ATOM     12  C   UNL     1      50.924   6.887  19.558  0.00  0.00    +0.000 C 
ATOM     13  N   UNL     1      50.192   6.557  18.356  0.00  0.00    +0.000 N 
ATOM     14  C   UNL     1      50.173   7.290  17.202  0.00  0.00    +0.000 A 
ATOM     15  C   UNL     1      49.332   6.658  16.289  0.00  0.00    +0.000 A 
ATOM     16  C   UNL     1      48.837   5.471  16.942  0.00  0.00    +0.000 A 
ATOM     17  C   UNL     1      48.010   4.381  16.674  0.00  0.00    +0.000 A 
ATOM     18 CL   UNL     1      47.298   4.156  15.158  0.00  0.00    +0.000 Cl
ATOM     19  N   UNL     1      47.787   3.411  17.581  0.00  0.00    +0.000 NA
ATOM     20  C   UNL     1      48.392   3.538  18.768  0.00  0.00    +0.000 A 
ATOM     21  N   UNL     1      49.211   4.518  19.169  0.00  0.00    +0.000 NA
ATOM     22  C   UNL     1      49.398   5.452  18.215  0.00  0.00    +0.000 A 
ENDBRANCH   8  15
ENDBRANCH   7  10
ENDBRANCH   1   7
BRANCH   4  23
ATOM     23  C   UNL     1      43.085   5.920  11.098  0.00  0.00    +0.000 C 
BRANCH  23  24
ATOM     24  N   UNL     1      43.487   5.031  10.009  0.00  0.00    +0.000 NA
ATOM     25  H   UNL     1      44.036   5.585   9.347  0.00  0.00    +0.000 HD
BRANCH  24  26
ATOM     26  CA  UNL     1      44.353   3.912  10.458  0.00  0.00    +0.000 C 
BRANCH  26  27
ATOM     27  C   UNL     1      45.189   3.396   9.287  0.00  0.00    +0.000 A 
ATOM     28  C   UNL     1      45.395   2.020   9.110  0.00  0.00    +0.000 A 
ATOM     29  C   UNL     1      46.162   1.544   8.041  0.00  0.00    +0.000 A 
ATOM     30  C   UNL     1      46.731   2.435   7.133  0.00  0.00    +0.000 A 
ATOM     31  C   UNL     1      46.526   3.803   7.284  0.00  0.00    +0.000 A 
ATOM     32  C   UNL     1      45.751   4.278   8.342  0.00  0.00    +0.000 A 
ENDBRANCH  26  27
BRANCH  26  33
ATOM     33  C   UNL     1      43.548   2.752  11.109  0.00  0.00    +0.000 C 
BRANCH  33  34
ATOM     34  O   UNL     1      43.921   2.532  12.470  0.00  0.00    +0.000 OA
ATOM     35  H   UNL     1      44.615   1.846  12.444  0.00  0.00    +0.000 HD
ENDBRANCH  33  34
ENDBRANCH  26  33
ENDBRANCH  24  26
ENDBRANCH  23  24
ENDBRANCH   4  23
TORSDOF 9
ENDMDL
MODEL 2
REMARK VINA RESULT:    -7.861      2.027      2.713
REMARK INTER + INTRA:         -12.703
REMARK INTER:                 -11.720
REMARK INTRA:                  -0.983
REMARK UNBOUND:                -0.936
REMARK  Name = 
REMARK  10 active torsions:
REMARK  status: ('A' for Active; 'I' for Inactive)
REMARK    1  A    between atoms: C_1  and  N_2
REMARK    2  A    between atoms: C_4  and  C_5
REMARK    3  A    between atoms: N_7  and  C_8
REMARK    4  A    between atoms: C_8  and  C_9
REMARK    5  A    between atoms: C_12  and  C_13
REMARK    6  A    between atoms: C_13  and  N_14
REMARK    7  A    between atoms: N_14  and  CA_15
REMARK    8  A    between atoms: CA_15  and  C_16
REMARK    9  A    between atoms: CA_15  and  C_18
REMARK   10  A    between atoms: C_16  and  O_17
REMARK                            x       y       z     vdW  Elec       q    Type
REMARK                         _______ _______ _______ _____ _____    ______ ____
ROOT
ATOM      1  C   UNL     1      47.090   6.272  13.183  0.00  0.00    +0.000 A 
ATOM      2  C   UNL     1      46.894   6.924  11.958  0.00  0.00    +0.000 A 
ATOM      3  C   UNL     1      45.735   6.697  11.211  0.00  0.00    +0.000 A 
ATOM      4  C   UNL     1      44.744   5.823  11.678  0.00  0.00    +0.000 A 
ATOM      5  C   UNL     1      44.943   5.172  12.903  0.00  0.00    +0.000 A 
ATOM      6  C   UNL     1      46.101   5.399  13.651  0.00  0.00    +0.000 A 
ENDROOT
BRANCH   1   7
ATOM      7  C   UNL     1      48.333   6.519  13.994  0.00  0.00    +0.000 C 
BRANCH   7  10
ATOM      8  C   UNL     1      49.154   6.340  16.284  0.00  0.00    +0.000 C 
ATOM      9  O   UNL     1      50.313   6.338  15.897  0.00  0.00    +0.000 OA
ATOM     10  N   UNL     1      48.089   6.382  15.410  0.00  0.00    +0.000 N 
ATOM     11  H   UNL     1      47.147   6.482  15.759  0.00  0.00    +0.000 HD
BRANCH   8  15
ATOM     12  C   UNL     1      48.588   4.644  20.942  0.00  0.00    +0.000 C 
ATOM     13  N   UNL     1      48.559   5.515  19.788  0.00  0.00    +0.000 N 
ATOM     14  C   UNL     1      48.941   5.176  18.519  0.00  0.00    +0.000 A 
ATOM     15  C   UNL     1      48.793   6.292  17.699  0.00  0.00    +0.000 A 
ATOM     16  C   UNL     1      48.278   7.349  18.535  0.00  0.00    +0.000 A 
ATOM     17  C   UNL     1      47.877   8.680  18.432  0.00  0.00    +0.000 A 
ATOM     18 CL   UNL     1      47.863   9.495  16.952  0.00  0.00    +0.000 Cl
ATOM     19  N   UNL     1      47.412   9.371  19.491  0.00  0.00    +0.000 NA
ATOM     20  C   UNL     1      47.355   8.726  20.661  0.00  0.00    +0.000 A 
ATOM     21  N   UNL     1      47.699   7.457  20.914  0.00  0.00    +0.000 NA
ATOM     22  C   UNL     1      48.149   6.819  19.815  0.00  0.00    +0.000 A 
ENDBRANCH   8  15
ENDBRANCH   7  10
ENDBRANCH   1   7
BRANCH   4  23
ATOM     23  C   UNL     1      43.451   5.624  10.916  0.00  0.00    +0.000 C 
BRANCH  23  24
ATOM     24  N   UNL     1      43.615   4.673   9.817  0.00  0.00    +0.000 NA
ATOM     25  H   UNL     1      44.060   5.172   9.043  0.00  0.00    +0.000 HD
BRANCH  24  26
ATOM     26  CA  UNL     1      44.497   3.530  10.161  0.00  0.00    +0.000 C 
BRANCH  26  27
ATOM     27  C   UNL     1      45.410   3.202   8.979  0.00  0.00    +0.000 A 
ATOM     28  C   UNL     1      45.892   4.223   8.146  0.00  0.00    +0.000 A 
ATOM     29  C   UNL     1      46.725   3.927   7.063  0.00  0.00    +0.000 A 
ATOM     30  C   UNL     1      47.092   2.608   6.797  0.00  0.00    +0.000 A 
ATOM     31  C   UNL     1      46.636   1.584   7.621  0.00  0.00    +0.000 A 
ATOM     32  C   UNL     1      45.815   1.880   8.710  0.00  0.00    +0.000 A 
ENDBRANCH  26  27
BRANCH  26  33
ATOM     33  C   UNL     1      43.704   2.270  10.606  0.00  0.00    +0.000 C 
BRANCH  33  34
ATOM     34  O   UNL     1      42.827   2.542  11.700  0.00  0.00    +0.000 OA
ATOM     35  H   UNL     1      42.771   3.515  11.755  0.00  0.00    +0.000 HD
ENDBRANCH  33  34
ENDBRANCH  26  33
ENDBRANCH  24  26
ENDBRANCH  23  24
ENDBRANCH   4  23
TORSDOF 9
ENDMDL
MODEL 3
REMARK VINA RESULT:    -7.802      1.657      2.170
REMARK INTER + INTRA:         -12.615
REMARK INTER:                 -11.499
REMARK INTRA:                  -1.115
REMARK UNBOUND:                -0.936
REMARK  Name = 
REMARK  10 active torsions:
REMARK  status: ('A' for Active; 'I' for Inactive)
REMARK    1  A    between atoms: C_1  and  N_2
REMARK    2  A    between atoms: C_4  and  C_5
REMARK    3  A    between atoms: N_7  and  C_8
REMARK    4  A    between atoms: C_8  and  C_9
REMARK    5  A    between atoms: C_12  and  C_13
REMARK    6  A    between atoms: C_13  and  N_14
REMARK    7  A    between atoms: N_14  and  CA_15
REMARK    8  A    between atoms: CA_15  and  C_16
REMARK    9  A    between atoms: CA_15  and  C_18
REMARK   10  A    between atoms: C_16  and  O_17
REMARK                            x       y       z     vdW  Elec       q    Type
REMARK                         _______ _______ _______ _____ _____    ______ ____
ROOT
ATOM      1  C   UNL     1      47.053   6.328  13.017  0.00  0.00    +0.000 A 
ATOM      2  C   UNL     1      46.008   5.603  13.605  0.00  0.00    +0.000 A 
ATOM      3  C   UNL     1      44.830   5.352  12.895  0.00  0.00    +0.000 A 
ATOM      4  C   UNL     1      44.677   5.812  11.580  0.00  0.00    +0.000 A 
ATOM      5  C   UNL     1      45.724   6.539  10.995  0.00  0.00    +0.000 A 
ATOM      6  C   UNL     1      46.901   6.788  11.704  0.00  0.00    +0.000 A 
ENDROOT
BRANCH   1   7
ATOM      7  C   UNL     1      48.325   6.594  13.775  0.00  0.00    +0.000 C 
BRANCH   7  10
ATOM      8  C   UNL     1      49.137   6.722  16.072  0.00  0.00    +0.000 C 
ATOM      9  O   UNL     1      50.271   6.441  15.715  0.00  0.00    +0.000 OA
ATOM     10  N   UNL     1      48.082   6.780  15.186  0.00  0.00    +0.000 N 
ATOM     11  H   UNL     1      47.177   7.109  15.491  0.00  0.00    +0.000 HD
BRANCH   8  15
ATOM     12  C   UNL     1      47.668   9.220  20.133  0.00  0.00    +0.000 C 
ATOM     13  N   UNL     1      48.120   8.151  19.271  0.00  0.00    +0.000 N 
ATOM     14  C   UNL     1      48.427   8.268  17.944  0.00  0.00    +0.000 A 
ATOM     15  C   UNL     1      48.794   7.013  17.462  0.00  0.00    +0.000 A 
ATOM     16  C   UNL     1      48.712   6.105  18.580  0.00  0.00    +0.000 A 
ATOM     17  C   UNL     1      48.934   4.760  18.871  0.00  0.00    +0.000 A 
ATOM     18 CL   UNL     1      49.533   3.686  17.712  0.00  0.00    +0.000 Cl
ATOM     19  N   UNL     1      48.752   4.255  20.105  0.00  0.00    +0.000 NA
ATOM     20  C   UNL     1      48.337   5.102  21.054  0.00  0.00    +0.000 A 
ATOM     21  N   UNL     1      48.086   6.411  20.930  0.00  0.00    +0.000 NA
ATOM     22  C   UNL     1      48.293   6.856  19.674  0.00  0.00    +0.000 A 
ENDBRANCH   8  15
ENDBRANCH   7  10
ENDBRANCH   1   7
BRANCH   4  23
ATOM     23  C   UNL     1      43.438   5.485  10.774  0.00  0.00    +0.000 C 
BRANCH  23  24
ATOM     24  N   UNL     1      43.750   4.620   9.636  0.00  0.00    +0.000 NA
ATOM     25  H   UNL     1      44.287   5.175   8.966  0.00  0.00    +0.000 HD
BRANCH  24  26
ATOM     26  CA  UNL     1      44.590   3.453  10.003  0.00  0.00    +0.000 C 
BRANCH  26  27
ATOM     27  C   UNL     1      45.452   3.035   8.812  0.00  0.00    +0.000 A 
ATOM     28  C   UNL     1      45.908   3.991   7.892  0.00  0.00    +0.000 A 
ATOM     29  C   UNL     1      46.694   3.612   6.799  0.00  0.00    +0.000 A 
ATOM     30  C   UNL     1      47.039   2.275   6.611  0.00  0.00    +0.000 A 
ATOM     31  C   UNL     1      46.608   1.314   7.521  0.00  0.00    +0.000 A 
ATOM     32  C   UNL     1      45.835   1.692   8.618  0.00  0.00    +0.000 A 
ENDBRANCH  26  27
BRANCH  26  33
ATOM     33  C   UNL     1      43.755   2.250  10.524  0.00  0.00    +0.000 C 
BRANCH  33  34
ATOM     34  O   UNL     1      43.694   2.211  11.950  0.00  0.00    +0.000 OA
ATOM     35  H   UNL     1      44.575   2.496  12.258  0.00  0.00    +0.000 HD
ENDBRANCH  33  34
ENDBRANCH  26  33
ENDBRANCH  24  26
ENDBRANCH  23  24
ENDBRANCH   4  23
TORSDOF 9
ENDMDL
MODEL 4
REMARK VINA RESULT:    -7.307      2.275      2.842
REMARK INTER + INTRA:         -11.874
REMARK INTER:                 -11.490
REMARK INTRA:                  -0.384
REMARK UNBOUND:                -0.936
REMARK  Name = 
REMARK  10 active torsions:
REMARK  status: ('A' for Active; 'I' for Inactive)
REMARK    1  A    between atoms: C_1  and  N_2
REMARK    2  A    between atoms: C_4  and  C_5
REMARK    3  A    between atoms: N_7  and  C_8
REMARK    4  A    between atoms: C_8  and  C_9
REMARK    5  A    between atoms: C_12  and  C_13
REMARK    6  A    between atoms: C_13  and  N_14
REMARK    7  A    between atoms: N_14  and  CA_15
REMARK    8  A    between atoms: CA_15  and  C_16
REMARK    9  A    between atoms: CA_15  and  C_18
REMARK   10  A    between atoms: C_16  and  O_17
REMARK                            x       y       z     vdW  Elec       q    Type
REMARK                         _______ _______ _______ _____ _____    ______ ____
ROOT
ATOM      1  C   UNL     1      47.489   5.938  13.706  0.00  0.00    +0.000 A 
ATOM      2  C   UNL     1      46.809   6.422  12.581  0.00  0.00    +0.000 A 
ATOM      3  C   UNL     1      45.895   5.613  11.901  0.00  0.00    +0.000 A 
ATOM      4  C   UNL     1      45.635   4.307  12.336  0.00  0.00    +0.000 A 
ATOM      5  C   UNL     1      46.318   3.824  13.461  0.00  0.00    +0.000 A 
ATOM      6  C   UNL     1      47.229   4.633  14.143  0.00  0.00    +0.000 A 
ENDROOT
BRANCH   1   7
ATOM      7  C   UNL     1      48.468   6.808  14.446  0.00  0.00    +0.000 C 
BRANCH   7  10
ATOM      8  C   UNL     1      49.034   6.744  16.818  0.00  0.00    +0.000 C 
ATOM      9  O   UNL     1      50.154   6.325  16.566  0.00  0.00    +0.000 OA
ATOM     10  N   UNL     1      48.099   6.976  15.832  0.00  0.00    +0.000 N 
ATOM     11  H   UNL     1      47.218   7.414  16.057  0.00  0.00    +0.000 HD
BRANCH   8  15
ATOM     12  C   UNL     1      47.171   9.202  20.739  0.00  0.00    +0.000 C 
ATOM     13  N   UNL     1      47.732   8.149  19.923  0.00  0.00    +0.000 N 
ATOM     14  C   UNL     1      48.123   8.269  18.618  0.00  0.00    +0.000 A 
ATOM     15  C   UNL     1      48.584   7.030  18.178  0.00  0.00    +0.000 A 
ATOM     16  C   UNL     1      48.469   6.129  19.299  0.00  0.00    +0.000 A 
ATOM     17  C   UNL     1      48.737   4.799  19.620  0.00  0.00    +0.000 A 
ATOM     18 CL   UNL     1      49.466   3.746  18.518  0.00  0.00    +0.000 Cl
ATOM     19  N   UNL     1      48.495   4.296  20.845  0.00  0.00    +0.000 NA
ATOM     20  C   UNL     1      47.975   5.130  21.753  0.00  0.00    +0.000 A 
ATOM     21  N   UNL     1      47.670   6.424  21.596  0.00  0.00    +0.000 NA
ATOM     22  C   UNL     1      47.941   6.868  20.353  0.00  0.00    +0.000 A 
ENDBRANCH   8  15
ENDBRANCH   7  10
ENDBRANCH   1   7
BRANCH   4  23
ATOM     23  C   UNL     1      44.594   3.445  11.654  0.00  0.00    +0.000 C 
BRANCH  23  24
ATOM     24  N   UNL     1      45.188   2.609  10.611  0.00  0.00    +0.000 NA
ATOM     25  H   UNL     1      44.863   1.651  10.762  0.00  0.00    +0.000 HD
BRANCH  24  26
ATOM     26  CA  UNL     1      44.768   2.998   9.241  0.00  0.00    +0.000 C 
BRANCH  26  27
ATOM     27  C   UNL     1      45.762   2.450   8.216  0.00  0.00    +0.000 A 
ATOM     28  C   UNL     1      46.337   3.299   7.258  0.00  0.00    +0.000 A 
ATOM     29  C   UNL     1      47.244   2.801   6.317  0.00  0.00    +0.000 A 
ATOM     30  C   UNL     1      47.592   1.451   6.320  0.00  0.00    +0.000 A 
ATOM     31  C   UNL     1      47.042   0.597   7.272  0.00  0.00    +0.000 A 
ATOM     32  C   UNL     1      46.148   1.095   8.219  0.00  0.00    +0.000 A 
ENDBRANCH  26  27
BRANCH  26  33
ATOM     33  C   UNL     1      44.602   4.534   9.076  0.00  0.00    +0.000 C 
BRANCH  33  34
ATOM     34  O   UNL     1      43.283   4.973   9.403  0.00  0.00    +0.000 OA
ATOM     35  H   UNL     1      43.331   5.948   9.433  0.00  0.00    +0.000 HD
ENDBRANCH  33  34
ENDBRANCH  26  33
ENDBRANCH  24  26
ENDBRANCH  23  24
ENDBRANCH   4  23
TORSDOF 9
ENDMDL
MODEL 5
REMARK VINA RESULT:    -7.168      1.500      2.058
REMARK INTER + INTRA:         -11.666
REMARK INTER:                 -10.515
REMARK INTRA:                  -1.151
REMARK UNBOUND:                -0.936
REMARK  Name = 
REMARK  10 active torsions:
REMARK  status: ('A' for Active; 'I' for Inactive)
REMARK    1  A    between atoms: C_1  and  N_2
REMARK    2  A    between atoms: C_4  and  C_5
REMARK    3  A    between atoms: N_7  and  C_8
REMARK    4  A    between atoms: C_8  and  C_9
REMARK    5  A    between atoms: C_12  and  C_13
REMARK    6  A    between atoms: C_13  and  N_14
REMARK    7  A    between atoms: N_14  and  CA_15
REMARK    8  A    between atoms: CA_15  and  C_16
REMARK    9  A    between atoms: CA_15  and  C_18
REMARK   10  A    between atoms: C_16  and  O_17
REMARK                            x       y       z     vdW  Elec       q    Type
REMARK                         _______ _______ _______ _____ _____    ______ ____
ROOT
ATOM      1  C   UNL     1      48.161   8.216  13.365  0.00  0.00    +0.000 A 
ATOM      2  C   UNL     1      48.171   7.456  12.188  0.00  0.00    +0.000 A 
ATOM      3  C   UNL     1      47.007   7.308  11.429  0.00  0.00    +0.000 A 
ATOM      4  C   UNL     1      45.812   7.924  11.825  0.00  0.00    +0.000 A 
ATOM      5  C   UNL     1      45.805   8.683  13.004  0.00  0.00    +0.000 A 
ATOM      6  C   UNL     1      46.969   8.833  13.762  0.00  0.00    +0.000 A 
ENDROOT
BRANCH   1   7
ATOM      7  C   UNL     1      49.414   8.384  14.181  0.00  0.00    +0.000 C 
BRANCH   7  10
ATOM      8  C   UNL     1      48.992   7.601  16.453  0.00  0.00    +0.000 C 
ATOM      9  O   UNL     1      48.482   8.669  16.755  0.00  0.00    +0.000 OA
ATOM     10  N   UNL     1      49.530   7.372  15.204  0.00  0.00    +0.000 N 
ATOM     11  H   UNL     1      49.856   6.451  14.951  0.00  0.00    +0.000 HD
BRANCH   8  15
ATOM     12  C   UNL     1      50.134   4.934  20.512  0.00  0.00    +0.000 C 
ATOM     13  N   UNL     1      49.598   5.302  19.220  0.00  0.00    +0.000 N 
ATOM     14  C   UNL     1      49.781   6.502  18.590  0.00  0.00    +0.000 A 
ATOM     15  C   UNL     1      49.086   6.478  17.383  0.00  0.00    +0.000 A 
ATOM     16  C   UNL     1      48.468   5.177  17.292  0.00  0.00    +0.000 A 
ATOM     17  C   UNL     1      47.674   4.441  16.413  0.00  0.00    +0.000 A 
ATOM     18 CL   UNL     1      47.211   5.051  14.907  0.00  0.00    +0.000 Cl
ATOM     19  N   UNL     1      47.289   3.180  16.683  0.00  0.00    +0.000 NA
ATOM     20  C   UNL     1      47.697   2.655  17.844  0.00  0.00    +0.000 A 
ATOM     21  N   UNL     1      48.459   3.231  18.781  0.00  0.00    +0.000 NA
ATOM     22  C   UNL     1      48.816   4.488  18.449  0.00  0.00    +0.000 A 
ENDBRANCH   8  15
ENDBRANCH   7  10
ENDBRANCH   1   7
BRANCH   4  23
ATOM     23  C   UNL     1      44.563   7.834  10.974  0.00  0.00    +0.000 C 
BRANCH  23  24
ATOM     24  N   UNL     1      43.716   6.713  11.380  0.00  0.00    +0.000 NA
ATOM     25  H   UNL     1      43.164   6.434  10.566  0.00  0.00    +0.000 HD
BRANCH  24  26
ATOM     26  CA  UNL     1      44.491   5.520  11.808  0.00  0.00    +0.000 C 
BRANCH  26  27
ATOM     27  C   UNL     1      44.678   4.569  10.626  0.00  0.00    +0.000 A 
ATOM     28  C   UNL     1      44.137   3.275  10.660  0.00  0.00    +0.000 A 
ATOM     29  C   UNL     1      44.309   2.400   9.582  0.00  0.00    +0.000 A 
ATOM     30  C   UNL     1      45.020   2.806   8.454  0.00  0.00    +0.000 A 
ATOM     31  C   UNL     1      45.552   4.091   8.396  0.00  0.00    +0.000 A 
ATOM     32  C   UNL     1      45.370   4.968   9.465  0.00  0.00    +0.000 A 
ENDBRANCH  26  27
BRANCH  26  33
ATOM     33  C   UNL     1      43.841   4.779  13.009  0.00  0.00    +0.000 C 
BRANCH  33  34
ATOM     34  O   UNL     1      42.622   5.394  13.428  0.00  0.00    +0.000 OA
ATOM     35  H   UNL     1      42.716   5.534  14.390  0.00  0.00    +0.000 HD
ENDBRANCH  33  34
ENDBRANCH  26  33
ENDBRANCH  24  26
ENDBRANCH  23  24
ENDBRANCH   4  23
TORSDOF 9
ENDMDL
MODEL 6
REMARK VINA RESULT:    -7.127      2.361      2.992
REMARK INTER + INTRA:         -11.605
REMARK INTER:                 -10.144
REMARK INTRA:                  -1.461
REMARK UNBOUND:                -0.936
REMARK  Name = 
REMARK  10 active torsions:
REMARK  status: ('A' for Active; 'I' for Inactive)
REMARK    1  A    between atoms: C_1  and  N_2
REMARK    2  A    between atoms: C_4  and  C_5
REMARK    3  A    between atoms: N_7  and  C_8
REMARK    4  A    between atoms: C_8  and  C_9
REMARK    5  A    between atoms: C_12  and  C_13
REMARK    6  A    between atoms: C_13  and  N_14
REMARK    7  A    between atoms: N_14  and  CA_15
REMARK    8  A    between atoms: CA_15  and  C_16
REMARK    9  A    between atoms: CA_15  and  C_18
REMARK   10  A    between atoms: C_16  and  O_17
REMARK                            x       y       z     vdW  Elec       q    Type
REMARK                         _______ _______ _______ _____ _____    ______ ____
ROOT
ATOM      1  C   UNL     1      49.236   8.587  12.226  0.00  0.00    +0.000 A 
ATOM      2  C   UNL     1      48.310   9.608  12.477  0.00  0.00    +0.000 A 
ATOM      3  C   UNL     1      46.937   9.353  12.417  0.00  0.00    +0.000 A 
ATOM      4  C   UNL     1      46.461   8.070  12.114  0.00  0.00    +0.000 A 
ATOM      5  C   UNL     1      47.390   7.051  11.862  0.00  0.00    +0.000 A 
ATOM      6  C   UNL     1      48.762   7.305  11.924  0.00  0.00    +0.000 A 
ENDROOT
BRANCH   1   7
ATOM      7  C   UNL     1      50.714   8.856  12.296  0.00  0.00    +0.000 C 
BRANCH   7  10
ATOM      8  C   UNL     1      51.457   8.390  14.573  0.00  0.00    +0.000 C 
ATOM      9  O   UNL     1      51.060   9.481  14.954  0.00  0.00    +0.000 OA
ATOM     10  N   UNL     1      51.372   7.998  13.254  0.00  0.00    +0.000 N 
ATOM     11  H   UNL     1      51.617   7.056  12.985  0.00  0.00    +0.000 HD
BRANCH   8  15
ATOM     12  C   UNL     1      54.898   5.875  17.166  0.00  0.00    +0.000 C 
ATOM     13  N   UNL     1      53.622   6.301  16.637  0.00  0.00    +0.000 N 
ATOM     14  C   UNL     1      53.430   7.273  15.694  0.00  0.00    +0.000 A 
ATOM     15  C   UNL     1      52.061   7.410  15.472  0.00  0.00    +0.000 A 
ATOM     16  C   UNL     1      51.409   6.449  16.328  0.00  0.00    +0.000 A 
ATOM     17  C   UNL     1      50.124   6.001  16.632  0.00  0.00    +0.000 A 
ATOM     18 CL   UNL     1      48.761   6.602  15.835  0.00  0.00    +0.000 Cl
ATOM     19  N   UNL     1      49.901   5.019  17.525  0.00  0.00    +0.000 NA
ATOM     20  C   UNL     1      50.973   4.486  18.123  0.00  0.00    +0.000 A 
ATOM     21  N   UNL     1      52.259   4.805  17.934  0.00  0.00    +0.000 NA
ATOM     22  C   UNL     1      52.415   5.788  17.025  0.00  0.00    +0.000 A 
ENDBRANCH   8  15
ENDBRANCH   7  10
ENDBRANCH   1   7
BRANCH   4  23
ATOM     23  C   UNL     1      44.979   7.762  12.118  0.00  0.00    +0.000 C 
BRANCH  23  24
ATOM     24  N   UNL     1      44.608   6.894  11.002  0.00  0.00    +0.000 NA
ATOM     25  H   UNL     1      45.417   6.831  10.379  0.00  0.00    +0.000 HD
BRANCH  24  26
ATOM     26  CA  UNL     1      44.276   5.510  11.422  0.00  0.00    +0.000 C 
BRANCH  26  27
ATOM     27  C   UNL     1      44.659   4.523  10.319  0.00  0.00    +0.000 A 
ATOM     28  C   UNL     1      45.432   4.942   9.226  0.00  0.00    +0.000 A 
ATOM     29  C   UNL     1      45.782   4.043   8.213  0.00  0.00    +0.000 A 
ATOM     30  C   UNL     1      45.367   2.713   8.279  0.00  0.00    +0.000 A 
ATOM     31  C   UNL     1      44.612   2.276   9.363  0.00  0.00    +0.000 A 
ATOM     32  C   UNL     1      44.274   3.169  10.380  0.00  0.00    +0.000 A 
ENDBRANCH  26  27
BRANCH  26  33
ATOM     33  C   UNL     1      42.782   5.341  11.814  0.00  0.00    +0.000 C 
BRANCH  33  34
ATOM     34  O   UNL     1      42.582   5.405  13.226  0.00  0.00    +0.000 OA
ATOM     35  H   UNL     1      42.790   4.512  13.561  0.00  0.00    +0.000 HD
ENDBRANCH  33  34
ENDBRANCH  26  33
ENDBRANCH  24  26
ENDBRANCH  23  24
ENDBRANCH   4  23
TORSDOF 9
ENDMDL
MODEL 7
REMARK VINA RESULT:    -7.067      5.628      7.571
REMARK INTER + INTRA:         -11.514
REMARK INTER:                 -10.336
REMARK INTRA:                  -1.178
REMARK UNBOUND:                -0.936
REMARK  Name = 
REMARK  10 active torsions:
REMARK  status: ('A' for Active; 'I' for Inactive)
REMARK    1  A    between atoms: C_1  and  N_2
REMARK    2  A    between atoms: C_4  and  C_5
REMARK    3  A    between atoms: N_7  and  C_8
REMARK    4  A    between atoms: C_8  and  C_9
REMARK    5  A    between atoms: C_12  and  C_13
REMARK    6  A    between atoms: C_13  and  N_14
REMARK    7  A    between atoms: N_14  and  CA_15
REMARK    8  A    between atoms: CA_15  and  C_16
REMARK    9  A    between atoms: CA_15  and  C_18
REMARK   10  A    between atoms: C_16  and  O_17
REMARK                            x       y       z     vdW  Elec       q    Type
REMARK                         _______ _______ _______ _____ _____    ______ ____
ROOT
ATOM      1  C   UNL     1      49.774   7.776  12.371  0.00  0.00    +0.000 A 
ATOM      2  C   UNL     1      49.546   7.284  13.663  0.00  0.00    +0.000 A 
ATOM      3  C   UNL     1      48.312   6.722  14.002  0.00  0.00    +0.000 A 
ATOM      4  C   UNL     1      47.284   6.630  13.054  0.00  0.00    +0.000 A 
ATOM      5  C   UNL     1      47.515   7.124  11.762  0.00  0.00    +0.000 A 
ATOM      6  C   UNL     1      48.748   7.685  11.423  0.00  0.00    +0.000 A 
ENDROOT
BRANCH   1   7
ATOM      7  C   UNL     1      51.103   8.376  12.001  0.00  0.00    +0.000 C 
BRANCH   7  10
ATOM      8  C   UNL     1      52.869   7.583  10.517  0.00  0.00    +0.000 C 
ATOM      9  O   UNL     1      53.703   7.704  11.402  0.00  0.00    +0.000 OA
ATOM     10  N   UNL     1      51.549   7.934  10.700  0.00  0.00    +0.000 N 
ATOM     11  H   UNL     1      50.864   7.733   9.987  0.00  0.00    +0.000 HD
BRANCH   8  15
ATOM     12  C   UNL     1      53.988   4.382   6.857  0.00  0.00    +0.000 C 
ATOM     13  N   UNL     1      53.683   5.609   7.558  0.00  0.00    +0.000 N 
ATOM     14  C   UNL     1      53.494   5.735   8.907  0.00  0.00    +0.000 A 
ATOM     15  C   UNL     1      53.193   7.066   9.190  0.00  0.00    +0.000 A 
ATOM     16  C   UNL     1      53.221   7.768   7.930  0.00  0.00    +0.000 A 
ATOM     17  C   UNL     1      53.051   9.060   7.434  0.00  0.00    +0.000 A 
ATOM     18 CL   UNL     1      52.761  10.375   8.454  0.00  0.00    +0.000 Cl
ATOM     19  N   UNL     1      53.177   9.346   6.124  0.00  0.00    +0.000 NA
ATOM     20  C   UNL     1      53.469   8.329   5.305  0.00  0.00    +0.000 A 
ATOM     21  N   UNL     1      53.664   7.045   5.631  0.00  0.00    +0.000 NA
ATOM     22  C   UNL     1      53.530   6.826   6.954  0.00  0.00    +0.000 A 
ENDBRANCH   8  15
ENDBRANCH   7  10
ENDBRANCH   1   7
BRANCH   4  23
ATOM     23  C   UNL     1      45.969   5.957  13.384  0.00  0.00    +0.000 C 
BRANCH  23  24
ATOM     24  N   UNL     1      45.062   5.957  12.237  0.00  0.00    +0.000 NA
ATOM     25  H   UNL     1      45.619   6.165  11.405  0.00  0.00    +0.000 HD
BRANCH  24  26
ATOM     26  CA  UNL     1      44.413   4.642  12.006  0.00  0.00    +0.000 C 
BRANCH  26  27
ATOM     27  C   UNL     1      44.740   4.138  10.601  0.00  0.00    +0.000 A 
ATOM     28  C   UNL     1      44.354   2.850  10.198  0.00  0.00    +0.000 A 
ATOM     29  C   UNL     1      44.654   2.384   8.914  0.00  0.00    +0.000 A 
ATOM     30  C   UNL     1      45.342   3.196   8.014  0.00  0.00    +0.000 A 
ATOM     31  C   UNL     1      45.720   4.481   8.390  0.00  0.00    +0.000 A 
ATOM     32  C   UNL     1      45.410   4.952   9.666  0.00  0.00    +0.000 A 
ENDBRANCH  26  27
BRANCH  26  33
ATOM     33  C   UNL     1      42.875   4.683  12.229  0.00  0.00    +0.000 C 
BRANCH  33  34
ATOM     34  O   UNL     1      42.518   5.411  13.405  0.00  0.00    +0.000 OA
ATOM     35  H   UNL     1      41.766   5.977  13.144  0.00  0.00    +0.000 HD
ENDBRANCH  33  34
ENDBRANCH  26  33
ENDBRANCH  24  26
ENDBRANCH  23  24
ENDBRANCH   4  23
TORSDOF 9
ENDMDL
MODEL 8
REMARK VINA RESULT:    -6.957      2.479      8.303
REMARK INTER + INTRA:         -11.350
REMARK INTER:                  -9.765
REMARK INTRA:                  -1.586
REMARK UNBOUND:                -0.936
REMARK  Name = 
REMARK  10 active torsions:
REMARK  status: ('A' for Active; 'I' for Inactive)
REMARK    1  A    between atoms: C_1  and  N_2
REMARK    2  A    between atoms: C_4  and  C_5
REMARK    3  A    between atoms: N_7  and  C_8
REMARK    4  A    between atoms: C_8  and  C_9
REMARK    5  A    between atoms: C_12  and  C_13
REMARK    6  A    between atoms: C_13  and  N_14
REMARK    7  A    between atoms: N_14  and  CA_15
REMARK    8  A    between atoms: CA_15  and  C_16
REMARK    9  A    between atoms: CA_15  and  C_18
REMARK   10  A    between atoms: C_16  and  O_17
REMARK                            x       y       z     vdW  Elec       q    Type
REMARK                         _______ _______ _______ _____ _____    ______ ____
ROOT
ATOM      1  C   UNL     1      47.770   8.011  13.903  0.00  0.00    +0.000 A 
ATOM      2  C   UNL     1      48.137   6.711  14.272  0.00  0.00    +0.000 A 
ATOM      3  C   UNL     1      48.796   6.475  15.482  0.00  0.00    +0.000 A 
ATOM      4  C   UNL     1      49.093   7.534  16.351  0.00  0.00    +0.000 A 
ATOM      5  C   UNL     1      48.725   8.834  15.979  0.00  0.00    +0.000 A 
ATOM      6  C   UNL     1      48.064   9.069  14.771  0.00  0.00    +0.000 A 
ENDROOT
BRANCH   1   7
ATOM      7  C   UNL     1      47.053   8.268  12.605  0.00  0.00    +0.000 C 
BRANCH   7  10
ATOM      8  C   UNL     1      45.509   6.969  11.233  0.00  0.00    +0.000 C 
ATOM      9  O   UNL     1      44.708   7.892  11.215  0.00  0.00    +0.000 OA
ATOM     10  N   UNL     1      46.693   7.039  11.937  0.00  0.00    +0.000 N 
ATOM     11  H   UNL     1      47.379   6.304  11.855  0.00  0.00    +0.000 HD
BRANCH   8  15
ATOM     12  C   UNL     1      45.812   3.421   7.739  0.00  0.00    +0.000 C 
ATOM     13  N   UNL     1      45.446   4.127   8.946  0.00  0.00    +0.000 N 
ATOM     14  C   UNL     1      45.812   5.405   9.269  0.00  0.00    +0.000 A 
ATOM     15  C   UNL     1      45.286   5.713  10.522  0.00  0.00    +0.000 A 
ATOM     16  C   UNL     1      44.553   4.549  10.956  0.00  0.00    +0.000 A 
ATOM     17  C   UNL     1      43.778   4.127  12.035  0.00  0.00    +0.000 A 
ATOM     18 CL   UNL     1      43.418   5.153  13.328  0.00  0.00    +0.000 Cl
ATOM     19  N   UNL     1      43.215   2.904  12.078  0.00  0.00    +0.000 NA
ATOM     20  C   UNL     1      43.437   2.097  11.034  0.00  0.00    +0.000 A 
ATOM     21  N   UNL     1      44.150   2.359   9.932  0.00  0.00    +0.000 NA
ATOM     22  C   UNL     1      44.680   3.598   9.948  0.00  0.00    +0.000 A 
ENDBRANCH   8  15
ENDBRANCH   7  10
ENDBRANCH   1   7
BRANCH   4  23
ATOM     23  C   UNL     1      49.740   7.285  17.697  0.00  0.00    +0.000 C 
BRANCH  23  24
ATOM     24  N   UNL     1      48.758   6.863  18.696  0.00  0.00    +0.000 NA
ATOM     25  H   UNL     1      47.870   6.714  18.210  0.00  0.00    +0.000 HD
BRANCH  24  26
ATOM     26  CA  UNL     1      49.110   5.580  19.355  0.00  0.00    +0.000 C 
BRANCH  26  27
ATOM     27  C   UNL     1      48.939   4.423  18.371  0.00  0.00    +0.000 A 
ATOM     28  C   UNL     1      47.687   4.153  17.799  0.00  0.00    +0.000 A 
ATOM     29  C   UNL     1      47.526   3.093  16.901  0.00  0.00    +0.000 A 
ATOM     30  C   UNL     1      48.612   2.290  16.558  0.00  0.00    +0.000 A 
ATOM     31  C   UNL     1      49.866   2.551  17.104  0.00  0.00    +0.000 A 
ATOM     32  C   UNL     1      50.030   3.616  17.990  0.00  0.00    +0.000 A 
ENDBRANCH  26  27
BRANCH  26  33
ATOM     33  C   UNL     1      48.290   5.324  20.650  0.00  0.00    +0.000 C 
BRANCH  33  34
ATOM     34  O   UNL     1      48.433   3.985  21.125  0.00  0.00    +0.000 OA
ATOM     35  H   UNL     1      47.617   3.795  21.626  0.00  0.00    +0.000 HD
ENDBRANCH  33  34
ENDBRANCH  26  33
ENDBRANCH  24  26
ENDBRANCH  23  24
ENDBRANCH   4  23
TORSDOF 9
ENDMDL
MODEL 9
REMARK VINA RESULT:    -6.877      3.082      9.779
REMARK INTER + INTRA:         -11.229
REMARK INTER:                  -8.979
REMARK INTRA:                  -2.250
REMARK UNBOUND:                -0.936
REMARK  Name = 
REMARK  10 active torsions:
REMARK  status: ('A' for Active; 'I' for Inactive)
REMARK    1  A    between atoms: C_1  and  N_2
REMARK    2  A    between atoms: C_4  and  C_5
REMARK    3  A    between atoms: N_7  and  C_8
REMARK    4  A    between atoms: C_8  and  C_9
REMARK    5  A    between atoms: C_12  and  C_13
REMARK    6  A    between atoms: C_13  and  N_14
REMARK    7  A    between atoms: N_14  and  CA_15
REMARK    8  A    between atoms: CA_15  and  C_16
REMARK    9  A    between atoms: CA_15  and  C_18
REMARK   10  A    between atoms: C_16  and  O_17
REMARK                            x       y       z     vdW  Elec       q    Type
REMARK                         _______ _______ _______ _____ _____    ______ ____
ROOT
ATOM      1  C   UNL     1      48.661   4.116  16.990  0.00  0.00    +0.000 A 
ATOM      2  C   UNL     1      49.719   3.321  17.450  0.00  0.00    +0.000 A 
ATOM      3  C   UNL     1      50.937   3.903  17.816  0.00  0.00    +0.000 A 
ATOM      4  C   UNL     1      51.118   5.290  17.738  0.00  0.00    +0.000 A 
ATOM      5  C   UNL     1      50.057   6.082  17.276  0.00  0.00    +0.000 A 
ATOM      6  C   UNL     1      48.840   5.502  16.913  0.00  0.00    +0.000 A 
ENDROOT
BRANCH   1   7
ATOM      7  C   UNL     1      47.346   3.495  16.603  0.00  0.00    +0.000 C 
BRANCH   7  10
ATOM      8  C   UNL     1      46.644   4.046  14.333  0.00  0.00    +0.000 C 
ATOM      9  O   UNL     1      47.344   3.157  13.872  0.00  0.00    +0.000 OA
ATOM     10  N   UNL     1      46.608   4.327  15.682  0.00  0.00    +0.000 N 
ATOM     11  H   UNL     1      45.949   4.999  16.046  0.00  0.00    +0.000 HD
BRANCH   8  15
ATOM     12  C   UNL     1      42.686   5.649  11.752  0.00  0.00    +0.000 C 
ATOM     13  N   UNL     1      43.998   5.599  12.358  0.00  0.00    +0.000 N 
ATOM     14  C   UNL     1      44.519   4.544  13.055  0.00  0.00    +0.000 A 
ATOM     15  C   UNL     1      45.792   4.892  13.502  0.00  0.00    +0.000 A 
ATOM     16  C   UNL     1      46.040   6.231  13.026  0.00  0.00    +0.000 A 
ATOM     17  C   UNL     1      47.047   7.195  13.051  0.00  0.00    +0.000 A 
ATOM     18 CL   UNL     1      48.547   6.896  13.770  0.00  0.00    +0.000 Cl
ATOM     19  N   UNL     1      46.910   8.390  12.446  0.00  0.00    +0.000 NA
ATOM     20  C   UNL     1      45.753   8.624  11.817  0.00  0.00    +0.000 A 
ATOM     21  N   UNL     1      44.702   7.802  11.704  0.00  0.00    +0.000 NA
ATOM     22  C   UNL     1      44.904   6.623  12.323  0.00  0.00    +0.000 A 
ENDBRANCH   8  15
ENDBRANCH   7  10
ENDBRANCH   1   7
BRANCH   4  23
ATOM     23  C   UNL     1      52.405   5.940  18.199  0.00  0.00    +0.000 C 
BRANCH  23  24
ATOM     24  N   UNL     1      52.660   5.681  19.616  0.00  0.00    +0.000 NA
ATOM     25  H   UNL     1      53.672   5.726  19.759  0.00  0.00    +0.000 HD
BRANCH  24  26
ATOM     26  CA  UNL     1      52.049   6.692  20.514  0.00  0.00    +0.000 C 
BRANCH  26  27
ATOM     27  C   UNL     1      50.575   6.361  20.748  0.00  0.00    +0.000 A 
ATOM     28  C   UNL     1      49.584   7.330  20.533  0.00  0.00    +0.000 A 
ATOM     29  C   UNL     1      48.235   7.032  20.748  0.00  0.00    +0.000 A 
ATOM     30  C   UNL     1      47.856   5.761  21.178  0.00  0.00    +0.000 A 
ATOM     31  C   UNL     1      48.823   4.782  21.383  0.00  0.00    +0.000 A 
ATOM     32  C   UNL     1      50.168   5.075  21.156  0.00  0.00    +0.000 A 
ENDBRANCH  26  27
BRANCH  26  33
ATOM     33  C   UNL     1      52.206   8.144  19.982  0.00  0.00    +0.000 C 
BRANCH  33  34
ATOM     34  O   UNL     1      53.509   8.674  20.232  0.00  0.00    +0.000 OA
ATOM     35  H   UNL     1      53.885   8.119  20.942  0.00  0.00    +0.000 HD
ENDBRANCH  33  34
ENDBRANCH  26  33
ENDBRANCH  24  26
ENDBRANCH  23  24
ENDBRANCH   4  23
TORSDOF 9
ENDMDL
