MODEL 1
REMARK VINA RESULT:    -8.455      0.000      0.000
REMARK INTER + INTRA:         -12.626
REMARK INTER:                 -11.421
REMARK INTRA:                  -1.206
REMARK UNBOUND:                -1.206
REMARK  Name = 
REMARK  6 active torsions:
REMARK  status: ('A' for Active; 'I' for Inactive)
REMARK    1  A    between atoms: C_2  and  C_25
REMARK    2  A    between atoms: N_3  and  C_4
REMARK    3  A    between atoms: C_4  and  C_5
REMARK    4  A    between atoms: C_8  and  C_9
REMARK    5  A    between atoms: C_9  and  N_10
REMARK    6  A    between atoms: C_11  and  C_13
REMARK                            x       y       z     vdW  Elec       q    Type
REMARK                         _______ _______ _______ _____ _____    ______ ____
ROOT
ATOM      1  C   UNL     1      44.785   5.576  10.753  0.00  0.00    +0.000 A 
ATOM      2  C   UNL     1      44.161   6.159  11.864  0.00  0.00    +0.000 A 
ATOM      3  C   UNL     1      44.876   6.995  12.729  0.00  0.00    +0.000 A 
ATOM      4  C   UNL     1      46.226   7.282  12.486  0.00  0.00    +0.000 A 
ATOM      5  C   UNL     1      46.853   6.687  11.385  0.00  0.00    +0.000 A 
ATOM      6  C   UNL     1      46.139   5.852  10.520  0.00  0.00    +0.000 A 
ENDROOT
BRANCH   1   7
ATOM      7  C   UNL     1      44.002   4.708   9.801  0.00  0.00    +0.000 C 
BRANCH   7  10
ATOM      8  O   UNL     1      45.078   2.121   9.608  0.00  0.00    +0.000 OA
ATOM      9  C   UNL     1      45.321   2.935   8.726  0.00  0.00    +0.000 C 
ATOM     10  N   UNL     1      44.842   4.228   8.730  0.00  0.00    +0.000 N 
ATOM     11  H   UNL     1      44.890   4.784   7.886  0.00  0.00    +0.000 HD
BRANCH   9  12
ATOM     12  C   UNL     1      46.148   2.553   7.561  0.00  0.00    +0.000 A 
ATOM     13  C   UNL     1      46.248   3.347   6.416  0.00  0.00    +0.000 A 
ATOM     14  C   UNL     1      47.052   2.924   5.359  0.00  0.00    +0.000 A 
ATOM     15  C   UNL     1      47.732   1.723   5.487  0.00  0.00    +0.000 A 
ATOM     16  N   UNL     1      47.668   0.939   6.586  0.00  0.00    +0.000 NA
ATOM     17  C   UNL     1      46.886   1.378   7.606  0.00  0.00    +0.000 A 
ENDBRANCH   9  12
ENDBRANCH   7  10
ENDBRANCH   1   7
BRANCH   4  18
ATOM     18  C   UNL     1      47.006   8.179  13.416  0.00  0.00    +0.000 C 
BRANCH  18  19
ATOM     19  N   UNL     1      47.467   7.450  14.568  0.00  0.00    +0.000 N 
ATOM     20  C   UNL     1      48.713   6.878  14.613  0.00  0.00    +0.000 C 
ATOM     21  O   UNL     1      49.517   6.993  13.692  0.00  0.00    +0.000 OA
ATOM     22  H   UNL     1      46.756   7.138  15.221  0.00  0.00    +0.000 HD
BRANCH  20  23
ATOM     23  C   UNL     1      49.062   6.174  15.855  0.00  0.00    +0.000 A 
ATOM     24  C   UNL     1      50.150   6.596  16.607  0.00  0.00    +0.000 A 
ATOM     25  S   UNL     1      50.358   5.724  18.059  0.00  0.00    +0.000 S 
ATOM     26  C   UNL     1      49.035   4.714  17.706  0.00  0.00    +0.000 A 
ATOM     27  N   UNL     1      48.667   3.718  18.556  0.00  0.00    +0.000 NA
ATOM     28  C   UNL     1      47.665   3.010  18.149  0.00  0.00    +0.000 A 
ATOM     29  N   UNL     1      46.999   3.209  16.967  0.00  0.00    +0.000 N 
ATOM     30  C   UNL     1      47.323   4.213  16.087  0.00  0.00    +0.000 A 
ATOM     31  O   UNL     1      46.691   4.378  15.050  0.00  0.00    +0.000 OA
ATOM     32  C   UNL     1      48.440   5.041  16.501  0.00  0.00    +0.000 A 
ATOM     33  H   UNL     1      46.222   2.621  16.705  0.00  0.00    +0.000 HD
ENDBRANCH  20  23
ENDBRANCH  18  19
ENDBRANCH   4  18
TORSDOF 6
ENDMDL
MODEL 2
REMARK VINA RESULT:    -7.901      2.437      2.835
REMARK INTER + INTRA:         -11.879
REMARK INTER:                 -10.896
REMARK INTRA:                  -0.983
REMARK UNBOUND:                -1.206
REMARK  Name = 
REMARK  6 active torsions:
REMARK  status: ('A' for Active; 'I' for Inactive)
REMARK    1  A    between atoms: C_2  and  C_25
REMARK    2  A    between atoms: N_3  and  C_4
REMARK    3  A    between atoms: C_4  and  C_5
REMARK    4  A    between atoms: C_8  and  C_9
REMARK    5  A    between atoms: C_9  and  N_10
REMARK    6  A    between atoms: C_11  and  C_13
REMARK                            x       y       z     vdW  Elec       q    Type
REMARK                         _______ _______ _______ _____ _____    ______ ____
ROOT
ATOM      1  C   UNL     1      45.352   4.532  11.841  0.00  0.00    +0.000 A 
ATOM      2  C   UNL     1      45.769   5.799  11.408  0.00  0.00    +0.000 A 
ATOM      3  C   UNL     1      46.681   6.547  12.161  0.00  0.00    +0.000 A 
ATOM      4  C   UNL     1      47.211   6.034  13.352  0.00  0.00    +0.000 A 
ATOM      5  C   UNL     1      46.783   4.775  13.792  0.00  0.00    +0.000 A 
ATOM      6  C   UNL     1      45.872   4.026  13.039  0.00  0.00    +0.000 A 
ENDROOT
BRANCH   1   7
ATOM      7  C   UNL     1      44.401   3.713  11.008  0.00  0.00    +0.000 C 
BRANCH   7  10
ATOM      8  O   UNL     1      44.816   4.620   8.383  0.00  0.00    +0.000 OA
ATOM      9  C   UNL     1      45.259   3.528   8.712  0.00  0.00    +0.000 C 
ATOM     10  N   UNL     1      45.108   2.993   9.975  0.00  0.00    +0.000 N 
ATOM     11  H   UNL     1      45.670   2.200  10.255  0.00  0.00    +0.000 HD
BRANCH   9  12
ATOM     12  C   UNL     1      46.026   2.708   7.749  0.00  0.00    +0.000 A 
ATOM     13  C   UNL     1      46.484   3.212   6.529  0.00  0.00    +0.000 A 
ATOM     14  C   UNL     1      47.206   2.380   5.674  0.00  0.00    +0.000 A 
ATOM     15  C   UNL     1      47.448   1.075   6.073  0.00  0.00    +0.000 A 
ATOM     16  N   UNL     1      47.030   0.561   7.251  0.00  0.00    +0.000 NA
ATOM     17  C   UNL     1      46.338   1.394   8.070  0.00  0.00    +0.000 A 
ENDBRANCH   9  12
ENDBRANCH   7  10
ENDBRANCH   1   7
BRANCH   4  18
ATOM     18  C   UNL     1      48.191   6.835  14.172  0.00  0.00    +0.000 C 
BRANCH  18  19
ATOM     19  N   UNL     1      48.047   6.545  15.575  0.00  0.00    +0.000 N 
ATOM     20  C   UNL     1      49.125   6.234  16.365  0.00  0.00    +0.000 C 
ATOM     21  O   UNL     1      50.273   6.230  15.930  0.00  0.00    +0.000 OA
ATOM     22  H   UNL     1      47.114   6.306  15.894  0.00  0.00    +0.000 HD
BRANCH  20  23
ATOM     23  C   UNL     1      48.838   5.973  17.782  0.00  0.00    +0.000 A 
ATOM     24  C   UNL     1      49.114   4.726  18.326  0.00  0.00    +0.000 A 
ATOM     25  S   UNL     1      48.801   4.625  20.001  0.00  0.00    +0.000 S 
ATOM     26  C   UNL     1      48.232   6.228  20.047  0.00  0.00    +0.000 A 
ATOM     27  N   UNL     1      47.788   6.781  21.208  0.00  0.00    +0.000 NA
ATOM     28  C   UNL     1      47.357   7.993  21.092  0.00  0.00    +0.000 A 
ATOM     29  N   UNL     1      47.330   8.702  19.918  0.00  0.00    +0.000 N 
ATOM     30  C   UNL     1      47.785   8.192  18.727  0.00  0.00    +0.000 A 
ATOM     31  O   UNL     1      47.768   8.862  17.700  0.00  0.00    +0.000 OA
ATOM     32  C   UNL     1      48.285   6.832  18.804  0.00  0.00    +0.000 A 
ATOM     33  H   UNL     1      46.980   9.648  19.893  0.00  0.00    +0.000 HD
ENDBRANCH  20  23
ENDBRANCH  18  19
ENDBRANCH   4  18
TORSDOF 6
ENDMDL
MODEL 3
REMARK VINA RESULT:    -7.829      1.668      1.876
REMARK INTER + INTRA:         -11.780
REMARK INTER:                 -10.920
REMARK INTRA:                  -0.860
REMARK UNBOUND:                -1.206
REMARK  Name = 
REMARK  6 active torsions:
REMARK  status: ('A' for Active; 'I' for Inactive)
REMARK    1  A    between atoms: C_2  and  C_25
REMARK    2  A    between atoms: N_3  and  C_4
REMARK    3  A    between atoms: C_4  and  C_5
REMARK    4  A    between atoms: C_8  and  C_9
REMARK    5  A    between atoms: C_9  and  N_10
REMARK    6  A    between atoms: C_11  and  C_13
REMARK                            x       y       z     vdW  Elec       q    Type
REMARK                         _______ _______ _______ _____ _____    ______ ____
ROOT
ATOM      1  C   UNL     1      45.398   4.518  11.882  0.00  0.00    +0.000 A 
ATOM      2  C   UNL     1      45.670   5.738  11.247  0.00  0.00    +0.000 A 
ATOM      3  C   UNL     1      46.491   6.693  11.856  0.00  0.00    +0.000 A 
ATOM      4  C   UNL     1      47.074   6.438  13.104  0.00  0.00    +0.000 A 
ATOM      5  C   UNL     1      46.789   5.226  13.745  0.00  0.00    +0.000 A 
ATOM      6  C   UNL     1      45.970   4.271  13.137  0.00  0.00    +0.000 A 
ENDROOT
BRANCH   1   7
ATOM      7  C   UNL     1      44.546   3.475  11.205  0.00  0.00    +0.000 C 
BRANCH   7  10
ATOM      8  O   UNL     1      44.361   4.212   8.502  0.00  0.00    +0.000 OA
ATOM      9  C   UNL     1      45.101   3.289   8.818  0.00  0.00    +0.000 C 
ATOM     10  N   UNL     1      45.260   2.852  10.117  0.00  0.00    +0.000 N 
ATOM     11  H   UNL     1      46.034   2.243  10.350  0.00  0.00    +0.000 HD
BRANCH   9  12
ATOM     12  C   UNL     1      45.907   2.590   7.795  0.00  0.00    +0.000 A 
ATOM     13  C   UNL     1      46.278   3.189   6.589  0.00  0.00    +0.000 A 
ATOM     14  C   UNL     1      47.044   2.468   5.674  0.00  0.00    +0.000 A 
ATOM     15  C   UNL     1      47.416   1.174   6.001  0.00  0.00    +0.000 A 
ATOM     16  N   UNL     1      47.085   0.570   7.164  0.00  0.00    +0.000 NA
ATOM     17  C   UNL     1      46.347   1.296   8.042  0.00  0.00    +0.000 A 
ENDBRANCH   9  12
ENDBRANCH   7  10
ENDBRANCH   1   7
BRANCH   4  18
ATOM     18  C   UNL     1      47.957   7.464  13.771  0.00  0.00    +0.000 C 
BRANCH  18  19
ATOM     19  N   UNL     1      47.970   7.282  15.198  0.00  0.00    +0.000 N 
ATOM     20  C   UNL     1      49.104   6.902  15.870  0.00  0.00    +0.000 C 
ATOM     21  O   UNL     1      50.178   6.739  15.297  0.00  0.00    +0.000 OA
ATOM     22  H   UNL     1      47.068   7.172  15.650  0.00  0.00    +0.000 HD
BRANCH  20  23
ATOM     23  C   UNL     1      48.982   6.766  17.328  0.00  0.00    +0.000 A 
ATOM     24  C   UNL     1      49.028   7.896  18.135  0.00  0.00    +0.000 A 
ATOM     25  S   UNL     1      48.785   7.565  19.791  0.00  0.00    +0.000 S 
ATOM     26  C   UNL     1      48.668   5.893  19.496  0.00  0.00    +0.000 A 
ATOM     27  N   UNL     1      48.465   5.014  20.514  0.00  0.00    +0.000 NA
ATOM     28  C   UNL     1      48.426   3.775  20.150  0.00  0.00    +0.000 A 
ATOM     29  N   UNL     1      48.574   3.336  18.860  0.00  0.00    +0.000 N 
ATOM     30  C   UNL     1      48.761   4.187  17.798  0.00  0.00    +0.000 A 
ATOM     31  O   UNL     1      48.865   3.762  16.653  0.00  0.00    +0.000 OA
ATOM     32  C   UNL     1      48.806   5.593  18.152  0.00  0.00    +0.000 A 
ATOM     33  H   UNL     1      48.533   2.352  18.639  0.00  0.00    +0.000 HD
ENDBRANCH  20  23
ENDBRANCH  18  19
ENDBRANCH   4  18
TORSDOF 6
ENDMDL
MODEL 4
REMARK VINA RESULT:    -6.937      4.287      7.125
REMARK INTER + INTRA:         -10.576
REMARK INTER:                  -9.548
REMARK INTRA:                  -1.028
REMARK UNBOUND:                -1.206
REMARK  Name = 
REMARK  6 active torsions:
REMARK  status: ('A' for Active; 'I' for Inactive)
REMARK    1  A    between atoms: C_2  and  C_25
REMARK    2  A    between atoms: N_3  and  C_4
REMARK    3  A    between atoms: C_4  and  C_5
REMARK    4  A    between atoms: C_8  and  C_9
REMARK    5  A    between atoms: C_9  and  N_10
REMARK    6  A    between atoms: C_11  and  C_13
REMARK                            x       y       z     vdW  Elec       q    Type
REMARK                         _______ _______ _______ _____ _____    ______ ____
ROOT
ATOM      1  C   UNL     1      44.887   9.201  11.810  0.00  0.00    +0.000 A 
ATOM      2  C   UNL     1      44.354   8.058  11.197  0.00  0.00    +0.000 A 
ATOM      3  C   UNL     1      44.754   6.779  11.599  0.00  0.00    +0.000 A 
ATOM      4  C   UNL     1      45.680   6.616  12.638  0.00  0.00    +0.000 A 
ATOM      5  C   UNL     1      46.224   7.759  13.239  0.00  0.00    +0.000 A 
ATOM      6  C   UNL     1      45.824   9.037  12.839  0.00  0.00    +0.000 A 
ENDROOT
BRANCH   1   7
ATOM      7  C   UNL     1      44.424  10.575  11.402  0.00  0.00    +0.000 C 
BRANCH   7  10
ATOM      8  O   UNL     1      42.013  10.408   9.971  0.00  0.00    +0.000 OA
ATOM      9  C   UNL     1      41.985  10.745  11.148  0.00  0.00    +0.000 C 
ATOM     10  N   UNL     1      43.112  10.858  11.935  0.00  0.00    +0.000 N 
ATOM     11  H   UNL     1      43.018  10.925  12.940  0.00  0.00    +0.000 HD
BRANCH   9  12
ATOM     12  C   UNL     1      40.697  11.034  11.815  0.00  0.00    +0.000 A 
ATOM     13  C   UNL     1      40.584  11.936  12.876  0.00  0.00    +0.000 A 
ATOM     14  C   UNL     1      39.334  12.160  13.451  0.00  0.00    +0.000 A 
ATOM     15  C   UNL     1      38.241  11.478  12.941  0.00  0.00    +0.000 A 
ATOM     16  N   UNL     1      38.315  10.610  11.908  0.00  0.00    +0.000 NA
ATOM     17  C   UNL     1      39.541  10.415  11.358  0.00  0.00    +0.000 A 
ENDBRANCH   9  12
ENDBRANCH   7  10
ENDBRANCH   1   7
BRANCH   4  18
ATOM     18  C   UNL     1      46.121   5.241  13.075  0.00  0.00    +0.000 C 
BRANCH  18  19
ATOM     19  N   UNL     1      46.712   5.283  14.387  0.00  0.00    +0.000 N 
ATOM     20  C   UNL     1      47.278   4.174  14.963  0.00  0.00    +0.000 C 
ATOM     21  O   UNL     1      47.349   3.098  14.374  0.00  0.00    +0.000 OA
ATOM     22  H   UNL     1      46.454   6.068  14.975  0.00  0.00    +0.000 HD
BRANCH  20  23
ATOM     23  C   UNL     1      47.858   4.358  16.300  0.00  0.00    +0.000 A 
ATOM     24  C   UNL     1      47.483   3.518  17.340  0.00  0.00    +0.000 A 
ATOM     25  S   UNL     1      48.317   3.819  18.797  0.00  0.00    +0.000 S 
ATOM     26  C   UNL     1      49.168   5.120  18.107  0.00  0.00    +0.000 A 
ATOM     27  N   UNL     1      50.063   5.839  18.836  0.00  0.00    +0.000 NA
ATOM     28  C   UNL     1      50.613   6.817  18.195  0.00  0.00    +0.000 A 
ATOM     29  N   UNL     1      50.347   7.140  16.889  0.00  0.00    +0.000 N 
ATOM     30  C   UNL     1      49.467   6.432  16.109  0.00  0.00    +0.000 A 
ATOM     31  O   UNL     1      49.270   6.734  14.937  0.00  0.00    +0.000 OA
ATOM     32  C   UNL     1      48.824   5.318  16.781  0.00  0.00    +0.000 A 
ATOM     33  H   UNL     1      50.811   7.918  16.443  0.00  0.00    +0.000 HD
ENDBRANCH  20  23
ENDBRANCH  18  19
ENDBRANCH   4  18
TORSDOF 6
ENDMDL
MODEL 5
REMARK VINA RESULT:    -6.895      2.225      3.511
REMARK INTER + INTRA:         -10.519
REMARK INTER:                  -9.537
REMARK INTRA:                  -0.983
REMARK UNBOUND:                -1.206
REMARK  Name = 
REMARK  6 active torsions:
REMARK  status: ('A' for Active; 'I' for Inactive)
REMARK    1  A    between atoms: C_2  and  C_25
REMARK    2  A    between atoms: N_3  and  C_4
REMARK    3  A    between atoms: C_4  and  C_5
REMARK    4  A    between atoms: C_8  and  C_9
REMARK    5  A    between atoms: C_9  and  N_10
REMARK    6  A    between atoms: C_11  and  C_13
REMARK                            x       y       z     vdW  Elec       q    Type
REMARK                         _______ _______ _______ _____ _____    ______ ____
ROOT
ATOM      1  C   UNL     1      45.485   5.218  11.636  0.00  0.00    +0.000 A 
ATOM      2  C   UNL     1      46.587   5.952  12.095  0.00  0.00    +0.000 A 
ATOM      3  C   UNL     1      47.146   5.693  13.351  0.00  0.00    +0.000 A 
ATOM      4  C   UNL     1      46.626   4.679  14.166  0.00  0.00    +0.000 A 
ATOM      5  C   UNL     1      45.514   3.956  13.714  0.00  0.00    +0.000 A 
ATOM      6  C   UNL     1      44.956   4.214  12.458  0.00  0.00    +0.000 A 
ENDROOT
BRANCH   1   7
ATOM      7  C   UNL     1      44.911   5.473  10.266  0.00  0.00    +0.000 C 
BRANCH   7  10
ATOM      8  O   UNL     1      44.234   2.888   9.402  0.00  0.00    +0.000 OA
ATOM      9  C   UNL     1      45.203   3.448   8.905  0.00  0.00    +0.000 C 
ATOM     10  N   UNL     1      45.617   4.714   9.262  0.00  0.00    +0.000 N 
ATOM     11  H   UNL     1      46.279   5.209   8.678  0.00  0.00    +0.000 HD
BRANCH   9  12
ATOM     12  C   UNL     1      45.991   2.782   7.845  0.00  0.00    +0.000 A 
ATOM     13  C   UNL     1      46.405   3.444   6.686  0.00  0.00    +0.000 A 
ATOM     14  C   UNL     1      47.150   2.752   5.733  0.00  0.00    +0.000 A 
ATOM     15  C   UNL     1      47.458   1.422   5.975  0.00  0.00    +0.000 A 
ATOM     16  N   UNL     1      47.084   0.757   7.090  0.00  0.00    +0.000 NA
ATOM     17  C   UNL     1      46.368   1.456   8.008  0.00  0.00    +0.000 A 
ENDBRANCH   9  12
ENDBRANCH   7  10
ENDBRANCH   1   7
BRANCH   4  18
ATOM     18  C   UNL     1      47.218   4.395  15.524  0.00  0.00    +0.000 C 
BRANCH  18  19
ATOM     19  N   UNL     1      47.752   5.594  16.113  0.00  0.00    +0.000 N 
ATOM     20  C   UNL     1      48.303   5.602  17.370  0.00  0.00    +0.000 C 
ATOM     21  O   UNL     1      48.409   4.579  18.041  0.00  0.00    +0.000 OA
ATOM     22  H   UNL     1      47.462   6.472  15.696  0.00  0.00    +0.000 HD
BRANCH  20  23
ATOM     23  C   UNL     1      48.824   6.891  17.845  0.00  0.00    +0.000 A 
ATOM     24  C   UNL     1      48.370   7.421  19.046  0.00  0.00    +0.000 A 
ATOM     25  S   UNL     1      49.142   8.877  19.486  0.00  0.00    +0.000 S 
ATOM     26  C   UNL     1      50.069   8.881  18.059  0.00  0.00    +0.000 A 
ATOM     27  N   UNL     1      50.952   9.883  17.800  0.00  0.00    +0.000 NA
ATOM     28  C   UNL     1      51.566   9.775  16.668  0.00  0.00    +0.000 A 
ATOM     29  N   UNL     1      51.376   8.755  15.772  0.00  0.00    +0.000 N 
ATOM     30  C   UNL     1      50.510   7.713  16.000  0.00  0.00    +0.000 A 
ATOM     31  O   UNL     1      50.381   6.803  15.187  0.00  0.00    +0.000 OA
ATOM     32  C   UNL     1      49.797   7.784  17.262  0.00  0.00    +0.000 A 
ATOM     33  H   UNL     1      51.887   8.726  14.903  0.00  0.00    +0.000 HD
ENDBRANCH  20  23
ENDBRANCH  18  19
ENDBRANCH   4  18
TORSDOF 6
ENDMDL
MODEL 6
REMARK VINA RESULT:    -6.748      4.332      6.760
REMARK INTER + INTRA:         -10.320
REMARK INTER:                  -9.525
REMARK INTRA:                  -0.795
REMARK UNBOUND:                -1.206
REMARK  Name = 
REMARK  6 active torsions:
REMARK  status: ('A' for Active; 'I' for Inactive)
REMARK    1  A    between atoms: C_2  and  C_25
REMARK    2  A    between atoms: N_3  and  C_4
REMARK    3  A    between atoms: C_4  and  C_5
REMARK    4  A    between atoms: C_8  and  C_9
REMARK    5  A    between atoms: C_9  and  N_10
REMARK    6  A    between atoms: C_11  and  C_13
REMARK                            x       y       z     vdW  Elec       q    Type
REMARK                         _______ _______ _______ _____ _____    ______ ____
ROOT
ATOM      1  C   UNL     1      45.125   7.913  11.814  0.00  0.00    +0.000 A 
ATOM      2  C   UNL     1      46.309   7.902  12.564  0.00  0.00    +0.000 A 
ATOM      3  C   UNL     1      46.677   6.770  13.301  0.00  0.00    +0.000 A 
ATOM      4  C   UNL     1      45.878   5.619  13.285  0.00  0.00    +0.000 A 
ATOM      5  C   UNL     1      44.687   5.637  12.548  0.00  0.00    +0.000 A 
ATOM      6  C   UNL     1      44.319   6.767  11.811  0.00  0.00    +0.000 A 
ENDROOT
BRANCH   1   7
ATOM      7  C   UNL     1      44.752   9.118  10.989  0.00  0.00    +0.000 C 
BRANCH   7  10
ATOM      8  O   UNL     1      43.723  11.595  11.821  0.00  0.00    +0.000 OA
ATOM      9  C   UNL     1      42.947  10.686  11.557  0.00  0.00    +0.000 C 
ATOM     10  N   UNL     1      43.352   9.435  11.142  0.00  0.00    +0.000 N 
ATOM     11  H   UNL     1      42.679   8.799  10.734  0.00  0.00    +0.000 HD
BRANCH   9  12
ATOM     12  C   UNL     1      41.486  10.897  11.649  0.00  0.00    +0.000 A 
ATOM     13  C   UNL     1      40.900  11.689  12.640  0.00  0.00    +0.000 A 
ATOM     14  C   UNL     1      39.515  11.845  12.660  0.00  0.00    +0.000 A 
ATOM     15  C   UNL     1      38.765  11.208  11.684  0.00  0.00    +0.000 A 
ATOM     16  N   UNL     1      39.302  10.447  10.704  0.00  0.00    +0.000 NA
ATOM     17  C   UNL     1      40.653  10.318  10.701  0.00  0.00    +0.000 A 
ENDBRANCH   9  12
ENDBRANCH   7  10
ENDBRANCH   1   7
BRANCH   4  18
ATOM     18  C   UNL     1      46.264   4.397  14.080  0.00  0.00    +0.000 C 
BRANCH  18  19
ATOM     19  N   UNL     1      47.366   4.682  14.961  0.00  0.00    +0.000 N 
ATOM     20  C   UNL     1      47.418   4.190  16.240  0.00  0.00    +0.000 C 
ATOM     21  O   UNL     1      46.550   3.445  16.688  0.00  0.00    +0.000 OA
ATOM     22  H   UNL     1      47.954   5.471  14.710  0.00  0.00    +0.000 HD
BRANCH  20  23
ATOM     23  C   UNL     1      48.606   4.547  17.027  0.00  0.00    +0.000 A 
ATOM     24  C   UNL     1      48.708   5.811  17.593  0.00  0.00    +0.000 A 
ATOM     25  S   UNL     1      50.109   6.024  18.543  0.00  0.00    +0.000 S 
ATOM     26  C   UNL     1      50.658   4.454  18.185  0.00  0.00    +0.000 A 
ATOM     27  N   UNL     1      51.834   3.991  18.688  0.00  0.00    +0.000 NA
ATOM     28  C   UNL     1      52.142   2.794  18.311  0.00  0.00    +0.000 A 
ATOM     29  N   UNL     1      51.380   2.019  17.476  0.00  0.00    +0.000 N 
ATOM     30  C   UNL     1      50.177   2.437  16.960  0.00  0.00    +0.000 A 
ATOM     31  O   UNL     1      49.508   1.709  16.235  0.00  0.00    +0.000 OA
ATOM     32  C   UNL     1      49.782   3.775  17.358  0.00  0.00    +0.000 A 
ATOM     33  H   UNL     1      51.675   1.089  17.218  0.00  0.00    +0.000 HD
ENDBRANCH  20  23
ENDBRANCH  18  19
ENDBRANCH   4  18
TORSDOF 6
ENDMDL
MODEL 7
REMARK VINA RESULT:    -6.690      4.710      7.285
REMARK INTER + INTRA:         -10.242
REMARK INTER:                  -9.246
REMARK INTRA:                  -0.996
REMARK UNBOUND:                -1.206
REMARK  Name = 
REMARK  6 active torsions:
REMARK  status: ('A' for Active; 'I' for Inactive)
REMARK    1  A    between atoms: C_2  and  C_25
REMARK    2  A    between atoms: N_3  and  C_4
REMARK    3  A    between atoms: C_4  and  C_5
REMARK    4  A    between atoms: C_8  and  C_9
REMARK    5  A    between atoms: C_9  and  N_10
REMARK    6  A    between atoms: C_11  and  C_13
REMARK                            x       y       z     vdW  Elec       q    Type
REMARK                         _______ _______ _______ _____ _____    ______ ____
ROOT
ATOM      1  C   UNL     1      50.582   8.854  11.631  0.00  0.00    +0.000 A 
ATOM      2  C   UNL     1      49.908   7.650  11.386  0.00  0.00    +0.000 A 
ATOM      3  C   UNL     1      48.593   7.465  11.828  0.00  0.00    +0.000 A 
ATOM      4  C   UNL     1      47.919   8.490  12.505  0.00  0.00    +0.000 A 
ATOM      5  C   UNL     1      48.599   9.687  12.764  0.00  0.00    +0.000 A 
ATOM      6  C   UNL     1      49.912   9.872  12.322  0.00  0.00    +0.000 A 
ENDROOT
BRANCH   1   7
ATOM      7  C   UNL     1      51.984   9.065  11.119  0.00  0.00    +0.000 C 
BRANCH   7  10
ATOM      8  O   UNL     1      54.012   7.123  11.083  0.00  0.00    +0.000 OA
ATOM      9  C   UNL     1      53.292   7.251  10.101  0.00  0.00    +0.000 C 
ATOM     10  N   UNL     1      52.271   8.175  10.020  0.00  0.00    +0.000 N 
ATOM     11  H   UNL     1      51.578   8.094   9.287  0.00  0.00    +0.000 HD
BRANCH   9  12
ATOM     12  C   UNL     1      53.470   6.377   8.921  0.00  0.00    +0.000 A 
ATOM     13  C   UNL     1      54.415   5.348   8.882  0.00  0.00    +0.000 A 
ATOM     14  C   UNL     1      54.522   4.561   7.736  0.00  0.00    +0.000 A 
ATOM     15  C   UNL     1      53.675   4.829   6.671  0.00  0.00    +0.000 A 
ATOM     16  N   UNL     1      52.743   5.807   6.682  0.00  0.00    +0.000 NA
ATOM     17  C   UNL     1      52.652   6.553   7.813  0.00  0.00    +0.000 A 
ENDBRANCH   9  12
ENDBRANCH   7  10
ENDBRANCH   1   7
BRANCH   4  18
ATOM     18  C   UNL     1      46.503   8.297  12.990  0.00  0.00    +0.000 C 
BRANCH  18  19
ATOM     19  N   UNL     1      46.036   6.967  12.701  0.00  0.00    +0.000 N 
ATOM     20  C   UNL     1      44.987   6.736  11.848  0.00  0.00    +0.000 C 
ATOM     21  O   UNL     1      44.420   7.646  11.250  0.00  0.00    +0.000 OA
ATOM     22  H   UNL     1      46.316   6.238  13.350  0.00  0.00    +0.000 HD
BRANCH  20  23
ATOM     23  C   UNL     1      44.623   5.329  11.631  0.00  0.00    +0.000 A 
ATOM     24  C   UNL     1      43.936   4.632  12.617  0.00  0.00    +0.000 A 
ATOM     25  S   UNL     1      43.519   3.041  12.164  0.00  0.00    +0.000 S 
ATOM     26  C   UNL     1      44.291   3.207  10.657  0.00  0.00    +0.000 A 
ATOM     27  N   UNL     1      44.314   2.181   9.764  0.00  0.00    +0.000 NA
ATOM     28  C   UNL     1      44.960   2.436   8.674  0.00  0.00    +0.000 A 
ATOM     29  N   UNL     1      45.586   3.624   8.398  0.00  0.00    +0.000 N 
ATOM     30  C   UNL     1      45.572   4.693   9.260  0.00  0.00    +0.000 A 
ATOM     31  O   UNL     1      46.122   5.751   8.972  0.00  0.00    +0.000 OA
ATOM     32  C   UNL     1      44.854   4.461  10.500  0.00  0.00    +0.000 A 
ATOM     33  H   UNL     1      46.075   3.762   7.526  0.00  0.00    +0.000 HD
ENDBRANCH  20  23
ENDBRANCH  18  19
ENDBRANCH   4  18
TORSDOF 6
ENDMDL
MODEL 8
REMARK VINA RESULT:    -6.414      4.348      5.559
REMARK INTER + INTRA:          -9.870
REMARK INTER:                  -8.807
REMARK INTRA:                  -1.063
REMARK UNBOUND:                -1.206
REMARK  Name = 
REMARK  6 active torsions:
REMARK  status: ('A' for Active; 'I' for Inactive)
REMARK    1  A    between atoms: C_2  and  C_25
REMARK    2  A    between atoms: N_3  and  C_4
REMARK    3  A    between atoms: C_4  and  C_5
REMARK    4  A    between atoms: C_8  and  C_9
REMARK    5  A    between atoms: C_9  and  N_10
REMARK    6  A    between atoms: C_11  and  C_13
REMARK                            x       y       z     vdW  Elec       q    Type
REMARK                         _______ _______ _______ _____ _____    ______ ____
ROOT
ATOM      1  C   UNL     1      44.493   7.554  11.566  0.00  0.00    +0.000 A 
ATOM      2  C   UNL     1      44.005   8.741  11.002  0.00  0.00    +0.000 A 
ATOM      3  C   UNL     1      44.672   9.955  11.203  0.00  0.00    +0.000 A 
ATOM      4  C   UNL     1      45.854  10.002  11.955  0.00  0.00    +0.000 A 
ATOM      5  C   UNL     1      46.332   8.818  12.531  0.00  0.00    +0.000 A 
ATOM      6  C   UNL     1      45.666   7.605  12.330  0.00  0.00    +0.000 A 
ENDROOT
BRANCH   1   7
ATOM      7  C   UNL     1      43.795   6.243  11.315  0.00  0.00    +0.000 C 
BRANCH   7  10
ATOM      8  O   UNL     1      43.264   3.551  10.717  0.00  0.00    +0.000 OA
ATOM      9  C   UNL     1      44.205   4.108  10.168  0.00  0.00    +0.000 C 
ATOM     10  N   UNL     1      44.548   5.425  10.394  0.00  0.00    +0.000 N 
ATOM     11  H   UNL     1      45.186   5.893   9.764  0.00  0.00    +0.000 HD
BRANCH   9  12
ATOM     12  C   UNL     1      45.036   3.382   9.183  0.00  0.00    +0.000 A 
ATOM     13  C   UNL     1      45.718   4.030   8.149  0.00  0.00    +0.000 A 
ATOM     14  C   UNL     1      46.486   3.279   7.261  0.00  0.00    +0.000 A 
ATOM     15  C   UNL     1      46.548   1.906   7.441  0.00  0.00    +0.000 A 
ATOM     16  N   UNL     1      45.911   1.251   8.437  0.00  0.00    +0.000 NA
ATOM     17  C   UNL     1      45.178   2.006   9.295  0.00  0.00    +0.000 A 
ENDBRANCH   9  12
ENDBRANCH   7  10
ENDBRANCH   1   7
BRANCH   4  18
ATOM     18  C   UNL     1      46.577  11.306  12.181  0.00  0.00    +0.000 C 
BRANCH  18  19
ATOM     19  N   UNL     1      47.998  11.141  12.025  0.00  0.00    +0.000 N 
ATOM     20  C   UNL     1      48.627  11.370  10.827  0.00  0.00    +0.000 C 
ATOM     21  O   UNL     1      48.020  11.771   9.838  0.00  0.00    +0.000 OA
ATOM     22  H   UNL     1      48.471  10.591  12.734  0.00  0.00    +0.000 HD
BRANCH  20  23
ATOM     23  C   UNL     1      50.084  11.178  10.810  0.00  0.00    +0.000 A 
ATOM     24  C   UNL     1      50.920  12.246  10.513  0.00  0.00    +0.000 A 
ATOM     25  S   UNL     1      52.580  11.866  10.623  0.00  0.00    +0.000 S 
ATOM     26  C   UNL     1      52.240  10.245  11.014  0.00  0.00    +0.000 A 
ATOM     27  N   UNL     1      53.242   9.352  11.232  0.00  0.00    +0.000 NA
ATOM     28  C   UNL     1      52.841   8.151  11.490  0.00  0.00    +0.000 A 
ATOM     29  N   UNL     1      51.527   7.764  11.548  0.00  0.00    +0.000 N 
ATOM     30  C   UNL     1      50.482   8.634  11.354  0.00  0.00    +0.000 A 
ATOM     31  O   UNL     1      49.318   8.260  11.437  0.00  0.00    +0.000 OA
ATOM     32  C   UNL     1      50.879  10.000  11.066  0.00  0.00    +0.000 A 
ATOM     33  H   UNL     1      51.277   6.808  11.755  0.00  0.00    +0.000 HD
ENDBRANCH  20  23
ENDBRANCH  18  19
ENDBRANCH   4  18
TORSDOF 6
ENDMDL
MODEL 9
REMARK VINA RESULT:    -6.388      3.206      4.658
REMARK INTER + INTRA:          -9.834
REMARK INTER:                  -9.053
REMARK INTRA:                  -0.781
REMARK UNBOUND:                -1.206
REMARK  Name = 
REMARK  6 active torsions:
REMARK  status: ('A' for Active; 'I' for Inactive)
REMARK    1  A    between atoms: C_2  and  C_25
REMARK    2  A    between atoms: N_3  and  C_4
REMARK    3  A    between atoms: C_4  and  C_5
REMARK    4  A    between atoms: C_8  and  C_9
REMARK    5  A    between atoms: C_9  and  N_10
REMARK    6  A    between atoms: C_11  and  C_13
REMARK                            x       y       z     vdW  Elec       q    Type
REMARK                         _______ _______ _______ _____ _____    ______ ____
ROOT
ATOM      1  C   UNL     1      45.083   4.791  11.389  0.00  0.00    +0.000 A 
ATOM      2  C   UNL     1      45.639   6.078  11.366  0.00  0.00    +0.000 A 
ATOM      3  C   UNL     1      46.546   6.482  12.353  0.00  0.00    +0.000 A 
ATOM      4  C   UNL     1      46.932   5.599  13.369  0.00  0.00    +0.000 A 
ATOM      5  C   UNL     1      46.364   4.319  13.401  0.00  0.00    +0.000 A 
ATOM      6  C   UNL     1      45.458   3.914  12.415  0.00  0.00    +0.000 A 
ENDROOT
BRANCH   1   7
ATOM      7  C   UNL     1      44.138   4.346  10.303  0.00  0.00    +0.000 C 
BRANCH   7  10
ATOM      8  O   UNL     1      45.871   5.048   8.208  0.00  0.00    +0.000 OA
ATOM      9  C   UNL     1      45.621   3.866   8.404  0.00  0.00    +0.000 C 
ATOM     10  N   UNL     1      44.784   3.419   9.404  0.00  0.00    +0.000 N 
ATOM     11  H   UNL     1      44.782   2.440   9.659  0.00  0.00    +0.000 HD
BRANCH   9  12
ATOM     12  C   UNL     1      46.245   2.819   7.566  0.00  0.00    +0.000 A 
ATOM     13  C   UNL     1      46.443   1.511   8.016  0.00  0.00    +0.000 A 
ATOM     14  C   UNL     1      47.033   0.577   7.167  0.00  0.00    +0.000 A 
ATOM     15  C   UNL     1      47.402   0.984   5.894  0.00  0.00    +0.000 A 
ATOM     16  N   UNL     1      47.213   2.237   5.423  0.00  0.00    +0.000 NA
ATOM     17  C   UNL     1      46.627   3.125   6.266  0.00  0.00    +0.000 A 
ENDBRANCH   9  12
ENDBRANCH   7  10
ENDBRANCH   1   7
BRANCH   4  18
ATOM     18  C   UNL     1      47.905   6.027  14.440  0.00  0.00    +0.000 C 
BRANCH  18  19
ATOM     19  N   UNL     1      48.732   7.112  13.979  0.00  0.00    +0.000 N 
ATOM     20  C   UNL     1      48.888   8.264  14.708  0.00  0.00    +0.000 C 
ATOM     21  O   UNL     1      48.368   8.413  15.810  0.00  0.00    +0.000 OA
ATOM     22  H   UNL     1      48.966   7.116  12.992  0.00  0.00    +0.000 HD
BRANCH  20  23
ATOM     23  C   UNL     1      49.771   9.285  14.129  0.00  0.00    +0.000 A 
ATOM     24  C   UNL     1      49.311  10.094  13.098  0.00  0.00    +0.000 A 
ATOM     25  S   UNL     1      50.435  11.280  12.606  0.00  0.00    +0.000 S 
ATOM     26  C   UNL     1      51.598  10.717  13.713  0.00  0.00    +0.000 A 
ATOM     27  N   UNL     1      52.823  11.302  13.802  0.00  0.00    +0.000 NA
ATOM     28  C   UNL     1      53.616  10.755  14.662  0.00  0.00    +0.000 A 
ATOM     29  N   UNL     1      53.294   9.673  15.442  0.00  0.00    +0.000 N 
ATOM     30  C   UNL     1      52.065   9.063  15.400  0.00  0.00    +0.000 A 
ATOM     31  O   UNL     1      51.801   8.112  16.129  0.00  0.00    +0.000 OA
ATOM     32  C   UNL     1      51.133   9.643  14.452  0.00  0.00    +0.000 A 
ATOM     33  H   UNL     1      53.959   9.291  16.097  0.00  0.00    +0.000 HD
ENDBRANCH  20  23
ENDBRANCH  18  19
ENDBRANCH   4  18
TORSDOF 6
ENDMDL
