MODEL 1
REMARK VINA RESULT:    -7.648      0.000      0.000
REMARK INTER + INTRA:         -10.507
REMARK INTER:                  -9.883
REMARK INTRA:                  -0.624
REMARK UNBOUND:                -0.624
REMARK  Name = 
REMARK  5 active torsions:
REMARK  status: ('A' for Active; 'I' for Inactive)
REMARK    1  A    between atoms: C_2  and  C_4
REMARK    2  A    between atoms: C_8  and  O_9
REMARK    3  A    between atoms: O_9  and  C_10
REMARK    4  A    between atoms: C_10  and  C_11
REMARK    5  A    between atoms: C_16  and  N_17
REMARK                            x       y       z     vdW  Elec       q    Type
REMARK                         _______ _______ _______ _____ _____    ______ ____
ROOT
ATOM      1  C   UNL     1      43.623   4.443  10.774  0.00  0.00    +0.000 C 
ENDROOT
BRANCH   1   2
ATOM      2  C   UNL     1      44.651   4.678  11.854  0.00  0.00    +0.000 A 
ATOM      3  C   UNL     1      45.253   3.596  12.506  0.00  0.00    +0.000 A 
ATOM      4  C   UNL     1      46.291   3.818  13.406  0.00  0.00    +0.000 A 
ATOM      5  C   UNL     1      46.740   5.118  13.639  0.00  0.00    +0.000 A 
ATOM      6  F   UNL     1      47.757   5.278  14.503  0.00  0.00    +0.000 F 
ATOM      7  C   UNL     1      46.159   6.237  13.016  0.00  0.00    +0.000 A 
ATOM      8  C   UNL     1      45.075   5.986  12.157  0.00  0.00    +0.000 A 
BRANCH   7   9
ATOM      9  N   UNL     1      46.651   7.522  13.143  0.00  0.00    +0.000 N 
ATOM     10  C   UNL     1      45.758   8.688  13.136  0.00  0.00    +0.000 C 
ATOM     11  C   UNL     1      46.054   9.585  11.929  0.00  0.00    +0.000 C 
ATOM     12  O   UNL     1      47.441   9.963  11.895  0.00  0.00    +0.000 OA
ATOM     13  C   UNL     1      48.270   8.792  11.783  0.00  0.00    +0.000 C 
ATOM     14  C   UNL     1      48.076   7.827  12.970  0.00  0.00    +0.000 C 
ENDBRANCH   7   9
ENDBRANCH   1   2
BRANCH   1  15
ATOM     15  O   UNL     1      43.913   3.241  10.067  0.00  0.00    +0.000 OA
BRANCH  15  20
ATOM     16  C   UNL     1      46.448   2.025   7.764  0.00  0.00    +0.000 A 
ATOM     17  C   UNL     1      46.986   3.208   7.245  0.00  0.00    +0.000 A 
ATOM     18  C   UNL     1      46.485   4.440   7.662  0.00  0.00    +0.000 A 
ATOM     19  C   UNL     1      45.454   4.495   8.604  0.00  0.00    +0.000 A 
ATOM     20  C   UNL     1      44.920   3.319   9.139  0.00  0.00    +0.000 A 
ATOM     21  C   UNL     1      45.428   2.086   8.722  0.00  0.00    +0.000 A 
BRANCH  16  23
ATOM     22  N   UNL     1      47.662   0.742   6.088  0.00  0.00    +0.000 N 
ATOM     23  C   UNL     1      46.995   0.732   7.282  0.00  0.00    +0.000 C 
ATOM     24  O   UNL     1      46.899  -0.294   7.942  0.00  0.00    +0.000 OA
ATOM     25  H   UNL     1      48.124  -0.119   5.826  0.00  0.00    +0.000 HD
ATOM     26  H   UNL     1      47.966   1.595   5.643  0.00  0.00    +0.000 HD
ENDBRANCH  16  23
ENDBRANCH  15  20
ENDBRANCH   1  15
TORSDOF 5
ENDMDL
MODEL 2
REMARK VINA RESULT:    -7.217      1.473      2.135
REMARK INTER + INTRA:          -9.950
REMARK INTER:                  -9.015
REMARK INTRA:                  -0.936
REMARK UNBOUND:                -0.624
REMARK  Name = 
REMARK  5 active torsions:
REMARK  status: ('A' for Active; 'I' for Inactive)
REMARK    1  A    between atoms: C_2  and  C_4
REMARK    2  A    between atoms: C_8  and  O_9
REMARK    3  A    between atoms: O_9  and  C_10
REMARK    4  A    between atoms: C_10  and  C_11
REMARK    5  A    between atoms: C_16  and  N_17
REMARK                            x       y       z     vdW  Elec       q    Type
REMARK                         _______ _______ _______ _____ _____    ______ ____
ROOT
ATOM      1  C   UNL     1      43.849   5.090  10.730  0.00  0.00    +0.000 C 
ENDROOT
BRANCH   1   2
ATOM      2  C   UNL     1      44.935   5.430  11.722  0.00  0.00    +0.000 A 
ATOM      3  C   UNL     1      45.206   4.576  12.797  0.00  0.00    +0.000 A 
ATOM      4  C   UNL     1      46.291   4.831  13.629  0.00  0.00    +0.000 A 
ATOM      5  C   UNL     1      47.117   5.926  13.377  0.00  0.00    +0.000 A 
ATOM      6  F   UNL     1      48.162   6.119  14.199  0.00  0.00    +0.000 F 
ATOM      7  C   UNL     1      46.877   6.819  12.317  0.00  0.00    +0.000 A 
ATOM      8  C   UNL     1      45.741   6.569  11.528  0.00  0.00    +0.000 A 
BRANCH   7   9
ATOM      9  N   UNL     1      47.736   7.847  11.976  0.00  0.00    +0.000 N 
ATOM     10  C   UNL     1      49.149   7.593  11.665  0.00  0.00    +0.000 C 
ATOM     11  C   UNL     1      50.057   8.287  12.686  0.00  0.00    +0.000 C 
ATOM     12  O   UNL     1      49.763   9.692  12.768  0.00  0.00    +0.000 OA
ATOM     13  C   UNL     1      48.401   9.889  13.190  0.00  0.00    +0.000 C 
ATOM     14  C   UNL     1      47.393   9.255  12.211  0.00  0.00    +0.000 C 
ENDBRANCH   7   9
ENDBRANCH   1   2
BRANCH   1  15
ATOM     15  O   UNL     1      44.388   5.007   9.415  0.00  0.00    +0.000 OA
BRANCH  15  20
ATOM     16  C   UNL     1      46.417   2.606   7.589  0.00  0.00    +0.000 A 
ATOM     17  C   UNL     1      45.961   1.379   8.082  0.00  0.00    +0.000 A 
ATOM     18  C   UNL     1      44.963   1.349   9.054  0.00  0.00    +0.000 A 
ATOM     19  C   UNL     1      44.412   2.541   9.530  0.00  0.00    +0.000 A 
ATOM     20  C   UNL     1      44.850   3.772   9.032  0.00  0.00    +0.000 A 
ATOM     21  C   UNL     1      45.847   3.798   8.054  0.00  0.00    +0.000 A 
BRANCH  16  23
ATOM     22  N   UNL     1      47.308   3.375   5.457  0.00  0.00    +0.000 N 
ATOM     23  C   UNL     1      47.493   2.598   6.567  0.00  0.00    +0.000 C 
ATOM     24  O   UNL     1      48.528   1.964   6.726  0.00  0.00    +0.000 OA
ATOM     25  H   UNL     1      48.093   3.447   4.823  0.00  0.00    +0.000 HD
ATOM     26  H   UNL     1      46.592   4.085   5.404  0.00  0.00    +0.000 HD
ENDBRANCH  16  23
ENDBRANCH  15  20
ENDBRANCH   1  15
TORSDOF 5
ENDMDL
MODEL 3
REMARK VINA RESULT:    -7.125      4.115      7.696
REMARK INTER + INTRA:          -9.831
REMARK INTER:                  -8.903
REMARK INTRA:                  -0.928
REMARK UNBOUND:                -0.624
REMARK  Name = 
REMARK  5 active torsions:
REMARK  status: ('A' for Active; 'I' for Inactive)
REMARK    1  A    between atoms: C_2  and  C_4
REMARK    2  A    between atoms: C_8  and  O_9
REMARK    3  A    between atoms: O_9  and  C_10
REMARK    4  A    between atoms: C_10  and  C_11
REMARK    5  A    between atoms: C_16  and  N_17
REMARK                            x       y       z     vdW  Elec       q    Type
REMARK                         _______ _______ _______ _____ _____    ______ ____
ROOT
ATOM      1  C   UNL     1      49.082   6.589  14.980  0.00  0.00    +0.000 C 
ENDROOT
BRANCH   1   2
ATOM      2  C   UNL     1      48.128   6.607  13.810  0.00  0.00    +0.000 A 
ATOM      3  C   UNL     1      48.444   7.323  12.650  0.00  0.00    +0.000 A 
ATOM      4  C   UNL     1      47.622   7.228  11.531  0.00  0.00    +0.000 A 
ATOM      5  C   UNL     1      46.497   6.403  11.564  0.00  0.00    +0.000 A 
ATOM      6  F   UNL     1      45.746   6.332  10.452  0.00  0.00    +0.000 F 
ATOM      7  C   UNL     1      46.134   5.674  12.710  0.00  0.00    +0.000 A 
ATOM      8  C   UNL     1      46.950   5.834  13.843  0.00  0.00    +0.000 A 
BRANCH   7   9
ATOM      9  N   UNL     1      45.091   4.767  12.739  0.00  0.00    +0.000 N 
ATOM     10  C   UNL     1      45.255   3.396  12.236  0.00  0.00    +0.000 C 
ATOM     11  C   UNL     1      44.337   3.151  11.034  0.00  0.00    +0.000 C 
ATOM     12  O   UNL     1      42.969   3.451  11.361  0.00  0.00    +0.000 OA
ATOM     13  C   UNL     1      42.841   4.834  11.733  0.00  0.00    +0.000 C 
ATOM     14  C   UNL     1      43.703   5.188  12.961  0.00  0.00    +0.000 C 
ENDBRANCH   7   9
ENDBRANCH   1   2
BRANCH   1  15
ATOM     15  O   UNL     1      48.373   6.786  16.200  0.00  0.00    +0.000 OA
BRANCH  15  20
ATOM     16  C   UNL     1      49.281   3.520  17.512  0.00  0.00    +0.000 A 
ATOM     17  C   UNL     1      48.848   3.590  18.841  0.00  0.00    +0.000 A 
ATOM     18  C   UNL     1      48.251   4.756  19.315  0.00  0.00    +0.000 A 
ATOM     19  C   UNL     1      48.075   5.851  18.464  0.00  0.00    +0.000 A 
ATOM     20  C   UNL     1      48.491   5.785  17.131  0.00  0.00    +0.000 A 
ATOM     21  C   UNL     1      49.085   4.612  16.657  0.00  0.00    +0.000 A 
BRANCH  16  23
ATOM     22  N   UNL     1      50.940   1.764  17.820  0.00  0.00    +0.000 N 
ATOM     23  C   UNL     1      49.930   2.268  17.048  0.00  0.00    +0.000 C 
ATOM     24  O   UNL     1      49.550   1.680  16.044  0.00  0.00    +0.000 OA
ATOM     25  H   UNL     1      51.297   0.856  17.553  0.00  0.00    +0.000 HD
ATOM     26  H   UNL     1      51.114   2.082  18.762  0.00  0.00    +0.000 HD
ENDBRANCH  16  23
ENDBRANCH  15  20
ENDBRANCH   1  15
TORSDOF 5
ENDMDL
MODEL 4
REMARK VINA RESULT:    -7.086      3.635      7.704
REMARK INTER + INTRA:          -9.781
REMARK INTER:                  -8.805
REMARK INTRA:                  -0.976
REMARK UNBOUND:                -0.624
REMARK  Name = 
REMARK  5 active torsions:
REMARK  status: ('A' for Active; 'I' for Inactive)
REMARK    1  A    between atoms: C_2  and  C_4
REMARK    2  A    between atoms: C_8  and  O_9
REMARK    3  A    between atoms: O_9  and  C_10
REMARK    4  A    between atoms: C_10  and  C_11
REMARK    5  A    between atoms: C_16  and  N_17
REMARK                            x       y       z     vdW  Elec       q    Type
REMARK                         _______ _______ _______ _____ _____    ______ ____
ROOT
ATOM      1  C   UNL     1      48.886   7.697  13.793  0.00  0.00    +0.000 C 
ENDROOT
BRANCH   1   2
ATOM      2  C   UNL     1      47.472   7.504  13.299  0.00  0.00    +0.000 A 
ATOM      3  C   UNL     1      46.599   8.593  13.210  0.00  0.00    +0.000 A 
ATOM      4  C   UNL     1      45.343   8.430  12.632  0.00  0.00    +0.000 A 
ATOM      5  C   UNL     1      44.969   7.185  12.127  0.00  0.00    +0.000 A 
ATOM      6  F   UNL     1      43.753   7.083  11.563  0.00  0.00    +0.000 F 
ATOM      7  C   UNL     1      45.808   6.059  12.205  0.00  0.00    +0.000 A 
ATOM      8  C   UNL     1      47.046   6.240  12.844  0.00  0.00    +0.000 A 
BRANCH   7   9
ATOM      9  N   UNL     1      45.511   4.844  11.618  0.00  0.00    +0.000 N 
ATOM     10  C   UNL     1      45.335   4.718  10.165  0.00  0.00    +0.000 C 
ATOM     11  C   UNL     1      43.903   4.287   9.832  0.00  0.00    +0.000 C 
ATOM     12  O   UNL     1      43.552   3.078  10.528  0.00  0.00    +0.000 OA
ATOM     13  C   UNL     1      43.626   3.288  11.950  0.00  0.00    +0.000 C 
ATOM     14  C   UNL     1      45.041   3.696  12.404  0.00  0.00    +0.000 C 
ENDBRANCH   7   9
ENDBRANCH   1   2
BRANCH   1  15
ATOM     15  O   UNL     1      49.323   6.544  14.507  0.00  0.00    +0.000 OA
BRANCH  15  20
ATOM     16  C   UNL     1      48.030   4.966  17.515  0.00  0.00    +0.000 A 
ATOM     17  C   UNL     1      48.023   6.018  18.437  0.00  0.00    +0.000 A 
ATOM     18  C   UNL     1      48.470   7.280  18.052  0.00  0.00    +0.000 A 
ATOM     19  C   UNL     1      48.917   7.499  16.746  0.00  0.00    +0.000 A 
ATOM     20  C   UNL     1      48.914   6.457  15.814  0.00  0.00    +0.000 A 
ATOM     21  C   UNL     1      48.460   5.193  16.201  0.00  0.00    +0.000 A 
BRANCH  16  23
ATOM     22  N   UNL     1      48.179   3.090  19.061  0.00  0.00    +0.000 N 
ATOM     23  C   UNL     1      47.563   3.631  17.966  0.00  0.00    +0.000 C 
ATOM     24  O   UNL     1      46.634   3.054  17.416  0.00  0.00    +0.000 OA
ATOM     25  H   UNL     1      47.779   2.235  19.423  0.00  0.00    +0.000 HD
ATOM     26  H   UNL     1      48.771   3.632  19.674  0.00  0.00    +0.000 HD
ENDBRANCH  16  23
ENDBRANCH  15  20
ENDBRANCH   1  15
TORSDOF 5
ENDMDL
MODEL 5
REMARK VINA RESULT:    -6.513      2.982      7.107
REMARK INTER + INTRA:          -9.041
REMARK INTER:                  -8.039
REMARK INTRA:                  -1.002
REMARK UNBOUND:                -0.624
REMARK  Name = 
REMARK  5 active torsions:
REMARK  status: ('A' for Active; 'I' for Inactive)
REMARK    1  A    between atoms: C_2  and  C_4
REMARK    2  A    between atoms: C_8  and  O_9
REMARK    3  A    between atoms: O_9  and  C_10
REMARK    4  A    between atoms: C_10  and  C_11
REMARK    5  A    between atoms: C_16  and  N_17
REMARK                            x       y       z     vdW  Elec       q    Type
REMARK                         _______ _______ _______ _____ _____    ______ ____
ROOT
ATOM      1  C   UNL     1      48.671   8.742  11.983  0.00  0.00    +0.000 C 
ENDROOT
BRANCH   1   2
ATOM      2  C   UNL     1      48.007   7.459  12.422  0.00  0.00    +0.000 A 
ATOM      3  C   UNL     1      48.351   6.867  13.642  0.00  0.00    +0.000 A 
ATOM      4  C   UNL     1      47.643   5.758  14.098  0.00  0.00    +0.000 A 
ATOM      5  C   UNL     1      46.582   5.255  13.346  0.00  0.00    +0.000 A 
ATOM      6  F   UNL     1      45.919   4.195  13.838  0.00  0.00    +0.000 F 
ATOM      7  C   UNL     1      46.208   5.810  12.108  0.00  0.00    +0.000 A 
ATOM      8  C   UNL     1      46.977   6.892  11.647  0.00  0.00    +0.000 A 
BRANCH   7   9
ATOM      9  N   UNL     1      45.097   5.405  11.395  0.00  0.00    +0.000 N 
ATOM     10  C   UNL     1      43.748   5.866  11.750  0.00  0.00    +0.000 C 
ATOM     11  C   UNL     1      42.872   4.686  12.181  0.00  0.00    +0.000 C 
ATOM     12  O   UNL     1      42.847   3.664  11.169  0.00  0.00    +0.000 OA
ATOM     13  C   UNL     1      44.176   3.162  10.942  0.00  0.00    +0.000 C 
ATOM     14  C   UNL     1      45.142   4.266  10.469  0.00  0.00    +0.000 C 
ENDBRANCH   7   9
ENDBRANCH   1   2
BRANCH   1  15
ATOM     15  O   UNL     1      48.011   9.864  12.561  0.00  0.00    +0.000 OA
BRANCH  15  20
ATOM     16  C   UNL     1      44.786  10.793  11.163  0.00  0.00    +0.000 A 
ATOM     17  C   UNL     1      45.131  11.744  10.197  0.00  0.00    +0.000 A 
ATOM     18  C   UNL     1      46.467  12.094  10.014  0.00  0.00    +0.000 A 
ATOM     19  C   UNL     1      47.463  11.490  10.787  0.00  0.00    +0.000 A 
ATOM     20  C   UNL     1      47.129  10.528  11.745  0.00  0.00    +0.000 A 
ATOM     21  C   UNL     1      45.789  10.175  11.922  0.00  0.00    +0.000 A 
BRANCH  16  23
ATOM     22  N   UNL     1      42.900   9.306  10.761  0.00  0.00    +0.000 N 
ATOM     23  C   UNL     1      43.351  10.459  11.342  0.00  0.00    +0.000 C 
ATOM     24  O   UNL     1      42.607  11.156  12.020  0.00  0.00    +0.000 OA
ATOM     25  H   UNL     1      41.951   9.034  10.982  0.00  0.00    +0.000 HD
ATOM     26  H   UNL     1      43.524   8.596  10.407  0.00  0.00    +0.000 HD
ENDBRANCH  16  23
ENDBRANCH  15  20
ENDBRANCH   1  15
TORSDOF 5
ENDMDL
MODEL 6
REMARK VINA RESULT:    -6.406      4.052      7.993
REMARK INTER + INTRA:          -8.902
REMARK INTER:                  -8.105
REMARK INTRA:                  -0.797
REMARK UNBOUND:                -0.624
REMARK  Name = 
REMARK  5 active torsions:
REMARK  status: ('A' for Active; 'I' for Inactive)
REMARK    1  A    between atoms: C_2  and  C_4
REMARK    2  A    between atoms: C_8  and  O_9
REMARK    3  A    between atoms: O_9  and  C_10
REMARK    4  A    between atoms: C_10  and  C_11
REMARK    5  A    between atoms: C_16  and  N_17
REMARK                            x       y       z     vdW  Elec       q    Type
REMARK                         _______ _______ _______ _____ _____    ______ ____
ROOT
ATOM      1  C   UNL     1      48.244   6.123  13.707  0.00  0.00    +0.000 C 
ENDROOT
BRANCH   1   2
ATOM      2  C   UNL     1      46.953   6.620  13.103  0.00  0.00    +0.000 A 
ATOM      3  C   UNL     1      46.720   7.992  12.961  0.00  0.00    +0.000 A 
ATOM      4  C   UNL     1      45.587   8.437  12.286  0.00  0.00    +0.000 A 
ATOM      5  C   UNL     1      44.698   7.512  11.738  0.00  0.00    +0.000 A 
ATOM      6  F   UNL     1      43.629   7.992  11.081  0.00  0.00    +0.000 F 
ATOM      7  C   UNL     1      44.884   6.124  11.866  0.00  0.00    +0.000 A 
ATOM      8  C   UNL     1      46.006   5.705  12.601  0.00  0.00    +0.000 A 
BRANCH   7   9
ATOM      9  N   UNL     1      44.083   5.186  11.243  0.00  0.00    +0.000 N 
ATOM     10  C   UNL     1      43.062   4.435  11.987  0.00  0.00    +0.000 C 
ATOM     11  C   UNL     1      43.388   2.938  11.984  0.00  0.00    +0.000 C 
ATOM     12  O   UNL     1      43.552   2.448  10.642  0.00  0.00    +0.000 OA
ATOM     13  C   UNL     1      44.641   3.132   9.996  0.00  0.00    +0.000 C 
ATOM     14  C   UNL     1      44.403   4.653   9.913  0.00  0.00    +0.000 C 
ENDBRANCH   7   9
ENDBRANCH   1   2
BRANCH   1  15
ATOM     15  O   UNL     1      48.307   6.461  15.090  0.00  0.00    +0.000 OA
BRANCH  15  20
ATOM     16  C   UNL     1      48.906   4.537  18.115  0.00  0.00    +0.000 A 
ATOM     17  C   UNL     1      48.103   3.407  17.926  0.00  0.00    +0.000 A 
ATOM     18  C   UNL     1      47.334   3.287  16.770  0.00  0.00    +0.000 A 
ATOM     19  C   UNL     1      47.371   4.289  15.796  0.00  0.00    +0.000 A 
ATOM     20  C   UNL     1      48.182   5.415  15.969  0.00  0.00    +0.000 A 
ATOM     21  C   UNL     1      48.956   5.529  17.128  0.00  0.00    +0.000 A 
BRANCH  16  23
ATOM     22  N   UNL     1      51.029   4.339  19.291  0.00  0.00    +0.000 N 
ATOM     23  C   UNL     1      49.697   4.637  19.367  0.00  0.00    +0.000 C 
ATOM     24  O   UNL     1      49.194   5.017  20.417  0.00  0.00    +0.000 OA
ATOM     25  H   UNL     1      51.577   4.518  20.122  0.00  0.00    +0.000 HD
ATOM     26  H   UNL     1      51.518   4.260  18.412  0.00  0.00    +0.000 HD
ENDBRANCH  16  23
ENDBRANCH  15  20
ENDBRANCH   1  15
TORSDOF 5
ENDMDL
MODEL 7
REMARK VINA RESULT:    -6.401      4.340      5.681
REMARK INTER + INTRA:          -8.896
REMARK INTER:                  -8.139
REMARK INTRA:                  -0.758
REMARK UNBOUND:                -0.624
REMARK  Name = 
REMARK  5 active torsions:
REMARK  status: ('A' for Active; 'I' for Inactive)
REMARK    1  A    between atoms: C_2  and  C_4
REMARK    2  A    between atoms: C_8  and  O_9
REMARK    3  A    between atoms: O_9  and  C_10
REMARK    4  A    between atoms: C_10  and  C_11
REMARK    5  A    between atoms: C_16  and  N_17
REMARK                            x       y       z     vdW  Elec       q    Type
REMARK                         _______ _______ _______ _____ _____    ______ ____
ROOT
ATOM      1  C   UNL     1      47.298   3.900  15.079  0.00  0.00    +0.000 C 
ENDROOT
BRANCH   1   2
ATOM      2  C   UNL     1      47.698   4.076  16.525  0.00  0.00    +0.000 A 
ATOM      3  C   UNL     1      47.917   2.959  17.339  0.00  0.00    +0.000 A 
ATOM      4  C   UNL     1      48.410   3.129  18.629  0.00  0.00    +0.000 A 
ATOM      5  C   UNL     1      48.703   4.409  19.098  0.00  0.00    +0.000 A 
ATOM      6  F   UNL     1      49.194   4.518  20.344  0.00  0.00    +0.000 F 
ATOM      7  C   UNL     1      48.487   5.561  18.320  0.00  0.00    +0.000 A 
ATOM      8  C   UNL     1      47.935   5.364  17.043  0.00  0.00    +0.000 A 
BRANCH   7   9
ATOM      9  N   UNL     1      48.868   6.830  18.715  0.00  0.00    +0.000 N 
ATOM     10  C   UNL     1      47.873   7.864  19.032  0.00  0.00    +0.000 C 
ATOM     11  C   UNL     1      47.986   9.037  18.053  0.00  0.00    +0.000 C 
ATOM     12  O   UNL     1      49.326   9.561  18.028  0.00  0.00    +0.000 OA
ATOM     13  C   UNL     1      50.247   8.542  17.598  0.00  0.00    +0.000 C 
ATOM     14  C   UNL     1      50.240   7.319  18.536  0.00  0.00    +0.000 C 
ENDBRANCH   7   9
ENDBRANCH   1   2
BRANCH   1  15
ATOM     15  O   UNL     1      47.538   5.100  14.350  0.00  0.00    +0.000 OA
BRANCH  15  20
ATOM     16  C   UNL     1      45.124   4.252  11.768  0.00  0.00    +0.000 A 
ATOM     17  C   UNL     1      45.248   5.316  10.868  0.00  0.00    +0.000 A 
ATOM     18  C   UNL     1      46.148   6.346  11.132  0.00  0.00    +0.000 A 
ATOM     19  C   UNL     1      46.932   6.315  12.289  0.00  0.00    +0.000 A 
ATOM     20  C   UNL     1      46.825   5.248  13.186  0.00  0.00    +0.000 A 
ATOM     21  C   UNL     1      45.926   4.213  12.916  0.00  0.00    +0.000 A 
BRANCH  16  23
ATOM     22  N   UNL     1      43.739   2.387  12.499  0.00  0.00    +0.000 N 
ATOM     23  C   UNL     1      44.142   3.181  11.462  0.00  0.00    +0.000 C 
ATOM     24  O   UNL     1      43.672   3.040  10.340  0.00  0.00    +0.000 OA
ATOM     25  H   UNL     1      42.990   1.737  12.302  0.00  0.00    +0.000 HD
ATOM     26  H   UNL     1      43.916   2.624  13.465  0.00  0.00    +0.000 HD
ENDBRANCH  16  23
ENDBRANCH  15  20
ENDBRANCH   1  15
TORSDOF 5
ENDMDL
MODEL 8
REMARK VINA RESULT:    -6.339      4.125      6.566
REMARK INTER + INTRA:          -8.816
REMARK INTER:                  -7.714
REMARK INTRA:                  -1.102
REMARK UNBOUND:                -0.624
REMARK  Name = 
REMARK  5 active torsions:
REMARK  status: ('A' for Active; 'I' for Inactive)
REMARK    1  A    between atoms: C_2  and  C_4
REMARK    2  A    between atoms: C_8  and  O_9
REMARK    3  A    between atoms: O_9  and  C_10
REMARK    4  A    between atoms: C_10  and  C_11
REMARK    5  A    between atoms: C_16  and  N_17
REMARK                            x       y       z     vdW  Elec       q    Type
REMARK                         _______ _______ _______ _____ _____    ______ ____
ROOT
ATOM      1  C   UNL     1      49.367   7.557  13.449  0.00  0.00    +0.000 C 
ENDROOT
BRANCH   1   2
ATOM      2  C   UNL     1      49.099   7.742  14.923  0.00  0.00    +0.000 A 
ATOM      3  C   UNL     1      48.699   8.988  15.419  0.00  0.00    +0.000 A 
ATOM      4  C   UNL     1      48.329   9.116  16.755  0.00  0.00    +0.000 A 
ATOM      5  C   UNL     1      48.339   7.998  17.588  0.00  0.00    +0.000 A 
ATOM      6  F   UNL     1      47.955   8.170  18.865  0.00  0.00    +0.000 F 
ATOM      7  C   UNL     1      48.744   6.728  17.137  0.00  0.00    +0.000 A 
ATOM      8  C   UNL     1      49.166   6.641  15.800  0.00  0.00    +0.000 A 
BRANCH   7   9
ATOM      9  N   UNL     1      48.660   5.583  17.907  0.00  0.00    +0.000 N 
ATOM     10  C   UNL     1      49.865   4.868  18.348  0.00  0.00    +0.000 C 
ATOM     11  C   UNL     1      49.905   3.460  17.745  0.00  0.00    +0.000 C 
ATOM     12  O   UNL     1      48.701   2.734  18.048  0.00  0.00    +0.000 OA
ATOM     13  C   UNL     1      47.561   3.415  17.493  0.00  0.00    +0.000 C 
ATOM     14  C   UNL     1      47.404   4.840  18.058  0.00  0.00    +0.000 C 
ENDBRANCH   7   9
ENDBRANCH   1   2
BRANCH   1  15
ATOM     15  O   UNL     1      48.779   6.346  12.987  0.00  0.00    +0.000 OA
BRANCH  15  20
ATOM     16  C   UNL     1      45.366   5.149  12.614  0.00  0.00    +0.000 A 
ATOM     17  C   UNL     1      44.697   6.274  12.120  0.00  0.00    +0.000 A 
ATOM     18  C   UNL     1      45.395   7.463  11.917  0.00  0.00    +0.000 A 
ATOM     19  C   UNL     1      46.763   7.531  12.197  0.00  0.00    +0.000 A 
ATOM     20  C   UNL     1      47.443   6.407  12.678  0.00  0.00    +0.000 A 
ATOM     21  C   UNL     1      46.741   5.215  12.875  0.00  0.00    +0.000 A 
BRANCH  16  23
ATOM     22  N   UNL     1      45.195   2.722  12.524  0.00  0.00    +0.000 N 
ATOM     23  C   UNL     1      44.586   3.906  12.835  0.00  0.00    +0.000 C 
ATOM     24  O   UNL     1      43.462   3.929  13.320  0.00  0.00    +0.000 OA
ATOM     25  H   UNL     1      44.696   1.880  12.782  0.00  0.00    +0.000 HD
ATOM     26  H   UNL     1      46.187   2.650  12.355  0.00  0.00    +0.000 HD
ENDBRANCH  16  23
ENDBRANCH  15  20
ENDBRANCH   1  15
TORSDOF 5
ENDMDL
MODEL 9
REMARK VINA RESULT:    -6.168      3.074      4.772
REMARK INTER + INTRA:          -8.594
REMARK INTER:                  -8.301
REMARK INTRA:                  -0.293
REMARK UNBOUND:                -0.624
REMARK  Name = 
REMARK  5 active torsions:
REMARK  status: ('A' for Active; 'I' for Inactive)
REMARK    1  A    between atoms: C_2  and  C_4
REMARK    2  A    between atoms: C_8  and  O_9
REMARK    3  A    between atoms: O_9  and  C_10
REMARK    4  A    between atoms: C_10  and  C_11
REMARK    5  A    between atoms: C_16  and  N_17
REMARK                            x       y       z     vdW  Elec       q    Type
REMARK                         _______ _______ _______ _____ _____    ______ ____
ROOT
ATOM      1  C   UNL     1      45.911   7.108  11.787  0.00  0.00    +0.000 C 
ENDROOT
BRANCH   1   2
ATOM      2  C   UNL     1      47.152   6.960  12.635  0.00  0.00    +0.000 A 
ATOM      3  C   UNL     1      48.309   7.684  12.328  0.00  0.00    +0.000 A 
ATOM      4  C   UNL     1      49.402   7.640  13.189  0.00  0.00    +0.000 A 
ATOM      5  C   UNL     1      49.332   6.892  14.364  0.00  0.00    +0.000 A 
ATOM      6  F   UNL     1      50.407   6.897  15.170  0.00  0.00    +0.000 F 
ATOM      7  C   UNL     1      48.194   6.140  14.708  0.00  0.00    +0.000 A 
ATOM      8  C   UNL     1      47.128   6.157  13.792  0.00  0.00    +0.000 A 
BRANCH   7   9
ATOM      9  N   UNL     1      48.053   5.478  15.913  0.00  0.00    +0.000 N 
ATOM     10  C   UNL     1      48.935   5.766  17.052  0.00  0.00    +0.000 C 
ATOM     11  C   UNL     1      49.759   4.528  17.419  0.00  0.00    +0.000 C 
ATOM     12  O   UNL     1      48.908   3.395  17.664  0.00  0.00    +0.000 OA
ATOM     13  C   UNL     1      48.151   3.080  16.481  0.00  0.00    +0.000 C 
ATOM     14  C   UNL     1      47.254   4.253  16.037  0.00  0.00    +0.000 C 
ENDBRANCH   7   9
ENDBRANCH   1   2
BRANCH   1  15
ATOM     15  O   UNL     1      44.811   6.443  12.399  0.00  0.00    +0.000 OA
BRANCH  15  20
ATOM     16  C   UNL     1      44.793   3.737   9.973  0.00  0.00    +0.000 A 
ATOM     17  C   UNL     1      43.937   2.800  10.562  0.00  0.00    +0.000 A 
ATOM     18  C   UNL     1      43.360   3.070  11.801  0.00  0.00    +0.000 A 
ATOM     19  C   UNL     1      43.629   4.277  12.452  0.00  0.00    +0.000 A 
ATOM     20  C   UNL     1      44.472   5.225  11.864  0.00  0.00    +0.000 A 
ATOM     21  C   UNL     1      45.044   4.954  10.619  0.00  0.00    +0.000 A 
BRANCH  16  23
ATOM     22  N   UNL     1      45.724   2.097   8.432  0.00  0.00    +0.000 N 
ATOM     23  C   UNL     1      45.403   3.406   8.660  0.00  0.00    +0.000 C 
ATOM     24  O   UNL     1      45.569   4.257   7.795  0.00  0.00    +0.000 OA
ATOM     25  H   UNL     1      46.034   1.868   7.497  0.00  0.00    +0.000 HD
ATOM     26  H   UNL     1      45.385   1.345   9.014  0.00  0.00    +0.000 HD
ENDBRANCH  16  23
ENDBRANCH  15  20
ENDBRANCH   1  15
TORSDOF 5
ENDMDL
