MODEL 1
REMARK VINA RESULT:    -8.260      0.000      0.000
REMARK INTER + INTRA:         -12.009
REMARK INTER:                 -11.158
REMARK INTRA:                  -0.851
REMARK UNBOUND:                -0.851
REMARK  Name = 
REMARK  7 active torsions:
REMARK  status: ('A' for Active; 'I' for Inactive)
REMARK    1  A    between atoms: C_1  and  C_2
REMARK    2  A    between atoms: C_2  and  C_3
REMARK    3  A    between atoms: C_2  and  C_14
REMARK    4  A    between atoms: C_3  and  N_4
REMARK    5  A    between atoms: C_8  and  C_9
REMARK    6  A    between atoms: C_18  and  O_19
REMARK    7  A    between atoms: O_19  and  C_20
REMARK                            x       y       z     vdW  Elec       q    Type
REMARK                         _______ _______ _______ _____ _____    ______ ____
ROOT
ATOM      1  C   UNL     1      43.487   4.167  13.126  0.00  0.00    +0.000 C 
ATOM      2  C   UNL     1      43.975   5.360  12.291  0.00  0.00    +0.000 C 
ENDROOT
BRANCH   2   3
ATOM      3  C   UNL     1      45.430   5.725  12.571  0.00  0.00    +0.000 A 
ATOM      4  C   UNL     1      46.107   6.571  11.679  0.00  0.00    +0.000 A 
ATOM      5  C   UNL     1      47.439   6.923  11.896  0.00  0.00    +0.000 A 
ATOM      6  C   UNL     1      48.125   6.434  13.010  0.00  0.00    +0.000 A 
ATOM      7  C   UNL     1      47.475   5.579  13.895  0.00  0.00    +0.000 A 
ATOM      8  C   UNL     1      46.140   5.227  13.674  0.00  0.00    +0.000 A 
BRANCH   7   9
ATOM      9  O   UNL     1      48.031   5.057  15.034  0.00  0.00    +0.000 OA
BRANCH   9  10
ATOM     10  C   UNL     1      47.206   4.281  15.931  0.00  0.00    +0.000 C 
ATOM     11  C   UNL     1      47.181   4.684  17.419  0.00  0.00    +0.000 C 
ATOM     12  N   UNL     1      47.502   3.303  17.813  0.00  0.00    +0.000 NA
ATOM     13  C   UNL     1      47.858   2.973  16.426  0.00  0.00    +0.000 C 
ATOM     14  H   UNL     1      46.706   2.775  18.172  0.00  0.00    +0.000 HD
ENDBRANCH   9  10
ENDBRANCH   7   9
ENDBRANCH   2   3
BRANCH   2  15
ATOM     15  C   UNL     1      43.742   5.087  10.787  0.00  0.00    +0.000 C 
BRANCH  15  16
ATOM     16  N   UNL     1      43.981   3.681  10.453  0.00  0.00    +0.000 N 
ATOM     17  C   UNL     1      44.857   3.424   9.394  0.00  0.00    +0.000 A 
ATOM     18  C   UNL     1      45.162   2.097   9.099  0.00  0.00    +0.000 A 
ATOM     19  C   UNL     1      46.008   1.805   8.027  0.00  0.00    +0.000 A 
ATOM     20  C   UNL     1      46.541   2.844   7.264  0.00  0.00    +0.000 A 
ATOM     21  C   UNL     1      46.218   4.131   7.651  0.00  0.00    +0.000 A 
ATOM     22  N   UNL     1      45.405   4.437   8.695  0.00  0.00    +0.000 NA
ATOM     23  H   UNL     1      43.117   3.164  10.315  0.00  0.00    +0.000 HD
BRANCH  20  24
ATOM     24  C   UNL     1      47.397   2.528   6.097  0.00  0.00    +0.000 C 
ATOM     25  N   UNL     1      48.756   2.566   6.240  0.00  0.00    +0.000 N 
ATOM     26  O   UNL     1      46.904   2.254   5.008  0.00  0.00    +0.000 OA
ATOM     27  H   UNL     1      49.262   2.821   7.074  0.00  0.00    +0.000 HD
ATOM     28  H   UNL     1      49.301   2.378   5.407  0.00  0.00    +0.000 HD
ENDBRANCH  20  24
ENDBRANCH  15  16
ENDBRANCH   2  15
TORSDOF 6
ENDMDL
MODEL 2
REMARK VINA RESULT:    -7.287      2.165      3.236
REMARK INTER + INTRA:         -10.694
REMARK INTER:                 -10.132
REMARK INTRA:                  -0.562
REMARK UNBOUND:                -0.851
REMARK  Name = 
REMARK  7 active torsions:
REMARK  status: ('A' for Active; 'I' for Inactive)
REMARK    1  A    between atoms: C_1  and  C_2
REMARK    2  A    between atoms: C_2  and  C_3
REMARK    3  A    between atoms: C_2  and  C_14
REMARK    4  A    between atoms: C_3  and  N_4
REMARK    5  A    between atoms: C_8  and  C_9
REMARK    6  A    between atoms: C_18  and  O_19
REMARK    7  A    between atoms: O_19  and  C_20
REMARK                            x       y       z     vdW  Elec       q    Type
REMARK                         _______ _______ _______ _____ _____    ______ ____
ROOT
ATOM      1  C   UNL     1      43.182   4.383  13.057  0.00  0.00    +0.000 C 
ATOM      2  C   UNL     1      43.844   5.475  12.205  0.00  0.00    +0.000 C 
ENDROOT
BRANCH   2   3
ATOM      3  C   UNL     1      45.311   5.699  12.561  0.00  0.00    +0.000 A 
ATOM      4  C   UNL     1      45.864   5.006  13.649  0.00  0.00    +0.000 A 
ATOM      5  C   UNL     1      47.199   5.189  14.012  0.00  0.00    +0.000 A 
ATOM      6  C   UNL     1      48.009   6.072  13.296  0.00  0.00    +0.000 A 
ATOM      7  C   UNL     1      47.472   6.782  12.227  0.00  0.00    +0.000 A 
ATOM      8  C   UNL     1      46.133   6.599  11.865  0.00  0.00    +0.000 A 
BRANCH   7   9
ATOM      9  O   UNL     1      48.170   7.656  11.433  0.00  0.00    +0.000 OA
BRANCH   9  10
ATOM     10  C   UNL     1      48.267   9.043  11.823  0.00  0.00    +0.000 C 
ATOM     11  C   UNL     1      49.177   9.396  13.017  0.00  0.00    +0.000 C 
ATOM     12  N   UNL     1      48.073  10.129  13.659  0.00  0.00    +0.000 NA
ATOM     13  C   UNL     1      47.111   9.536  12.719  0.00  0.00    +0.000 C 
ATOM     14  H   UNL     1      48.148  11.143  13.589  0.00  0.00    +0.000 HD
ENDBRANCH   9  10
ENDBRANCH   7   9
ENDBRANCH   2   3
BRANCH   2  15
ATOM     15  C   UNL     1      43.673   5.154  10.702  0.00  0.00    +0.000 C 
BRANCH  15  16
ATOM     16  N   UNL     1      43.956   3.745  10.418  0.00  0.00    +0.000 N 
ATOM     17  C   UNL     1      44.851   3.477   9.378  0.00  0.00    +0.000 A 
ATOM     18  C   UNL     1      45.198   2.151   9.131  0.00  0.00    +0.000 A 
ATOM     19  C   UNL     1      46.065   1.848   8.079  0.00  0.00    +0.000 A 
ATOM     20  C   UNL     1      46.576   2.876   7.287  0.00  0.00    +0.000 A 
ATOM     21  C   UNL     1      46.211   4.166   7.627  0.00  0.00    +0.000 A 
ATOM     22  N   UNL     1      45.378   4.482   8.651  0.00  0.00    +0.000 NA
ATOM     23  H   UNL     1      43.109   3.198  10.289  0.00  0.00    +0.000 HD
BRANCH  20  24
ATOM     24  C   UNL     1      47.454   2.547   6.140  0.00  0.00    +0.000 C 
ATOM     25  N   UNL     1      48.804   2.458   6.341  0.00  0.00    +0.000 N 
ATOM     26  O   UNL     1      46.990   2.372   5.019  0.00  0.00    +0.000 OA
ATOM     27  H   UNL     1      49.291   2.625   7.208  0.00  0.00    +0.000 HD
ATOM     28  H   UNL     1      49.368   2.266   5.523  0.00  0.00    +0.000 HD
ENDBRANCH  20  24
ENDBRANCH  15  16
ENDBRANCH   2  15
TORSDOF 6
ENDMDL
MODEL 3
REMARK VINA RESULT:    -7.154      2.778      4.276
REMARK INTER + INTRA:         -10.514
REMARK INTER:                  -9.998
REMARK INTRA:                  -0.516
REMARK UNBOUND:                -0.851
REMARK  Name = 
REMARK  7 active torsions:
REMARK  status: ('A' for Active; 'I' for Inactive)
REMARK    1  A    between atoms: C_1  and  C_2
REMARK    2  A    between atoms: C_2  and  C_3
REMARK    3  A    between atoms: C_2  and  C_14
REMARK    4  A    between atoms: C_3  and  N_4
REMARK    5  A    between atoms: C_8  and  C_9
REMARK    6  A    between atoms: C_18  and  O_19
REMARK    7  A    between atoms: O_19  and  C_20
REMARK                            x       y       z     vdW  Elec       q    Type
REMARK                         _______ _______ _______ _____ _____    ______ ____
ROOT
ATOM      1  C   UNL     1      44.093   2.994  12.669  0.00  0.00    +0.000 C 
ATOM      2  C   UNL     1      43.697   4.443  12.349  0.00  0.00    +0.000 C 
ENDROOT
BRANCH   2   3
ATOM      3  C   UNL     1      44.835   5.434  12.579  0.00  0.00    +0.000 A 
ATOM      4  C   UNL     1      46.144   4.951  12.726  0.00  0.00    +0.000 A 
ATOM      5  C   UNL     1      47.211   5.823  12.946  0.00  0.00    +0.000 A 
ATOM      6  C   UNL     1      46.990   7.199  13.026  0.00  0.00    +0.000 A 
ATOM      7  C   UNL     1      45.696   7.695  12.902  0.00  0.00    +0.000 A 
ATOM      8  C   UNL     1      44.628   6.818  12.683  0.00  0.00    +0.000 A 
BRANCH   7   9
ATOM      9  O   UNL     1      45.355   9.023  12.936  0.00  0.00    +0.000 OA
BRANCH   9  10
ATOM     10  C   UNL     1      45.206   9.747  11.695  0.00  0.00    +0.000 C 
ATOM     11  C   UNL     1      45.933  11.099  11.555  0.00  0.00    +0.000 C 
ATOM     12  N   UNL     1      44.676  11.748  11.150  0.00  0.00    +0.000 NA
ATOM     13  C   UNL     1      43.909  10.575  11.591  0.00  0.00    +0.000 C 
ATOM     14  H   UNL     1      44.606  11.936  10.150  0.00  0.00    +0.000 HD
ENDBRANCH   9  10
ENDBRANCH   7   9
ENDBRANCH   2   3
BRANCH   2  15
ATOM     15  C   UNL     1      43.151   4.539  10.906  0.00  0.00    +0.000 C 
BRANCH  15  16
ATOM     16  N   UNL     1      44.157   5.073   9.984  0.00  0.00    +0.000 N 
ATOM     17  C   UNL     1      44.892   4.142   9.243  0.00  0.00    +0.000 A 
ATOM     18  C   UNL     1      45.804   4.620   8.305  0.00  0.00    +0.000 A 
ATOM     19  C   UNL     1      46.578   3.718   7.572  0.00  0.00    +0.000 A 
ATOM     20  C   UNL     1      46.428   2.348   7.784  0.00  0.00    +0.000 A 
ATOM     21  C   UNL     1      45.472   1.960   8.705  0.00  0.00    +0.000 A 
ATOM     22  N   UNL     1      44.704   2.821   9.421  0.00  0.00    +0.000 NA
ATOM     23  H   UNL     1      44.790   5.725  10.439  0.00  0.00    +0.000 HD
BRANCH  20  24
ATOM     24  C   UNL     1      47.286   1.395   7.042  0.00  0.00    +0.000 C 
ATOM     25  N   UNL     1      48.405   1.863   6.410  0.00  0.00    +0.000 N 
ATOM     26  O   UNL     1      46.997   0.206   6.972  0.00  0.00    +0.000 OA
ATOM     27  H   UNL     1      48.709   2.823   6.368  0.00  0.00    +0.000 HD
ATOM     28  H   UNL     1      48.942   1.183   5.886  0.00  0.00    +0.000 HD
ENDBRANCH  20  24
ENDBRANCH  15  16
ENDBRANCH   2  15
TORSDOF 6
ENDMDL
MODEL 4
REMARK VINA RESULT:    -6.603      2.573      3.220
REMARK INTER + INTRA:          -9.770
REMARK INTER:                  -9.250
REMARK INTRA:                  -0.520
REMARK UNBOUND:                -0.851
REMARK  Name = 
REMARK  7 active torsions:
REMARK  status: ('A' for Active; 'I' for Inactive)
REMARK    1  A    between atoms: C_1  and  C_2
REMARK    2  A    between atoms: C_2  and  C_3
REMARK    3  A    between atoms: C_2  and  C_14
REMARK    4  A    between atoms: C_3  and  N_4
REMARK    5  A    between atoms: C_8  and  C_9
REMARK    6  A    between atoms: C_18  and  O_19
REMARK    7  A    between atoms: O_19  and  C_20
REMARK                            x       y       z     vdW  Elec       q    Type
REMARK                         _______ _______ _______ _____ _____    ______ ____
ROOT
ATOM      1  C   UNL     1      45.343   4.611  12.720  0.00  0.00    +0.000 C 
ATOM      2  C   UNL     1      44.356   5.650  12.168  0.00  0.00    +0.000 C 
ENDROOT
BRANCH   2   3
ATOM      3  C   UNL     1      44.926   7.066  12.163  0.00  0.00    +0.000 A 
ATOM      4  C   UNL     1      44.284   8.059  11.407  0.00  0.00    +0.000 A 
ATOM      5  C   UNL     1      44.777   9.364  11.370  0.00  0.00    +0.000 A 
ATOM      6  C   UNL     1      45.925   9.704  12.087  0.00  0.00    +0.000 A 
ATOM      7  C   UNL     1      46.585   8.727  12.827  0.00  0.00    +0.000 A 
ATOM      8  C   UNL     1      46.090   7.419  12.862  0.00  0.00    +0.000 A 
BRANCH   7   9
ATOM      9  O   UNL     1      47.704   8.942  13.592  0.00  0.00    +0.000 OA
BRANCH   9  10
ATOM     10  C   UNL     1      49.007   8.871  12.974  0.00  0.00    +0.000 C 
ATOM     11  C   UNL     1      49.158   8.009  11.704  0.00  0.00    +0.000 C 
ATOM     12  N   UNL     1      50.295   7.296  12.307  0.00  0.00    +0.000 NA
ATOM     13  C   UNL     1      49.968   7.856  13.627  0.00  0.00    +0.000 C 
ATOM     14  H   UNL     1      51.206   7.584  11.951  0.00  0.00    +0.000 HD
ENDBRANCH   9  10
ENDBRANCH   7   9
ENDBRANCH   2   3
BRANCH   2  15
ATOM     15  C   UNL     1      43.875   5.231  10.760  0.00  0.00    +0.000 C 
BRANCH  15  16
ATOM     16  N   UNL     1      44.145   3.815  10.499  0.00  0.00    +0.000 N 
ATOM     17  C   UNL     1      44.974   3.519   9.413  0.00  0.00    +0.000 A 
ATOM     18  C   UNL     1      45.310   2.187   9.183  0.00  0.00    +0.000 A 
ATOM     19  C   UNL     1      46.110   1.855   8.088  0.00  0.00    +0.000 A 
ATOM     20  C   UNL     1      46.567   2.860   7.236  0.00  0.00    +0.000 A 
ATOM     21  C   UNL     1      46.219   4.159   7.560  0.00  0.00    +0.000 A 
ATOM     22  N   UNL     1      45.451   4.503   8.626  0.00  0.00    +0.000 NA
ATOM     23  H   UNL     1      43.294   3.263  10.440  0.00  0.00    +0.000 HD
BRANCH  20  24
ATOM     24  C   UNL     1      47.372   2.499   6.046  0.00  0.00    +0.000 C 
ATOM     25  N   UNL     1      48.403   1.612   6.186  0.00  0.00    +0.000 N 
ATOM     26  O   UNL     1      47.137   2.996   4.950  0.00  0.00    +0.000 OA
ATOM     27  H   UNL     1      48.708   1.181   7.046  0.00  0.00    +0.000 HD
ATOM     28  H   UNL     1      48.948   1.422   5.354  0.00  0.00    +0.000 HD
ENDBRANCH  20  24
ENDBRANCH  15  16
ENDBRANCH   2  15
TORSDOF 6
ENDMDL
MODEL 5
REMARK VINA RESULT:    -6.524      2.303      8.152
REMARK INTER + INTRA:          -9.663
REMARK INTER:                  -9.272
REMARK INTRA:                  -0.391
REMARK UNBOUND:                -0.851
REMARK  Name = 
REMARK  7 active torsions:
REMARK  status: ('A' for Active; 'I' for Inactive)
REMARK    1  A    between atoms: C_1  and  C_2
REMARK    2  A    between atoms: C_2  and  C_3
REMARK    3  A    between atoms: C_2  and  C_14
REMARK    4  A    between atoms: C_3  and  N_4
REMARK    5  A    between atoms: C_8  and  C_9
REMARK    6  A    between atoms: C_18  and  O_19
REMARK    7  A    between atoms: O_19  and  C_20
REMARK                            x       y       z     vdW  Elec       q    Type
REMARK                         _______ _______ _______ _____ _____    ______ ____
ROOT
ATOM      1  C   UNL     1      46.412   8.426  12.039  0.00  0.00    +0.000 C 
ATOM      2  C   UNL     1      46.045   7.058  12.632  0.00  0.00    +0.000 C 
ENDROOT
BRANCH   2   3
ATOM      3  C   UNL     1      45.289   6.168  11.649  0.00  0.00    +0.000 A 
ATOM      4  C   UNL     1      43.991   5.742  11.971  0.00  0.00    +0.000 A 
ATOM      5  C   UNL     1      43.269   4.922  11.103  0.00  0.00    +0.000 A 
ATOM      6  C   UNL     1      43.832   4.508   9.894  0.00  0.00    +0.000 A 
ATOM      7  C   UNL     1      45.125   4.906   9.567  0.00  0.00    +0.000 A 
ATOM      8  C   UNL     1      45.847   5.727  10.440  0.00  0.00    +0.000 A 
BRANCH   7   9
ATOM      9  O   UNL     1      45.774   4.588   8.402  0.00  0.00    +0.000 OA
BRANCH   9  10
ATOM     10  C   UNL     1      45.574   3.284   7.815  0.00  0.00    +0.000 C 
ATOM     11  C   UNL     1      45.674   2.052   8.737  0.00  0.00    +0.000 C 
ATOM     12  N   UNL     1      46.641   1.427   7.821  0.00  0.00    +0.000 NA
ATOM     13  C   UNL     1      46.819   2.702   7.112  0.00  0.00    +0.000 C 
ATOM     14  H   UNL     1      46.249   0.684   7.243  0.00  0.00    +0.000 HD
ENDBRANCH   9  10
ENDBRANCH   7   9
ENDBRANCH   2   3
BRANCH   2  15
ATOM     15  C   UNL     1      47.311   6.354  13.170  0.00  0.00    +0.000 C 
BRANCH  15  16
ATOM     16  N   UNL     1      46.975   5.136  13.912  0.00  0.00    +0.000 N 
ATOM     17  C   UNL     1      47.584   4.967  15.159  0.00  0.00    +0.000 A 
ATOM     18  C   UNL     1      47.229   3.856  15.920  0.00  0.00    +0.000 A 
ATOM     19  C   UNL     1      47.843   3.641  17.156  0.00  0.00    +0.000 A 
ATOM     20  C   UNL     1      48.804   4.541  17.616  0.00  0.00    +0.000 A 
ATOM     21  C   UNL     1      49.067   5.637  16.815  0.00  0.00    +0.000 A 
ATOM     22  N   UNL     1      48.474   5.869  15.615  0.00  0.00    +0.000 NA
ATOM     23  H   UNL     1      47.100   4.296  13.353  0.00  0.00    +0.000 HD
BRANCH  20  24
ATOM     24  C   UNL     1      49.490   4.282  18.903  0.00  0.00    +0.000 C 
ATOM     25  N   UNL     1      50.800   3.888  18.890  0.00  0.00    +0.000 N 
ATOM     26  O   UNL     1      48.898   4.399  19.970  0.00  0.00    +0.000 OA
ATOM     27  H   UNL     1      51.365   3.720  18.072  0.00  0.00    +0.000 HD
ATOM     28  H   UNL     1      51.218   3.689  19.790  0.00  0.00    +0.000 HD
ENDBRANCH  20  24
ENDBRANCH  15  16
ENDBRANCH   2  15
TORSDOF 6
ENDMDL
MODEL 6
REMARK VINA RESULT:    -6.484      3.074      7.598
REMARK INTER + INTRA:          -9.609
REMARK INTER:                  -8.828
REMARK INTRA:                  -0.781
REMARK UNBOUND:                -0.851
REMARK  Name = 
REMARK  7 active torsions:
REMARK  status: ('A' for Active; 'I' for Inactive)
REMARK    1  A    between atoms: C_1  and  C_2
REMARK    2  A    between atoms: C_2  and  C_3
REMARK    3  A    between atoms: C_2  and  C_14
REMARK    4  A    between atoms: C_3  and  N_4
REMARK    5  A    between atoms: C_8  and  C_9
REMARK    6  A    between atoms: C_18  and  O_19
REMARK    7  A    between atoms: O_19  and  C_20
REMARK                            x       y       z     vdW  Elec       q    Type
REMARK                         _______ _______ _______ _____ _____    ______ ____
ROOT
ATOM      1  C   UNL     1      49.029   9.669  11.454  0.00  0.00    +0.000 C 
ATOM      2  C   UNL     1      48.421   8.759  12.530  0.00  0.00    +0.000 C 
ENDROOT
BRANCH   2   3
ATOM      3  C   UNL     1      47.055   8.203  12.135  0.00  0.00    +0.000 A 
ATOM      4  C   UNL     1      45.961   9.077  12.046  0.00  0.00    +0.000 A 
ATOM      5  C   UNL     1      44.694   8.608  11.696  0.00  0.00    +0.000 A 
ATOM      6  C   UNL     1      44.494   7.252  11.429  0.00  0.00    +0.000 A 
ATOM      7  C   UNL     1      45.564   6.368  11.532  0.00  0.00    +0.000 A 
ATOM      8  C   UNL     1      46.832   6.840  11.885  0.00  0.00    +0.000 A 
BRANCH   7   9
ATOM      9  O   UNL     1      45.500   5.023  11.271  0.00  0.00    +0.000 OA
BRANCH   9  10
ATOM     10  C   UNL     1      44.211   4.399  11.089  0.00  0.00    +0.000 C 
ATOM     11  C   UNL     1      43.636   3.572  12.258  0.00  0.00    +0.000 C 
ATOM     12  N   UNL     1      43.418   2.428  11.359  0.00  0.00    +0.000 NA
ATOM     13  C   UNL     1      44.252   3.058  10.326  0.00  0.00    +0.000 C 
ATOM     14  H   UNL     1      42.446   2.294  11.081  0.00  0.00    +0.000 HD
ENDBRANCH   9  10
ENDBRANCH   7   9
ENDBRANCH   2   3
BRANCH   2  15
ATOM     15  C   UNL     1      49.408   7.624  12.887  0.00  0.00    +0.000 C 
BRANCH  15  16
ATOM     16  N   UNL     1      49.761   7.647  14.309  0.00  0.00    +0.000 N 
ATOM     17  C   UNL     1      49.197   6.654  15.116  0.00  0.00    +0.000 A 
ATOM     18  C   UNL     1      49.571   6.604  16.457  0.00  0.00    +0.000 A 
ATOM     19  C   UNL     1      49.002   5.644  17.297  0.00  0.00    +0.000 A 
ATOM     20  C   UNL     1      48.067   4.745  16.785  0.00  0.00    +0.000 A 
ATOM     21  C   UNL     1      47.784   4.840  15.435  0.00  0.00    +0.000 A 
ATOM     22  N   UNL     1      48.333   5.759  14.599  0.00  0.00    +0.000 NA
ATOM     23  H   UNL     1      49.607   8.559  14.731  0.00  0.00    +0.000 HD
BRANCH  20  24
ATOM     24  C   UNL     1      47.427   3.762  17.690  0.00  0.00    +0.000 C 
ATOM     25  N   UNL     1      47.935   3.589  18.948  0.00  0.00    +0.000 N 
ATOM     26  O   UNL     1      46.467   3.095  17.321  0.00  0.00    +0.000 OA
ATOM     27  H   UNL     1      48.743   4.051  19.335  0.00  0.00    +0.000 HD
ATOM     28  H   UNL     1      47.488   2.882  19.519  0.00  0.00    +0.000 HD
ENDBRANCH  20  24
ENDBRANCH  15  16
ENDBRANCH   2  15
TORSDOF 6
ENDMDL
MODEL 7
REMARK VINA RESULT:    -6.366      2.750      4.432
REMARK INTER + INTRA:          -9.449
REMARK INTER:                  -8.695
REMARK INTRA:                  -0.754
REMARK UNBOUND:                -0.851
REMARK  Name = 
REMARK  7 active torsions:
REMARK  status: ('A' for Active; 'I' for Inactive)
REMARK    1  A    between atoms: C_1  and  C_2
REMARK    2  A    between atoms: C_2  and  C_3
REMARK    3  A    between atoms: C_2  and  C_14
REMARK    4  A    between atoms: C_3  and  N_4
REMARK    5  A    between atoms: C_8  and  C_9
REMARK    6  A    between atoms: C_18  and  O_19
REMARK    7  A    between atoms: O_19  and  C_20
REMARK                            x       y       z     vdW  Elec       q    Type
REMARK                         _______ _______ _______ _____ _____    ______ ____
ROOT
ATOM      1  C   UNL     1      48.970   9.636  12.207  0.00  0.00    +0.000 C 
ATOM      2  C   UNL     1      48.116   8.448  12.672  0.00  0.00    +0.000 C 
ENDROOT
BRANCH   2   3
ATOM      3  C   UNL     1      48.352   8.083  14.135  0.00  0.00    +0.000 A 
ATOM      4  C   UNL     1      48.383   9.103  15.097  0.00  0.00    +0.000 A 
ATOM      5  C   UNL     1      48.604   8.813  16.444  0.00  0.00    +0.000 A 
ATOM      6  C   UNL     1      48.800   7.493  16.857  0.00  0.00    +0.000 A 
ATOM      7  C   UNL     1      48.791   6.471  15.913  0.00  0.00    +0.000 A 
ATOM      8  C   UNL     1      48.572   6.765  14.564  0.00  0.00    +0.000 A 
BRANCH   7   9
ATOM      9  O   UNL     1      48.945   5.138  16.197  0.00  0.00    +0.000 OA
BRANCH   9  10
ATOM     10  C   UNL     1      47.777   4.291  16.270  0.00  0.00    +0.000 C 
ATOM     11  C   UNL     1      46.920   4.352  17.550  0.00  0.00    +0.000 C 
ATOM     12  N   UNL     1      46.996   2.889  17.687  0.00  0.00    +0.000 NA
ATOM     13  C   UNL     1      48.071   2.834  16.686  0.00  0.00    +0.000 C 
ATOM     14  H   UNL     1      46.146   2.398  17.409  0.00  0.00    +0.000 HD
ENDBRANCH   9  10
ENDBRANCH   7   9
ENDBRANCH   2   3
BRANCH   2  15
ATOM     15  C   UNL     1      46.621   8.726  12.394  0.00  0.00    +0.000 C 
BRANCH  15  16
ATOM     16  N   UNL     1      45.756   7.812  13.144  0.00  0.00    +0.000 N 
ATOM     17  C   UNL     1      45.435   6.598  12.529  0.00  0.00    +0.000 A 
ATOM     18  C   UNL     1      44.676   5.676  13.246  0.00  0.00    +0.000 A 
ATOM     19  C   UNL     1      44.311   4.468  12.648  0.00  0.00    +0.000 A 
ATOM     20  C   UNL     1      44.712   4.195  11.340  0.00  0.00    +0.000 A 
ATOM     21  C   UNL     1      45.497   5.148  10.717  0.00  0.00    +0.000 A 
ATOM     22  N   UNL     1      45.870   6.324  11.284  0.00  0.00    +0.000 NA
ATOM     23  H   UNL     1      44.907   8.264  13.472  0.00  0.00    +0.000 HD
BRANCH  20  24
ATOM     24  C   UNL     1      44.280   2.936  10.691  0.00  0.00    +0.000 C 
ATOM     25  N   UNL     1      45.057   2.398   9.702  0.00  0.00    +0.000 N 
ATOM     26  O   UNL     1      43.235   2.383  11.016  0.00  0.00    +0.000 OA
ATOM     27  H   UNL     1      45.907   2.792   9.330  0.00  0.00    +0.000 HD
ATOM     28  H   UNL     1      44.705   1.556   9.263  0.00  0.00    +0.000 HD
ENDBRANCH  20  24
ENDBRANCH  15  16
ENDBRANCH   2  15
TORSDOF 6
ENDMDL
MODEL 8
REMARK VINA RESULT:    -6.198      3.210      4.912
REMARK INTER + INTRA:          -9.223
REMARK INTER:                  -8.559
REMARK INTRA:                  -0.664
REMARK UNBOUND:                -0.851
REMARK  Name = 
REMARK  7 active torsions:
REMARK  status: ('A' for Active; 'I' for Inactive)
REMARK    1  A    between atoms: C_1  and  C_2
REMARK    2  A    between atoms: C_2  and  C_3
REMARK    3  A    between atoms: C_2  and  C_14
REMARK    4  A    between atoms: C_3  and  N_4
REMARK    5  A    between atoms: C_8  and  C_9
REMARK    6  A    between atoms: C_18  and  O_19
REMARK    7  A    between atoms: O_19  and  C_20
REMARK                            x       y       z     vdW  Elec       q    Type
REMARK                         _______ _______ _______ _____ _____    ______ ____
ROOT
ATOM      1  C   UNL     1      48.995   9.950  13.720  0.00  0.00    +0.000 C 
ATOM      2  C   UNL     1      48.432   8.528  13.848  0.00  0.00    +0.000 C 
ENDROOT
BRANCH   2   3
ATOM      3  C   UNL     1      48.603   7.944  15.248  0.00  0.00    +0.000 A 
ATOM      4  C   UNL     1      48.410   8.774  16.363  0.00  0.00    +0.000 A 
ATOM      5  C   UNL     1      48.564   8.282  17.659  0.00  0.00    +0.000 A 
ATOM      6  C   UNL     1      48.917   6.947  17.868  0.00  0.00    +0.000 A 
ATOM      7  C   UNL     1      49.130   6.114  16.774  0.00  0.00    +0.000 A 
ATOM      8  C   UNL     1      48.977   6.611  15.475  0.00  0.00    +0.000 A 
BRANCH   7   9
ATOM      9  O   UNL     1      49.453   4.784  16.850  0.00  0.00    +0.000 OA
BRANCH   9  10
ATOM     10  C   UNL     1      48.432   3.793  16.602  0.00  0.00    +0.000 C 
ATOM     11  C   UNL     1      46.959   4.215  16.777  0.00  0.00    +0.000 C 
ATOM     12  N   UNL     1      46.721   3.068  17.666  0.00  0.00    +0.000 NA
ATOM     13  C   UNL     1      48.168   2.839  17.786  0.00  0.00    +0.000 C 
ATOM     14  H   UNL     1      46.215   2.297  17.229  0.00  0.00    +0.000 HD
ENDBRANCH   9  10
ENDBRANCH   7   9
ENDBRANCH   2   3
BRANCH   2  15
ATOM     15  C   UNL     1      46.952   8.500  13.403  0.00  0.00    +0.000 C 
BRANCH  15  16
ATOM     16  N   UNL     1      46.808   7.964  12.047  0.00  0.00    +0.000 N 
ATOM     17  C   UNL     1      46.079   6.779  11.909  0.00  0.00    +0.000 A 
ATOM     18  C   UNL     1      45.862   6.285  10.625  0.00  0.00    +0.000 A 
ATOM     19  C   UNL     1      45.165   5.087  10.455  0.00  0.00    +0.000 A 
ATOM     20  C   UNL     1      44.691   4.399  11.571  0.00  0.00    +0.000 A 
ATOM     21  C   UNL     1      44.916   4.981  12.805  0.00  0.00    +0.000 A 
ATOM     22  N   UNL     1      45.583   6.150  12.991  0.00  0.00    +0.000 NA
ATOM     23  H   UNL     1      47.702   7.873  11.570  0.00  0.00    +0.000 HD
BRANCH  20  24
ATOM     24  C   UNL     1      43.997   3.103  11.390  0.00  0.00    +0.000 C 
ATOM     25  N   UNL     1      43.681   2.359  12.494  0.00  0.00    +0.000 N 
ATOM     26  O   UNL     1      43.720   2.684  10.272  0.00  0.00    +0.000 OA
ATOM     27  H   UNL     1      43.901   2.588  13.451  0.00  0.00    +0.000 HD
ATOM     28  H   UNL     1      43.240   1.464  12.321  0.00  0.00    +0.000 HD
ENDBRANCH  20  24
ENDBRANCH  15  16
ENDBRANCH   2  15
TORSDOF 6
ENDMDL
MODEL 9
REMARK VINA RESULT:    -6.094      3.674      6.228
REMARK INTER + INTRA:          -9.082
REMARK INTER:                  -8.015
REMARK INTRA:                  -1.067
REMARK UNBOUND:                -0.851
REMARK  Name = 
REMARK  7 active torsions:
REMARK  status: ('A' for Active; 'I' for Inactive)
REMARK    1  A    between atoms: C_1  and  C_2
REMARK    2  A    between atoms: C_2  and  C_3
REMARK    3  A    between atoms: C_2  and  C_14
REMARK    4  A    between atoms: C_3  and  N_4
REMARK    5  A    between atoms: C_8  and  C_9
REMARK    6  A    between atoms: C_18  and  O_19
REMARK    7  A    between atoms: O_19  and  C_20
REMARK                            x       y       z     vdW  Elec       q    Type
REMARK                         _______ _______ _______ _____ _____    ______ ____
ROOT
ATOM      1  C   UNL     1      48.113   9.566  16.412  0.00  0.00    +0.000 C 
ATOM      2  C   UNL     1      49.132   8.456  16.706  0.00  0.00    +0.000 C 
ENDROOT
BRANCH   2   3
ATOM      3  C   UNL     1      48.662   7.491  17.792  0.00  0.00    +0.000 A 
ATOM      4  C   UNL     1      48.073   8.007  18.956  0.00  0.00    +0.000 A 
ATOM      5  C   UNL     1      47.637   7.160  19.975  0.00  0.00    +0.000 A 
ATOM      6  C   UNL     1      47.784   5.777  19.853  0.00  0.00    +0.000 A 
ATOM      7  C   UNL     1      48.384   5.249  18.714  0.00  0.00    +0.000 A 
ATOM      8  C   UNL     1      48.821   6.101  17.694  0.00  0.00    +0.000 A 
BRANCH   7   9
ATOM      9  O   UNL     1      48.561   3.912  18.466  0.00  0.00    +0.000 OA
BRANCH   9  10
ATOM     10  C   UNL     1      49.149   3.497  17.214  0.00  0.00    +0.000 C 
ATOM     11  C   UNL     1      48.364   2.496  16.343  0.00  0.00    +0.000 C 
ATOM     12  N   UNL     1      49.543   1.620  16.261  0.00  0.00    +0.000 NA
ATOM     13  C   UNL     1      50.195   2.370  17.344  0.00  0.00    +0.000 C 
ATOM     14  H   UNL     1      50.037   1.665  15.370  0.00  0.00    +0.000 HD
ENDBRANCH   9  10
ENDBRANCH   7   9
ENDBRANCH   2   3
BRANCH   2  15
ATOM     15  C   UNL     1      49.491   7.705  15.403  0.00  0.00    +0.000 C 
BRANCH  15  16
ATOM     16  N   UNL     1      48.581   8.059  14.311  0.00  0.00    +0.000 N 
ATOM     17  C   UNL     1      47.720   7.056  13.856  0.00  0.00    +0.000 A 
ATOM     18  C   UNL     1      46.792   7.382  12.869  0.00  0.00    +0.000 A 
ATOM     19  C   UNL     1      45.939   6.396  12.370  0.00  0.00    +0.000 A 
ATOM     20  C   UNL     1      46.022   5.095  12.866  0.00  0.00    +0.000 A 
ATOM     21  C   UNL     1      46.943   4.868  13.872  0.00  0.00    +0.000 A 
ATOM     22  N   UNL     1      47.775   5.816  14.377  0.00  0.00    +0.000 NA
ATOM     23  H   UNL     1      49.068   8.476  13.521  0.00  0.00    +0.000 HD
BRANCH  20  24
ATOM     24  C   UNL     1      45.151   4.039  12.299  0.00  0.00    +0.000 C 
ATOM     25  N   UNL     1      45.457   2.728  12.536  0.00  0.00    +0.000 N 
ATOM     26  O   UNL     1      44.178   4.325  11.611  0.00  0.00    +0.000 OA
ATOM     27  H   UNL     1      46.254   2.384  13.048  0.00  0.00    +0.000 HD
ATOM     28  H   UNL     1      44.855   2.040  12.099  0.00  0.00    +0.000 HD
ENDBRANCH  20  24
ENDBRANCH  15  16
ENDBRANCH   2  15
TORSDOF 6
ENDMDL
