MODEL 1
REMARK VINA RESULT:    -8.274      0.000      0.000
REMARK INTER + INTRA:         -12.636
REMARK INTER:                 -11.660
REMARK INTRA:                  -0.976
REMARK UNBOUND:                -0.976
REMARK  Name = 
REMARK  9 active torsions:
REMARK  status: ('A' for Active; 'I' for Inactive)
REMARK    1  A    between atoms: C_1  and  C_2
REMARK    2  A    between atoms: C_7  and  C_8
REMARK    3  A    between atoms: N_10  and  C_11
REMARK    4  A    between atoms: C_11  and  C_12
REMARK    5  A    between atoms: C_15  and  C_16
REMARK    6  A    between atoms: C_16  and  N_17
REMARK    7  A    between atoms: N_17  and  C_18
REMARK    8  A    between atoms: C_18  and  C_19
REMARK    9  A    between atoms: C_28  and  C_29
REMARK                            x       y       z     vdW  Elec       q    Type
REMARK                         _______ _______ _______ _____ _____    ______ ____
ROOT
ATOM      1  C   UNL     1      48.077   6.385  13.855  0.00  0.00    +0.000 C 
ENDROOT
BRANCH   1   2
ATOM      2  C   UNL     1      46.857   6.077  13.027  0.00  0.00    +0.000 A 
ATOM      3  C   UNL     1      46.635   6.744  11.815  0.00  0.00    +0.000 A 
ATOM      4  C   UNL     1      45.527   6.428  11.024  0.00  0.00    +0.000 A 
ATOM      5  C   UNL     1      44.623   5.429  11.414  0.00  0.00    +0.000 A 
ATOM      6  C   UNL     1      44.820   4.799  12.651  0.00  0.00    +0.000 A 
ATOM      7  C   UNL     1      45.925   5.121  13.450  0.00  0.00    +0.000 A 
BRANCH   5   8
ATOM      8  C   UNL     1      43.422   5.062  10.568  0.00  0.00    +0.000 C 
BRANCH   8   9
ATOM      9  N   UNL     1      43.806   4.479   9.280  0.00  0.00    +0.000 NA
ATOM     10  H   UNL     1      44.477   5.098   8.826  0.00  0.00    +0.000 HD
BRANCH   9  11
ATOM     11  C   UNL     1      44.393   3.152   9.447  0.00  0.00    +0.000 C 
BRANCH  11  12
ATOM     12  C   UNL     1      45.188   2.740   8.193  0.00  0.00    +0.000 C 
ATOM     13  C   UNL     1      46.056   1.492   8.437  0.00  0.00    +0.000 C 
ATOM     14  C   UNL     1      46.899   1.142   7.213  0.00  0.00    +0.000 C 
ATOM     15  C   UNL     1      47.754   2.320   6.765  0.00  0.00    +0.000 C 
ATOM     16  C   UNL     1      46.901   3.558   6.505  0.00  0.00    +0.000 C 
ATOM     17  C   UNL     1      46.057   3.920   7.725  0.00  0.00    +0.000 C 
ENDBRANCH  11  12
ENDBRANCH   9  11
ENDBRANCH   8   9
ENDBRANCH   5   8
ENDBRANCH   1   2
BRANCH   1  20
ATOM     18  C   UNL     1      48.905   6.231  16.163  0.00  0.00    +0.000 C 
ATOM     19  O   UNL     1      50.053   6.452  15.792  0.00  0.00    +0.000 OA
ATOM     20  N   UNL     1      47.865   6.141  15.259  0.00  0.00    +0.000 N 
ATOM     21  H   UNL     1      46.912   5.986  15.579  0.00  0.00    +0.000 HD
BRANCH  18  28
ATOM     22  C   UNL     1      47.127   8.829  22.140  0.00  0.00    +0.000 C 
ATOM     23  C   UNL     1      47.501   8.087  20.891  0.00  0.00    +0.000 A 
ATOM     24  C   UNL     1      47.703   6.758  20.899  0.00  0.00    +0.000 A 
ATOM     25  C   UNL     1      48.042   6.110  19.695  0.00  0.00    +0.000 A 
ATOM     26  N   UNL     1      48.244   4.833  19.477  0.00  0.00    +0.000 NA
ATOM     27  C   UNL     1      48.556   4.754  18.159  0.00  0.00    +0.000 A 
ATOM     28  C   UNL     1      48.539   5.992  17.533  0.00  0.00    +0.000 A 
ATOM     29  N   UNL     1      48.178   6.889  18.547  0.00  0.00    +0.000 N 
ATOM     30  C   UNL     1      47.919   8.277  18.631  0.00  0.00    +0.000 A 
ATOM     31  C   UNL     1      47.971   9.145  17.415  0.00  0.00    +0.000 C 
ATOM     32  N   UNL     1      47.600   8.854  19.755  0.00  0.00    +0.000 NA
ENDBRANCH  18  28
ENDBRANCH   1  20
TORSDOF 7
ENDMDL
MODEL 2
REMARK VINA RESULT:    -8.220      2.103      2.877
REMARK INTER + INTRA:         -12.560
REMARK INTER:                 -11.190
REMARK INTRA:                  -1.370
REMARK UNBOUND:                -0.976
REMARK  Name = 
REMARK  9 active torsions:
REMARK  status: ('A' for Active; 'I' for Inactive)
REMARK    1  A    between atoms: C_1  and  C_2
REMARK    2  A    between atoms: C_7  and  C_8
REMARK    3  A    between atoms: N_10  and  C_11
REMARK    4  A    between atoms: C_11  and  C_12
REMARK    5  A    between atoms: C_15  and  C_16
REMARK    6  A    between atoms: C_16  and  N_17
REMARK    7  A    between atoms: N_17  and  C_18
REMARK    8  A    between atoms: C_18  and  C_19
REMARK    9  A    between atoms: C_28  and  C_29
REMARK                            x       y       z     vdW  Elec       q    Type
REMARK                         _______ _______ _______ _____ _____    ______ ____
ROOT
ATOM      1  C   UNL     1      46.897   8.116  12.757  0.00  0.00    +0.000 C 
ENDROOT
BRANCH   1   2
ATOM      2  C   UNL     1      46.060   6.961  12.272  0.00  0.00    +0.000 A 
ATOM      3  C   UNL     1      46.273   6.415  10.999  0.00  0.00    +0.000 A 
ATOM      4  C   UNL     1      45.527   5.315  10.565  0.00  0.00    +0.000 A 
ATOM      5  C   UNL     1      44.563   4.724  11.395  0.00  0.00    +0.000 A 
ATOM      6  C   UNL     1      44.317   5.304  12.648  0.00  0.00    +0.000 A 
ATOM      7  C   UNL     1      45.058   6.412  13.081  0.00  0.00    +0.000 A 
BRANCH   5   8
ATOM      8  C   UNL     1      43.752   3.526  10.951  0.00  0.00    +0.000 C 
BRANCH   8   9
ATOM      9  N   UNL     1      44.588   2.351  10.696  0.00  0.00    +0.000 NA
ATOM     10  H   UNL     1      44.286   1.592  11.308  0.00  0.00    +0.000 HD
BRANCH   9  11
ATOM     11  C   UNL     1      44.500   1.923   9.302  0.00  0.00    +0.000 C 
BRANCH  11  12
ATOM     12  C   UNL     1      45.778   2.300   8.528  0.00  0.00    +0.000 C 
ATOM     13  C   UNL     1      45.516   3.377   7.460  0.00  0.00    +0.000 C 
ATOM     14  C   UNL     1      46.771   3.683   6.646  0.00  0.00    +0.000 C 
ATOM     15  C   UNL     1      47.354   2.423   6.017  0.00  0.00    +0.000 C 
ATOM     16  C   UNL     1      47.631   1.355   7.070  0.00  0.00    +0.000 C 
ATOM     17  C   UNL     1      46.381   1.039   7.887  0.00  0.00    +0.000 C 
ENDBRANCH  11  12
ENDBRANCH   9  11
ENDBRANCH   8   9
ENDBRANCH   5   8
ENDBRANCH   1   2
BRANCH   1  20
ATOM     18  C   UNL     1      48.709   7.117  14.081  0.00  0.00    +0.000 C 
ATOM     19  O   UNL     1      49.208   6.626  13.074  0.00  0.00    +0.000 OA
ATOM     20  N   UNL     1      47.535   7.841  14.019  0.00  0.00    +0.000 N 
ATOM     21  H   UNL     1      47.144   8.268  14.855  0.00  0.00    +0.000 HD
BRANCH  18  28
ATOM     22  C   UNL     1      48.447   3.839  19.982  0.00  0.00    +0.000 C 
ATOM     23  C   UNL     1      48.650   4.656  18.741  0.00  0.00    +0.000 A 
ATOM     24  C   UNL     1      49.515   5.685  18.713  0.00  0.00    +0.000 A 
ATOM     25  C   UNL     1      49.674   6.414  17.517  0.00  0.00    +0.000 A 
ATOM     26  N   UNL     1      50.480   7.416  17.267  0.00  0.00    +0.000 NA
ATOM     27  C   UNL     1      50.221   7.753  15.979  0.00  0.00    +0.000 A 
ATOM     28  C   UNL     1      49.247   6.948  15.404  0.00  0.00    +0.000 A 
ATOM     29  N   UNL     1      48.900   6.046  16.418  0.00  0.00    +0.000 N 
ATOM     30  C   UNL     1      48.036   4.932  16.535  0.00  0.00    +0.000 A 
ATOM     31  C   UNL     1      47.244   4.445  15.364  0.00  0.00    +0.000 C 
ATOM     32  N   UNL     1      47.910   4.269  17.650  0.00  0.00    +0.000 NA
ENDBRANCH  18  28
ENDBRANCH   1  20
TORSDOF 7
ENDMDL
MODEL 3
REMARK VINA RESULT:    -8.002      0.786      2.105
REMARK INTER + INTRA:         -12.253
REMARK INTER:                 -11.166
REMARK INTRA:                  -1.087
REMARK UNBOUND:                -0.976
REMARK  Name = 
REMARK  9 active torsions:
REMARK  status: ('A' for Active; 'I' for Inactive)
REMARK    1  A    between atoms: C_1  and  C_2
REMARK    2  A    between atoms: C_7  and  C_8
REMARK    3  A    between atoms: N_10  and  C_11
REMARK    4  A    between atoms: C_11  and  C_12
REMARK    5  A    between atoms: C_15  and  C_16
REMARK    6  A    between atoms: C_16  and  N_17
REMARK    7  A    between atoms: N_17  and  C_18
REMARK    8  A    between atoms: C_18  and  C_19
REMARK    9  A    between atoms: C_28  and  C_29
REMARK                            x       y       z     vdW  Elec       q    Type
REMARK                         _______ _______ _______ _____ _____    ______ ____
ROOT
ATOM      1  C   UNL     1      48.324   6.536  13.361  0.00  0.00    +0.000 C 
ENDROOT
BRANCH   1   2
ATOM      2  C   UNL     1      47.097   5.963  12.701  0.00  0.00    +0.000 A 
ATOM      3  C   UNL     1      46.405   4.897  13.293  0.00  0.00    +0.000 A 
ATOM      4  C   UNL     1      45.241   4.393  12.705  0.00  0.00    +0.000 A 
ATOM      5  C   UNL     1      44.730   4.950  11.523  0.00  0.00    +0.000 A 
ATOM      6  C   UNL     1      45.453   5.982  10.907  0.00  0.00    +0.000 A 
ATOM      7  C   UNL     1      46.624   6.482  11.490  0.00  0.00    +0.000 A 
BRANCH   5   8
ATOM      8  C   UNL     1      43.466   4.428  10.875  0.00  0.00    +0.000 C 
BRANCH   8   9
ATOM      9  N   UNL     1      43.704   3.917   9.523  0.00  0.00    +0.000 NA
ATOM     10  H   UNL     1      44.187   4.633   8.981  0.00  0.00    +0.000 HD
BRANCH   9  11
ATOM     11  C   UNL     1      44.503   2.694   9.546  0.00  0.00    +0.000 C 
BRANCH  11  12
ATOM     12  C   UNL     1      45.278   2.517   8.226  0.00  0.00    +0.000 C 
ATOM     13  C   UNL     1      46.242   1.318   8.273  0.00  0.00    +0.000 C 
ATOM     14  C   UNL     1      47.063   1.202   6.991  0.00  0.00    +0.000 C 
ATOM     15  C   UNL     1      47.814   2.492   6.687  0.00  0.00    +0.000 C 
ATOM     16  C   UNL     1      46.866   3.685   6.623  0.00  0.00    +0.000 C 
ATOM     17  C   UNL     1      46.043   3.812   7.903  0.00  0.00    +0.000 C 
ENDBRANCH  11  12
ENDBRANCH   9  11
ENDBRANCH   8   9
ENDBRANCH   5   8
ENDBRANCH   1   2
BRANCH   1  20
ATOM     18  C   UNL     1      49.107   7.150  15.607  0.00  0.00    +0.000 C 
ATOM     19  O   UNL     1      50.265   6.883  15.303  0.00  0.00    +0.000 OA
ATOM     20  N   UNL     1      48.071   6.967  14.712  0.00  0.00    +0.000 N 
ATOM     21  H   UNL     1      47.118   7.218  14.963  0.00  0.00    +0.000 HD
BRANCH  18  28
ATOM     22  C   UNL     1      47.380   5.585  21.948  0.00  0.00    +0.000 C 
ATOM     23  C   UNL     1      47.748   6.108  20.591  0.00  0.00    +0.000 A 
ATOM     24  C   UNL     1      47.624   7.411  20.285  0.00  0.00    +0.000 A 
ATOM     25  C   UNL     1      47.993   7.851  18.998  0.00  0.00    +0.000 A 
ATOM     26  N   UNL     1      47.986   9.068  18.512  0.00  0.00    +0.000 NA
ATOM     27  C   UNL     1      48.415   8.930  17.232  0.00  0.00    +0.000 A 
ATOM     28  C   UNL     1      48.708   7.613  16.909  0.00  0.00    +0.000 A 
ATOM     29  N   UNL     1      48.448   6.900  18.087  0.00  0.00    +0.000 N 
ATOM     30  C   UNL     1      48.570   5.556  18.509  0.00  0.00    +0.000 A 
ATOM     31  C   UNL     1      49.130   4.510  17.597  0.00  0.00    +0.000 C 
ATOM     32  N   UNL     1      48.229   5.173  19.707  0.00  0.00    +0.000 NA
ENDBRANCH  18  28
ENDBRANCH   1  20
TORSDOF 7
ENDMDL
MODEL 4
REMARK VINA RESULT:    -7.598      1.423      1.888
REMARK INTER + INTRA:         -11.683
REMARK INTER:                 -10.760
REMARK INTRA:                  -0.924
REMARK UNBOUND:                -0.976
REMARK  Name = 
REMARK  9 active torsions:
REMARK  status: ('A' for Active; 'I' for Inactive)
REMARK    1  A    between atoms: C_1  and  C_2
REMARK    2  A    between atoms: C_7  and  C_8
REMARK    3  A    between atoms: N_10  and  C_11
REMARK    4  A    between atoms: C_11  and  C_12
REMARK    5  A    between atoms: C_15  and  C_16
REMARK    6  A    between atoms: C_16  and  N_17
REMARK    7  A    between atoms: N_17  and  C_18
REMARK    8  A    between atoms: C_18  and  C_19
REMARK    9  A    between atoms: C_28  and  C_29
REMARK                            x       y       z     vdW  Elec       q    Type
REMARK                         _______ _______ _______ _____ _____    ______ ____
ROOT
ATOM      1  C   UNL     1      47.457   4.064  15.278  0.00  0.00    +0.000 C 
ENDROOT
BRANCH   1   2
ATOM      2  C   UNL     1      46.862   4.632  14.017  0.00  0.00    +0.000 A 
ATOM      3  C   UNL     1      47.356   5.827  13.474  0.00  0.00    +0.000 A 
ATOM      4  C   UNL     1      46.834   6.332  12.280  0.00  0.00    +0.000 A 
ATOM      5  C   UNL     1      45.821   5.651  11.589  0.00  0.00    +0.000 A 
ATOM      6  C   UNL     1      45.294   4.483  12.161  0.00  0.00    +0.000 A 
ATOM      7  C   UNL     1      45.810   3.980  13.363  0.00  0.00    +0.000 A 
BRANCH   5   8
ATOM      8  C   UNL     1      45.249   6.173  10.289  0.00  0.00    +0.000 C 
BRANCH   8   9
ATOM      9  N   UNL     1      45.629   5.346   9.142  0.00  0.00    +0.000 NA
ATOM     10  H   UNL     1      46.568   4.979   9.297  0.00  0.00    +0.000 HD
BRANCH   9  11
ATOM     11  C   UNL     1      44.695   4.241   8.945  0.00  0.00    +0.000 C 
BRANCH  11  12
ATOM     12  C   UNL     1      45.297   3.167   8.018  0.00  0.00    +0.000 C 
ATOM     13  C   UNL     1      45.694   1.892   8.784  0.00  0.00    +0.000 C 
ATOM     14  C   UNL     1      46.363   0.868   7.870  0.00  0.00    +0.000 C 
ATOM     15  C   UNL     1      47.564   1.464   7.145  0.00  0.00    +0.000 C 
ATOM     16  C   UNL     1      47.178   2.720   6.371  0.00  0.00    +0.000 C 
ATOM     17  C   UNL     1      46.512   3.752   7.277  0.00  0.00    +0.000 C 
ENDBRANCH  11  12
ENDBRANCH   9  11
ENDBRANCH   8   9
ENDBRANCH   5   8
ENDBRANCH   1   2
BRANCH   1  20
ATOM     18  C   UNL     1      48.426   5.491  17.027  0.00  0.00    +0.000 C 
ATOM     19  O   UNL     1      49.562   5.172  16.693  0.00  0.00    +0.000 OA
ATOM     20  N   UNL     1      47.318   4.954  16.402  0.00  0.00    +0.000 N 
ATOM     21  H   UNL     1      46.381   5.246  16.667  0.00  0.00    +0.000 HD
BRANCH  18  28
ATOM     22  C   UNL     1      47.914  11.869  19.194  0.00  0.00    +0.000 C 
ATOM     23  C   UNL     1      47.971  10.403  18.880  0.00  0.00    +0.000 A 
ATOM     24  C   UNL     1      47.824   9.476  19.842  0.00  0.00    +0.000 A 
ATOM     25  C   UNL     1      47.877   8.111  19.490  0.00  0.00    +0.000 A 
ATOM     26  N   UNL     1      47.723   7.059  20.255  0.00  0.00    +0.000 NA
ATOM     27  C   UNL     1      47.886   6.000  19.423  0.00  0.00    +0.000 A 
ATOM     28  C   UNL     1      48.134   6.388  18.114  0.00  0.00    +0.000 A 
ATOM     29  N   UNL     1      48.108   7.788  18.154  0.00  0.00    +0.000 N 
ATOM     30  C   UNL     1      48.222   8.834  17.210  0.00  0.00    +0.000 A 
ATOM     31  C   UNL     1      48.389   8.541  15.752  0.00  0.00    +0.000 C 
ATOM     32  N   UNL     1      48.164  10.089  17.557  0.00  0.00    +0.000 NA
ENDBRANCH  18  28
ENDBRANCH   1  20
TORSDOF 7
ENDMDL
MODEL 5
REMARK VINA RESULT:    -7.431      2.287      3.462
REMARK INTER + INTRA:         -11.449
REMARK INTER:                 -10.384
REMARK INTRA:                  -1.065
REMARK UNBOUND:                -0.976
REMARK  Name = 
REMARK  9 active torsions:
REMARK  status: ('A' for Active; 'I' for Inactive)
REMARK    1  A    between atoms: C_1  and  C_2
REMARK    2  A    between atoms: C_7  and  C_8
REMARK    3  A    between atoms: N_10  and  C_11
REMARK    4  A    between atoms: C_11  and  C_12
REMARK    5  A    between atoms: C_15  and  C_16
REMARK    6  A    between atoms: C_16  and  N_17
REMARK    7  A    between atoms: N_17  and  C_18
REMARK    8  A    between atoms: C_18  and  C_19
REMARK    9  A    between atoms: C_28  and  C_29
REMARK                            x       y       z     vdW  Elec       q    Type
REMARK                         _______ _______ _______ _____ _____    ______ ____
ROOT
ATOM      1  C   UNL     1      47.790   7.075  13.662  0.00  0.00    +0.000 C 
ENDROOT
BRANCH   1   2
ATOM      2  C   UNL     1      46.646   6.390  12.961  0.00  0.00    +0.000 A 
ATOM      3  C   UNL     1      46.044   5.256  13.524  0.00  0.00    +0.000 A 
ATOM      4  C   UNL     1      44.954   4.647  12.897  0.00  0.00    +0.000 A 
ATOM      5  C   UNL     1      44.427   5.163  11.704  0.00  0.00    +0.000 A 
ATOM      6  C   UNL     1      45.062   6.267  11.117  0.00  0.00    +0.000 A 
ATOM      7  C   UNL     1      46.161   6.873  11.740  0.00  0.00    +0.000 A 
BRANCH   5   8
ATOM      8  C   UNL     1      43.240   4.527  11.013  0.00  0.00    +0.000 C 
BRANCH   8   9
ATOM      9  N   UNL     1      43.609   3.886   9.748  0.00  0.00    +0.000 NA
ATOM     10  H   UNL     1      44.120   4.558   9.176  0.00  0.00    +0.000 HD
BRANCH   9  11
ATOM     11  C   UNL     1      44.433   2.701   9.970  0.00  0.00    +0.000 C 
BRANCH  11  12
ATOM     12  C   UNL     1      45.668   2.707   9.048  0.00  0.00    +0.000 C 
ATOM     13  C   UNL     1      45.603   3.828   7.995  0.00  0.00    +0.000 C 
ATOM     14  C   UNL     1      46.792   3.774   7.038  0.00  0.00    +0.000 C 
ATOM     15  C   UNL     1      46.915   2.409   6.373  0.00  0.00    +0.000 C 
ATOM     16  C   UNL     1      46.995   1.292   7.409  0.00  0.00    +0.000 C 
ATOM     17  C   UNL     1      45.809   1.335   8.368  0.00  0.00    +0.000 C 
ENDBRANCH  11  12
ENDBRANCH   9  11
ENDBRANCH   8   9
ENDBRANCH   5   8
ENDBRANCH   1   2
BRANCH   1  20
ATOM     18  C   UNL     1      48.794   6.753  15.881  0.00  0.00    +0.000 C 
ATOM     19  O   UNL     1      48.699   7.951  16.125  0.00  0.00    +0.000 OA
ATOM     20  N   UNL     1      48.402   6.237  14.661  0.00  0.00    +0.000 N 
ATOM     21  H   UNL     1      48.459   5.238  14.479  0.00  0.00    +0.000 HD
BRANCH  18  28
ATOM     22  C   UNL     1      54.354   3.856  18.399  0.00  0.00    +0.000 C 
ATOM     23  C   UNL     1      53.025   4.396  17.959  0.00  0.00    +0.000 A 
ATOM     24  C   UNL     1      51.873   3.849  18.381  0.00  0.00    +0.000 A 
ATOM     25  C   UNL     1      50.652   4.402  17.944  0.00  0.00    +0.000 A 
ATOM     26  N   UNL     1      49.430   4.049  18.260  0.00  0.00    +0.000 NA
ATOM     27  C   UNL     1      48.634   4.891  17.553  0.00  0.00    +0.000 A 
ATOM     28  C   UNL     1      49.362   5.794  16.791  0.00  0.00    +0.000 A 
ATOM     29  N   UNL     1      50.700   5.483  17.066  0.00  0.00    +0.000 N 
ATOM     30  C   UNL     1      51.961   6.008  16.700  0.00  0.00    +0.000 A 
ATOM     31  C   UNL     1      52.067   7.217  15.826  0.00  0.00    +0.000 C 
ATOM     32  N   UNL     1      53.077   5.484  17.121  0.00  0.00    +0.000 NA
ENDBRANCH  18  28
ENDBRANCH   1  20
TORSDOF 7
ENDMDL
MODEL 6
REMARK VINA RESULT:    -7.395      1.208      2.373
REMARK INTER + INTRA:         -11.397
REMARK INTER:                 -10.430
REMARK INTRA:                  -0.967
REMARK UNBOUND:                -0.976
REMARK  Name = 
REMARK  9 active torsions:
REMARK  status: ('A' for Active; 'I' for Inactive)
REMARK    1  A    between atoms: C_1  and  C_2
REMARK    2  A    between atoms: C_7  and  C_8
REMARK    3  A    between atoms: N_10  and  C_11
REMARK    4  A    between atoms: C_11  and  C_12
REMARK    5  A    between atoms: C_15  and  C_16
REMARK    6  A    between atoms: C_16  and  N_17
REMARK    7  A    between atoms: N_17  and  C_18
REMARK    8  A    between atoms: C_18  and  C_19
REMARK    9  A    between atoms: C_28  and  C_29
REMARK                            x       y       z     vdW  Elec       q    Type
REMARK                         _______ _______ _______ _____ _____    ______ ____
ROOT
ATOM      1  C   UNL     1      48.250   5.858  14.165  0.00  0.00    +0.000 C 
ENDROOT
BRANCH   1   2
ATOM      2  C   UNL     1      47.087   5.591  13.246  0.00  0.00    +0.000 A 
ATOM      3  C   UNL     1      46.176   4.565  13.532  0.00  0.00    +0.000 A 
ATOM      4  C   UNL     1      45.072   4.345  12.704  0.00  0.00    +0.000 A 
ATOM      5  C   UNL     1      44.840   5.151  11.581  0.00  0.00    +0.000 A 
ATOM      6  C   UNL     1      45.780   6.144  11.268  0.00  0.00    +0.000 A 
ATOM      7  C   UNL     1      46.892   6.361  12.092  0.00  0.00    +0.000 A 
BRANCH   5   8
ATOM      8  C   UNL     1      43.645   4.939  10.676  0.00  0.00    +0.000 C 
BRANCH   8   9
ATOM      9  N   UNL     1      44.033   4.472   9.343  0.00  0.00    +0.000 NA
ATOM     10  H   UNL     1      44.837   5.013   9.026  0.00  0.00    +0.000 HD
BRANCH   9  11
ATOM     11  C   UNL     1      44.367   3.050   9.350  0.00  0.00    +0.000 C 
BRANCH  11  12
ATOM     12  C   UNL     1      45.218   2.677   8.121  0.00  0.00    +0.000 C 
ATOM     13  C   UNL     1      46.138   1.474   8.392  0.00  0.00    +0.000 C 
ATOM     14  C   UNL     1      47.034   1.165   7.194  0.00  0.00    +0.000 C 
ATOM     15  C   UNL     1      47.843   2.384   6.770  0.00  0.00    +0.000 C 
ATOM     16  C   UNL     1      46.938   3.579   6.484  0.00  0.00    +0.000 C 
ATOM     17  C   UNL     1      46.042   3.898   7.677  0.00  0.00    +0.000 C 
ENDBRANCH  11  12
ENDBRANCH   9  11
ENDBRANCH   8   9
ENDBRANCH   5   8
ENDBRANCH   1   2
BRANCH   1  20
ATOM     18  C   UNL     1      49.026   7.467  15.852  0.00  0.00    +0.000 C 
ATOM     19  O   UNL     1      50.072   6.845  15.999  0.00  0.00    +0.000 OA
ATOM     20  N   UNL     1      48.044   7.023  14.987  0.00  0.00    +0.000 N 
ATOM     21  H   UNL     1      47.192   7.560  14.851  0.00  0.00    +0.000 HD
BRANCH  18  28
ATOM     22  C   UNL     1      46.281  10.190  21.392  0.00  0.00    +0.000 C 
ATOM     23  C   UNL     1      46.932   9.757  20.111  0.00  0.00    +0.000 A 
ATOM     24  C   UNL     1      47.297  10.649  19.175  0.00  0.00    +0.000 A 
ATOM     25  C   UNL     1      47.914  10.189  17.994  0.00  0.00    +0.000 A 
ATOM     26  N   UNL     1      48.375  10.883  16.983  0.00  0.00    +0.000 NA
ATOM     27  C   UNL     1      48.847   9.955  16.114  0.00  0.00    +0.000 A 
ATOM     28  C   UNL     1      48.693   8.659  16.585  0.00  0.00    +0.000 A 
ATOM     29  N   UNL     1      48.093   8.815  17.842  0.00  0.00    +0.000 N 
ATOM     30  C   UNL     1      47.701   7.956  18.894  0.00  0.00    +0.000 A 
ATOM     31  C   UNL     1      47.945   6.482  18.817  0.00  0.00    +0.000 C 
ATOM     32  N   UNL     1      47.138   8.405  19.980  0.00  0.00    +0.000 NA
ENDBRANCH  18  28
ENDBRANCH   1  20
TORSDOF 7
ENDMDL
MODEL 7
REMARK VINA RESULT:    -7.316      2.939      4.893
REMARK INTER + INTRA:         -11.286
REMARK INTER:                 -10.321
REMARK INTRA:                  -0.964
REMARK UNBOUND:                -0.976
REMARK  Name = 
REMARK  9 active torsions:
REMARK  status: ('A' for Active; 'I' for Inactive)
REMARK    1  A    between atoms: C_1  and  C_2
REMARK    2  A    between atoms: C_7  and  C_8
REMARK    3  A    between atoms: N_10  and  C_11
REMARK    4  A    between atoms: C_11  and  C_12
REMARK    5  A    between atoms: C_15  and  C_16
REMARK    6  A    between atoms: C_16  and  N_17
REMARK    7  A    between atoms: N_17  and  C_18
REMARK    8  A    between atoms: C_18  and  C_19
REMARK    9  A    between atoms: C_28  and  C_29
REMARK                            x       y       z     vdW  Elec       q    Type
REMARK                         _______ _______ _______ _____ _____    ______ ____
ROOT
ATOM      1  C   UNL     1      47.299   5.335  14.319  0.00  0.00    +0.000 C 
ENDROOT
BRANCH   1   2
ATOM      2  C   UNL     1      46.416   4.995  13.146  0.00  0.00    +0.000 A 
ATOM      3  C   UNL     1      45.977   3.679  12.946  0.00  0.00    +0.000 A 
ATOM      4  C   UNL     1      45.122   3.370  11.885  0.00  0.00    +0.000 A 
ATOM      5  C   UNL     1      44.671   4.367  11.008  0.00  0.00    +0.000 A 
ATOM      6  C   UNL     1      45.152   5.673  11.180  0.00  0.00    +0.000 A 
ATOM      7  C   UNL     1      46.017   5.983  12.238  0.00  0.00    +0.000 A 
BRANCH   5   8
ATOM      8  C   UNL     1      43.736   4.058   9.858  0.00  0.00    +0.000 C 
BRANCH   8   9
ATOM      9  N   UNL     1      44.400   3.315   8.785  0.00  0.00    +0.000 NA
ATOM     10  H   UNL     1      43.705   3.055   8.085  0.00  0.00    +0.000 HD
BRANCH   9  11
ATOM     11  C   UNL     1      45.456   4.107   8.159  0.00  0.00    +0.000 C 
BRANCH  11  12
ATOM     12  C   UNL     1      46.537   3.198   7.544  0.00  0.00    +0.000 C 
ATOM     13  C   UNL     1      46.588   3.309   6.010  0.00  0.00    +0.000 C 
ATOM     14  C   UNL     1      47.607   2.344   5.406  0.00  0.00    +0.000 C 
ATOM     15  C   UNL     1      47.344   0.907   5.840  0.00  0.00    +0.000 C 
ATOM     16  C   UNL     1      47.306   0.784   7.359  0.00  0.00    +0.000 C 
ATOM     17  C   UNL     1      46.287   1.741   7.972  0.00  0.00    +0.000 C 
ENDBRANCH  11  12
ENDBRANCH   9  11
ENDBRANCH   8   9
ENDBRANCH   5   8
ENDBRANCH   1   2
BRANCH   1  20
ATOM     18  C   UNL     1      48.810   7.197  14.853  0.00  0.00    +0.000 C 
ATOM     19  O   UNL     1      49.663   6.419  15.267  0.00  0.00    +0.000 OA
ATOM     20  N   UNL     1      47.587   6.744  14.400  0.00  0.00    +0.000 N 
ATOM     21  H   UNL     1      46.897   7.395  14.032  0.00  0.00    +0.000 HD
BRANCH  18  28
ATOM     22  C   UNL     1      50.119  12.796  11.307  0.00  0.00    +0.000 C 
ATOM     23  C   UNL     1      49.804  11.663  12.238  0.00  0.00    +0.000 A 
ATOM     24  C   UNL     1      49.699  11.856  13.564  0.00  0.00    +0.000 A 
ATOM     25  C   UNL     1      49.391  10.758  14.394  0.00  0.00    +0.000 A 
ATOM     26  N   UNL     1      49.209  10.734  15.691  0.00  0.00    +0.000 NA
ATOM     27  C   UNL     1      48.956   9.433  15.979  0.00  0.00    +0.000 A 
ATOM     28  C   UNL     1      48.967   8.627  14.850  0.00  0.00    +0.000 A 
ATOM     29  N   UNL     1      49.234   9.509  13.795  0.00  0.00    +0.000 N 
ATOM     30  C   UNL     1      49.336   9.410  12.388  0.00  0.00    +0.000 A 
ATOM     31  C   UNL     1      49.097   8.110  11.688  0.00  0.00    +0.000 C 
ATOM     32  N   UNL     1      49.616  10.440  11.641  0.00  0.00    +0.000 NA
ENDBRANCH  18  28
ENDBRANCH   1  20
TORSDOF 7
ENDMDL
MODEL 8
REMARK VINA RESULT:    -6.972      4.305      6.857
REMARK INTER + INTRA:         -10.802
REMARK INTER:                  -9.349
REMARK INTRA:                  -1.452
REMARK UNBOUND:                -0.976
REMARK  Name = 
REMARK  9 active torsions:
REMARK  status: ('A' for Active; 'I' for Inactive)
REMARK    1  A    between atoms: C_1  and  C_2
REMARK    2  A    between atoms: C_7  and  C_8
REMARK    3  A    between atoms: N_10  and  C_11
REMARK    4  A    between atoms: C_11  and  C_12
REMARK    5  A    between atoms: C_15  and  C_16
REMARK    6  A    between atoms: C_16  and  N_17
REMARK    7  A    between atoms: N_17  and  C_18
REMARK    8  A    between atoms: C_18  and  C_19
REMARK    9  A    between atoms: C_28  and  C_29
REMARK                            x       y       z     vdW  Elec       q    Type
REMARK                         _______ _______ _______ _____ _____    ______ ____
ROOT
ATOM      1  C   UNL     1      48.632   7.207  13.328  0.00  0.00    +0.000 C 
ENDROOT
BRANCH   1   2
ATOM      2  C   UNL     1      47.419   6.315  13.279  0.00  0.00    +0.000 A 
ATOM      3  C   UNL     1      47.476   5.011  13.790  0.00  0.00    +0.000 A 
ATOM      4  C   UNL     1      46.340   4.197  13.786  0.00  0.00    +0.000 A 
ATOM      5  C   UNL     1      45.116   4.668  13.288  0.00  0.00    +0.000 A 
ATOM      6  C   UNL     1      45.075   5.956  12.732  0.00  0.00    +0.000 A 
ATOM      7  C   UNL     1      46.216   6.769  12.727  0.00  0.00    +0.000 A 
BRANCH   5   8
ATOM      8  C   UNL     1      43.870   3.810  13.284  0.00  0.00    +0.000 C 
BRANCH   8   9
ATOM      9  N   UNL     1      44.031   2.599  12.475  0.00  0.00    +0.000 NA
ATOM     10  H   UNL     1      43.490   1.845  12.899  0.00  0.00    +0.000 HD
BRANCH   9  11
ATOM     11  C   UNL     1      43.586   2.812  11.099  0.00  0.00    +0.000 C 
BRANCH  11  12
ATOM     12  C   UNL     1      44.786   3.054  10.163  0.00  0.00    +0.000 C 
ATOM     13  C   UNL     1      44.683   4.398   9.420  0.00  0.00    +0.000 C 
ATOM     14  C   UNL     1      45.835   4.590   8.436  0.00  0.00    +0.000 C 
ATOM     15  C   UNL     1      45.932   3.430   7.453  0.00  0.00    +0.000 C 
ATOM     16  C   UNL     1      46.050   2.094   8.180  0.00  0.00    +0.000 C 
ATOM     17  C   UNL     1      44.900   1.891   9.163  0.00  0.00    +0.000 C 
ENDBRANCH  11  12
ENDBRANCH   9  11
ENDBRANCH   8   9
ENDBRANCH   5   8
ENDBRANCH   1   2
BRANCH   1  20
ATOM     18  C   UNL     1      48.391   9.594  12.801  0.00  0.00    +0.000 C 
ATOM     19  O   UNL     1      48.232   9.865  13.987  0.00  0.00    +0.000 OA
ATOM     20  N   UNL     1      48.556   8.289  12.380  0.00  0.00    +0.000 N 
ATOM     21  H   UNL     1      48.716   8.078  11.399  0.00  0.00    +0.000 HD
BRANCH  18  28
ATOM     22  C   UNL     1      44.761  12.903   8.163  0.00  0.00    +0.000 C 
ATOM     23  C   UNL     1      45.709  12.271   9.139  0.00  0.00    +0.000 A 
ATOM     24  C   UNL     1      47.031  12.510   9.085  0.00  0.00    +0.000 A 
ATOM     25  C   UNL     1      47.876  11.897  10.033  0.00  0.00    +0.000 A 
ATOM     26  N   UNL     1      49.172  12.022  10.180  0.00  0.00    +0.000 NA
ATOM     27  C   UNL     1      49.480  11.210  11.222  0.00  0.00    +0.000 A 
ATOM     28  C   UNL     1      48.365  10.573  11.747  0.00  0.00    +0.000 A 
ATOM     29  N   UNL     1      47.298  11.045  10.971  0.00  0.00    +0.000 N 
ATOM     30  C   UNL     1      45.894  10.877  10.966  0.00  0.00    +0.000 A 
ATOM     31  C   UNL     1      45.214  10.038  12.001  0.00  0.00    +0.000 C 
ATOM     32  N   UNL     1      45.131  11.458  10.084  0.00  0.00    +0.000 NA
ENDBRANCH  18  28
ENDBRANCH   1  20
TORSDOF 7
ENDMDL
MODEL 9
REMARK VINA RESULT:    -6.867      3.554      9.272
REMARK INTER + INTRA:         -10.653
REMARK INTER:                  -8.574
REMARK INTRA:                  -2.079
REMARK UNBOUND:                -0.976
REMARK  Name = 
REMARK  9 active torsions:
REMARK  status: ('A' for Active; 'I' for Inactive)
REMARK    1  A    between atoms: C_1  and  C_2
REMARK    2  A    between atoms: C_7  and  C_8
REMARK    3  A    between atoms: N_10  and  C_11
REMARK    4  A    between atoms: C_11  and  C_12
REMARK    5  A    between atoms: C_15  and  C_16
REMARK    6  A    between atoms: C_16  and  N_17
REMARK    7  A    between atoms: N_17  and  C_18
REMARK    8  A    between atoms: C_18  and  C_19
REMARK    9  A    between atoms: C_28  and  C_29
REMARK                            x       y       z     vdW  Elec       q    Type
REMARK                         _______ _______ _______ _____ _____    ______ ____
ROOT
ATOM      1  C   UNL     1      47.702   3.757  16.708  0.00  0.00    +0.000 C 
ENDROOT
BRANCH   1   2
ATOM      2  C   UNL     1      47.863   4.425  18.048  0.00  0.00    +0.000 A 
ATOM      3  C   UNL     1      48.911   4.057  18.904  0.00  0.00    +0.000 A 
ATOM      4  C   UNL     1      49.088   4.707  20.128  0.00  0.00    +0.000 A 
ATOM      5  C   UNL     1      48.238   5.751  20.522  0.00  0.00    +0.000 A 
ATOM      6  C   UNL     1      47.161   6.083  19.686  0.00  0.00    +0.000 A 
ATOM      7  C   UNL     1      46.976   5.426  18.463  0.00  0.00    +0.000 A 
BRANCH   5   8
ATOM      8  C   UNL     1      48.417   6.477  21.837  0.00  0.00    +0.000 C 
BRANCH   8   9
ATOM      9  N   UNL     1      48.396   7.932  21.677  0.00  0.00    +0.000 NA
ATOM     10  H   UNL     1      48.215   8.361  22.585  0.00  0.00    +0.000 HD
BRANCH   9  11
ATOM     11  C   UNL     1      49.660   8.431  21.141  0.00  0.00    +0.000 C 
BRANCH  11  12
ATOM     12  C   UNL     1      49.451   9.108  19.773  0.00  0.00    +0.000 C 
ATOM     13  C   UNL     1      47.985   9.521  19.546  0.00  0.00    +0.000 C 
ATOM     14  C   UNL     1      47.775  10.117  18.156  0.00  0.00    +0.000 C 
ATOM     15  C   UNL     1      48.250   9.170  17.061  0.00  0.00    +0.000 C 
ATOM     16  C   UNL     1      49.707   8.768  17.269  0.00  0.00    +0.000 C 
ATOM     17  C   UNL     1      49.927   8.166  18.655  0.00  0.00    +0.000 C 
ENDBRANCH  11  12
ENDBRANCH   9  11
ENDBRANCH   8   9
ENDBRANCH   5   8
ENDBRANCH   1   2
BRANCH   1  20
ATOM     18  C   UNL     1      46.842   4.192  14.448  0.00  0.00    +0.000 C 
ATOM     19  O   UNL     1      47.383   3.178  14.020  0.00  0.00    +0.000 OA
ATOM     20  N   UNL     1      46.984   4.577  15.767  0.00  0.00    +0.000 N 
ATOM     21  H   UNL     1      46.508   5.404  16.119  0.00  0.00    +0.000 HD
BRANCH  18  28
ATOM     22  C   UNL     1      46.220  10.369  11.784  0.00  0.00    +0.000 C 
ATOM     23  C   UNL     1      46.205   8.955  12.285  0.00  0.00    +0.000 A 
ATOM     24  C   UNL     1      45.148   8.151  12.078  0.00  0.00    +0.000 A 
ATOM     25  C   UNL     1      45.190   6.827  12.561  0.00  0.00    +0.000 A 
ATOM     26  N   UNL     1      44.295   5.878  12.438  0.00  0.00    +0.000 NA
ATOM     27  C   UNL     1      44.824   4.817  13.097  0.00  0.00    +0.000 A 
ATOM     28  C   UNL     1      46.074   5.094  13.632  0.00  0.00    +0.000 A 
ATOM     29  N   UNL     1      46.326   6.421  13.259  0.00  0.00    +0.000 N 
ATOM     30  C   UNL     1      47.399   7.330  13.403  0.00  0.00    +0.000 A 
ATOM     31  C   UNL     1      48.673   6.920  14.071  0.00  0.00    +0.000 C 
ATOM     32  N   UNL     1      47.340   8.548  12.942  0.00  0.00    +0.000 NA
ENDBRANCH  18  28
ENDBRANCH   1  20
TORSDOF 7
ENDMDL
