MODEL 1
REMARK VINA RESULT:    -7.605      0.000      0.000
REMARK INTER + INTRA:         -10.267
REMARK INTER:                  -9.606
REMARK INTRA:                  -0.662
REMARK UNBOUND:                -0.662
REMARK  Name = 
REMARK  7 active torsions:
REMARK  status: ('A' for Active; 'I' for Inactive)
REMARK    1  A    between atoms: C_1  and  C_2
REMARK    2  A    between atoms: C_4  and  C_5
REMARK    3  A    between atoms: N_8  and  C_9
REMARK    4  A    between atoms: C_9  and  C_10
REMARK    5  A    between atoms: C_10  and  C_11
REMARK    6  A    between atoms: C_15  and  C_16
REMARK    7  A    between atoms: C_16  and  N_17
REMARK                            x       y       z     vdW  Elec       q    Type
REMARK                         _______ _______ _______ _____ _____    ______ ____
ROOT
ATOM      1  C   UNL     1      43.827   3.556  11.237  0.00  0.00    +0.000 C 
ENDROOT
BRANCH   1   9
ATOM      2  C   UNL     1      47.489   7.236  11.746  0.00  0.00    +0.000 C 
ATOM      3  C   UNL     1      47.003   6.113  12.607  0.00  0.00    +0.000 A 
ATOM      4  C   UNL     1      47.542   5.852  13.861  0.00  0.00    +0.000 A 
ATOM      5  C   UNL     1      47.034   4.786  14.597  0.00  0.00    +0.000 A 
ATOM      6  C   UNL     1      47.589   4.480  15.957  0.00  0.00    +0.000 C 
ATOM      7  N   UNL     1      46.034   3.984  14.145  0.00  0.00    +0.000 NA
ATOM      8  C   UNL     1      45.508   4.236  12.928  0.00  0.00    +0.000 A 
ATOM      9  N   UNL     1      44.492   3.402  12.515  0.00  0.00    +0.000 N 
ATOM     10  C   UNL     1      45.975   5.288  12.147  0.00  0.00    +0.000 A 
ATOM     11  H   UNL     1      44.252   2.672  13.169  0.00  0.00    +0.000 HD
ENDBRANCH   1   9
BRANCH   1  12
ATOM     12  C   UNL     1      44.096   2.390  10.289  0.00  0.00    +0.000 C 
BRANCH  12  13
ATOM     13  C   UNL     1      45.066   2.798   9.200  0.00  0.00    +0.000 A 
ATOM     14  C   UNL     1      45.206   4.146   8.844  0.00  0.00    +0.000 A 
ATOM     15  C   UNL     1      46.084   4.521   7.827  0.00  0.00    +0.000 A 
ATOM     16  C   UNL     1      46.835   3.553   7.159  0.00  0.00    +0.000 A 
ATOM     17  C   UNL     1      46.709   2.196   7.491  0.00  0.00    +0.000 A 
ATOM     18  C   UNL     1      45.810   1.830   8.505  0.00  0.00    +0.000 A 
BRANCH  17  19
ATOM     19  C   UNL     1      47.580   1.161   6.824  0.00  0.00    +0.000 C 
BRANCH  19  20
ATOM     20  N   UNL     1      48.465   1.738   5.819  0.00  0.00    +0.000 NA
ATOM     21  H   UNL     1      49.223   2.227   6.293  0.00  0.00    +0.000 HD
ATOM     22  H   UNL     1      47.951   2.444   5.295  0.00  0.00    +0.000 HD
ENDBRANCH  19  20
ENDBRANCH  17  19
ENDBRANCH  12  13
ENDBRANCH   1  12
TORSDOF 5
ENDMDL
MODEL 2
REMARK VINA RESULT:    -6.663      1.851      2.611
REMARK INTER + INTRA:          -9.077
REMARK INTER:                  -8.608
REMARK INTRA:                  -0.469
REMARK UNBOUND:                -0.662
REMARK  Name = 
REMARK  7 active torsions:
REMARK  status: ('A' for Active; 'I' for Inactive)
REMARK    1  A    between atoms: C_1  and  C_2
REMARK    2  A    between atoms: C_4  and  C_5
REMARK    3  A    between atoms: N_8  and  C_9
REMARK    4  A    between atoms: C_9  and  C_10
REMARK    5  A    between atoms: C_10  and  C_11
REMARK    6  A    between atoms: C_15  and  C_16
REMARK    7  A    between atoms: C_16  and  N_17
REMARK                            x       y       z     vdW  Elec       q    Type
REMARK                         _______ _______ _______ _____ _____    ______ ____
ROOT
ATOM      1  C   UNL     1      44.699   3.751  11.511  0.00  0.00    +0.000 C 
ENDROOT
BRANCH   1   9
ATOM      2  C   UNL     1      48.833   6.763  12.538  0.00  0.00    +0.000 C 
ATOM      3  C   UNL     1      47.378   7.022  12.300  0.00  0.00    +0.000 A 
ATOM      4  C   UNL     1      46.839   8.303  12.321  0.00  0.00    +0.000 A 
ATOM      5  C   UNL     1      45.476   8.458  12.091  0.00  0.00    +0.000 A 
ATOM      6  C   UNL     1      44.863   9.827  12.100  0.00  0.00    +0.000 C 
ATOM      7  N   UNL     1      44.643   7.411  11.850  0.00  0.00    +0.000 NA
ATOM      8  C   UNL     1      45.163   6.167  11.828  0.00  0.00    +0.000 A 
ATOM      9  N   UNL     1      44.283   5.137  11.572  0.00  0.00    +0.000 N 
ATOM     10  C   UNL     1      46.520   5.951  12.050  0.00  0.00    +0.000 A 
ATOM     11  H   UNL     1      43.324   5.425  11.438  0.00  0.00    +0.000 HD
ENDBRANCH   1   9
BRANCH   1  12
ATOM     12  C   UNL     1      44.142   3.023  10.290  0.00  0.00    +0.000 C 
BRANCH  12  13
ATOM     13  C   UNL     1      45.141   3.045   9.153  0.00  0.00    +0.000 A 
ATOM     14  C   UNL     1      45.490   4.254   8.537  0.00  0.00    +0.000 A 
ATOM     15  C   UNL     1      46.396   4.272   7.476  0.00  0.00    +0.000 A 
ATOM     16  C   UNL     1      46.966   3.082   7.023  0.00  0.00    +0.000 A 
ATOM     17  C   UNL     1      46.629   1.857   7.616  0.00  0.00    +0.000 A 
ATOM     18  C   UNL     1      45.704   1.850   8.672  0.00  0.00    +0.000 A 
BRANCH  17  19
ATOM     19  C   UNL     1      47.306   0.582   7.178  0.00  0.00    +0.000 C 
BRANCH  19  20
ATOM     20  N   UNL     1      46.675  -0.607   7.737  0.00  0.00    +0.000 NA
ATOM     21  H   UNL     1      46.100  -1.042   7.016  0.00  0.00    +0.000 HD
ATOM     22  H   UNL     1      46.037  -0.323   8.479  0.00  0.00    +0.000 HD
ENDBRANCH  19  20
ENDBRANCH  17  19
ENDBRANCH  12  13
ENDBRANCH   1  12
TORSDOF 5
ENDMDL
MODEL 3
REMARK VINA RESULT:    -6.202      1.351      2.632
REMARK INTER + INTRA:          -8.495
REMARK INTER:                  -8.209
REMARK INTRA:                  -0.286
REMARK UNBOUND:                -0.662
REMARK  Name = 
REMARK  7 active torsions:
REMARK  status: ('A' for Active; 'I' for Inactive)
REMARK    1  A    between atoms: C_1  and  C_2
REMARK    2  A    between atoms: C_4  and  C_5
REMARK    3  A    between atoms: N_8  and  C_9
REMARK    4  A    between atoms: C_9  and  C_10
REMARK    5  A    between atoms: C_10  and  C_11
REMARK    6  A    between atoms: C_15  and  C_16
REMARK    7  A    between atoms: C_16  and  N_17
REMARK                            x       y       z     vdW  Elec       q    Type
REMARK                         _______ _______ _______ _____ _____    ______ ____
ROOT
ATOM      1  C   UNL     1      46.168   5.943  11.858  0.00  0.00    +0.000 C 
ENDROOT
BRANCH   1   9
ATOM      2  C   UNL     1      49.553   7.458  15.526  0.00  0.00    +0.000 C 
ATOM      3  C   UNL     1      48.589   6.322  15.393  0.00  0.00    +0.000 A 
ATOM      4  C   UNL     1      48.434   5.360  16.384  0.00  0.00    +0.000 A 
ATOM      5  C   UNL     1      47.516   4.335  16.181  0.00  0.00    +0.000 A 
ATOM      6  C   UNL     1      47.319   3.283  17.233  0.00  0.00    +0.000 C 
ATOM      7  N   UNL     1      46.764   4.227  15.054  0.00  0.00    +0.000 NA
ATOM      8  C   UNL     1      46.912   5.159  14.090  0.00  0.00    +0.000 A 
ATOM      9  N   UNL     1      46.123   5.015  12.970  0.00  0.00    +0.000 N 
ATOM     10  C   UNL     1      47.814   6.209  14.238  0.00  0.00    +0.000 A 
ATOM     11  H   UNL     1      45.518   4.207  12.980  0.00  0.00    +0.000 HD
ENDBRANCH   1   9
BRANCH   1  12
ATOM     12  C   UNL     1      44.930   5.857  10.969  0.00  0.00    +0.000 C 
BRANCH  12  13
ATOM     13  C   UNL     1      45.010   4.651  10.056  0.00  0.00    +0.000 A 
ATOM     14  C   UNL     1      44.350   3.461  10.392  0.00  0.00    +0.000 A 
ATOM     15  C   UNL     1      44.441   2.344   9.561  0.00  0.00    +0.000 A 
ATOM     16  C   UNL     1      45.188   2.407   8.384  0.00  0.00    +0.000 A 
ATOM     17  C   UNL     1      45.864   3.583   8.028  0.00  0.00    +0.000 A 
ATOM     18  C   UNL     1      45.779   4.695   8.881  0.00  0.00    +0.000 A 
BRANCH  17  19
ATOM     19  C   UNL     1      46.605   3.673   6.717  0.00  0.00    +0.000 C 
BRANCH  19  20
ATOM     20  N   UNL     1      47.830   2.882   6.711  0.00  0.00    +0.000 NA
ATOM     21  H   UNL     1      47.642   1.991   6.254  0.00  0.00    +0.000 HD
ATOM     22  H   UNL     1      48.084   2.663   7.673  0.00  0.00    +0.000 HD
ENDBRANCH  19  20
ENDBRANCH  17  19
ENDBRANCH  12  13
ENDBRANCH   1  12
TORSDOF 5
ENDMDL
MODEL 4
REMARK VINA RESULT:    -6.112      3.130      7.715
REMARK INTER + INTRA:          -8.382
REMARK INTER:                  -8.117
REMARK INTRA:                  -0.265
REMARK UNBOUND:                -0.662
REMARK  Name = 
REMARK  7 active torsions:
REMARK  status: ('A' for Active; 'I' for Inactive)
REMARK    1  A    between atoms: C_1  and  C_2
REMARK    2  A    between atoms: C_4  and  C_5
REMARK    3  A    between atoms: N_8  and  C_9
REMARK    4  A    between atoms: C_9  and  C_10
REMARK    5  A    between atoms: C_10  and  C_11
REMARK    6  A    between atoms: C_15  and  C_16
REMARK    7  A    between atoms: C_16  and  N_17
REMARK                            x       y       z     vdW  Elec       q    Type
REMARK                         _______ _______ _______ _____ _____    ______ ____
ROOT
ATOM      1  C   UNL     1      47.351   4.344  15.472  0.00  0.00    +0.000 C 
ENDROOT
BRANCH   1   9
ATOM      2  C   UNL     1      45.464   7.709  11.961  0.00  0.00    +0.000 C 
ATOM      3  C   UNL     1      45.453   6.218  12.098  0.00  0.00    +0.000 A 
ATOM      4  C   UNL     1      44.846   5.391  11.161  0.00  0.00    +0.000 A 
ATOM      5  C   UNL     1      44.880   4.015  11.364  0.00  0.00    +0.000 A 
ATOM      6  C   UNL     1      44.240   3.092  10.369  0.00  0.00    +0.000 C 
ATOM      7  N   UNL     1      45.479   3.441  12.441  0.00  0.00    +0.000 NA
ATOM      8  C   UNL     1      46.070   4.241  13.351  0.00  0.00    +0.000 A 
ATOM      9  N   UNL     1      46.672   3.615  14.421  0.00  0.00    +0.000 N 
ATOM     10  C   UNL     1      46.069   5.625  13.201  0.00  0.00    +0.000 A 
ATOM     11  H   UNL     1      46.594   2.608  14.419  0.00  0.00    +0.000 HD
ENDBRANCH   1   9
BRANCH   1  12
ATOM     12  C   UNL     1      47.589   3.496  16.719  0.00  0.00    +0.000 C 
BRANCH  12  13
ATOM     13  C   UNL     1      49.039   3.572  17.149  0.00  0.00    +0.000 A 
ATOM     14  C   UNL     1      49.581   4.779  17.607  0.00  0.00    +0.000 A 
ATOM     15  C   UNL     1      50.923   4.854  17.984  0.00  0.00    +0.000 A 
ATOM     16  C   UNL     1      51.734   3.721  17.911  0.00  0.00    +0.000 A 
ATOM     17  C   UNL     1      51.218   2.501  17.449  0.00  0.00    +0.000 A 
ATOM     18  C   UNL     1      49.871   2.443  17.057  0.00  0.00    +0.000 A 
BRANCH  17  19
ATOM     19  C   UNL     1      52.075   1.260  17.446  0.00  0.00    +0.000 C 
BRANCH  19  20
ATOM     20  N   UNL     1      51.474   0.164  18.197  0.00  0.00    +0.000 NA
ATOM     21  H   UNL     1      50.549   0.452  18.513  0.00  0.00    +0.000 HD
ATOM     22  H   UNL     1      52.025   0.000  19.038  0.00  0.00    +0.000 HD
ENDBRANCH  19  20
ENDBRANCH  17  19
ENDBRANCH  12  13
ENDBRANCH   1  12
TORSDOF 5
ENDMDL
MODEL 5
REMARK VINA RESULT:    -6.100      1.459      2.181
REMARK INTER + INTRA:          -8.366
REMARK INTER:                  -8.155
REMARK INTRA:                  -0.211
REMARK UNBOUND:                -0.662
REMARK  Name = 
REMARK  7 active torsions:
REMARK  status: ('A' for Active; 'I' for Inactive)
REMARK    1  A    between atoms: C_1  and  C_2
REMARK    2  A    between atoms: C_4  and  C_5
REMARK    3  A    between atoms: N_8  and  C_9
REMARK    4  A    between atoms: C_9  and  C_10
REMARK    5  A    between atoms: C_10  and  C_11
REMARK    6  A    between atoms: C_15  and  C_16
REMARK    7  A    between atoms: C_16  and  N_17
REMARK                            x       y       z     vdW  Elec       q    Type
REMARK                         _______ _______ _______ _____ _____    ______ ____
ROOT
ATOM      1  C   UNL     1      44.142   3.896  10.727  0.00  0.00    +0.000 C 
ENDROOT
BRANCH   1   9
ATOM      2  C   UNL     1      44.643   9.041  11.423  0.00  0.00    +0.000 C 
ATOM      3  C   UNL     1      45.374   7.838  11.929  0.00  0.00    +0.000 A 
ATOM      4  C   UNL     1      46.457   7.936  12.794  0.00  0.00    +0.000 A 
ATOM      5  C   UNL     1      47.081   6.768  13.218  0.00  0.00    +0.000 A 
ATOM      6  C   UNL     1      48.250   6.837  14.157  0.00  0.00    +0.000 C 
ATOM      7  N   UNL     1      46.682   5.530  12.822  0.00  0.00    +0.000 NA
ATOM      8  C   UNL     1      45.630   5.431  11.983  0.00  0.00    +0.000 A 
ATOM      9  N   UNL     1      45.256   4.157  11.615  0.00  0.00    +0.000 N 
ATOM     10  C   UNL     1      44.966   6.565  11.527  0.00  0.00    +0.000 A 
ATOM     11  H   UNL     1      45.825   3.420  12.006  0.00  0.00    +0.000 HD
ENDBRANCH   1   9
BRANCH   1  12
ATOM     12  C   UNL     1      44.452   4.249   9.274  0.00  0.00    +0.000 C 
BRANCH  12  13
ATOM     13  C   UNL     1      45.263   3.150   8.619  0.00  0.00    +0.000 A 
ATOM     14  C   UNL     1      45.056   1.810   8.970  0.00  0.00    +0.000 A 
ATOM     15  C   UNL     1      45.817   0.799   8.381  0.00  0.00    +0.000 A 
ATOM     16  C   UNL     1      46.790   1.119   7.433  0.00  0.00    +0.000 A 
ATOM     17  C   UNL     1      47.023   2.453   7.069  0.00  0.00    +0.000 A 
ATOM     18  C   UNL     1      46.261   3.462   7.681  0.00  0.00    +0.000 A 
BRANCH  17  19
ATOM     19  C   UNL     1      48.018   2.789   5.987  0.00  0.00    +0.000 C 
BRANCH  19  20
ATOM     20  N   UNL     1      48.361   1.634   5.165  0.00  0.00    +0.000 NA
ATOM     21  H   UNL     1      47.669   1.545   4.422  0.00  0.00    +0.000 HD
ATOM     22  H   UNL     1      48.283   0.792   5.732  0.00  0.00    +0.000 HD
ENDBRANCH  19  20
ENDBRANCH  17  19
ENDBRANCH  12  13
ENDBRANCH   1  12
TORSDOF 5
ENDMDL
MODEL 6
REMARK VINA RESULT:    -5.923      2.013      3.855
REMARK INTER + INTRA:          -8.143
REMARK INTER:                  -7.810
REMARK INTRA:                  -0.333
REMARK UNBOUND:                -0.662
REMARK  Name = 
REMARK  7 active torsions:
REMARK  status: ('A' for Active; 'I' for Inactive)
REMARK    1  A    between atoms: C_1  and  C_2
REMARK    2  A    between atoms: C_4  and  C_5
REMARK    3  A    between atoms: N_8  and  C_9
REMARK    4  A    between atoms: C_9  and  C_10
REMARK    5  A    between atoms: C_10  and  C_11
REMARK    6  A    between atoms: C_15  and  C_16
REMARK    7  A    between atoms: C_16  and  N_17
REMARK                            x       y       z     vdW  Elec       q    Type
REMARK                         _______ _______ _______ _____ _____    ______ ____
ROOT
ATOM      1  C   UNL     1      45.969   4.797  13.949  0.00  0.00    +0.000 C 
ENDROOT
BRANCH   1   9
ATOM      2  C   UNL     1      47.402   5.573  18.904  0.00  0.00    +0.000 C 
ATOM      3  C   UNL     1      47.787   4.592  17.841  0.00  0.00    +0.000 A 
ATOM      4  C   UNL     1      48.727   3.592  18.060  0.00  0.00    +0.000 A 
ATOM      5  C   UNL     1      49.029   2.722  17.018  0.00  0.00    +0.000 A 
ATOM      6  C   UNL     1      50.034   1.626  17.221  0.00  0.00    +0.000 C 
ATOM      7  N   UNL     1      48.449   2.806  15.791  0.00  0.00    +0.000 NA
ATOM      8  C   UNL     1      47.536   3.775  15.577  0.00  0.00    +0.000 A 
ATOM      9  N   UNL     1      46.968   3.817  14.321  0.00  0.00    +0.000 N 
ATOM     10  C   UNL     1      47.192   4.674  16.581  0.00  0.00    +0.000 A 
ATOM     11  H   UNL     1      47.310   3.116  13.680  0.00  0.00    +0.000 HD
ENDBRANCH   1   9
BRANCH   1  12
ATOM     12  C   UNL     1      44.780   4.177  13.217  0.00  0.00    +0.000 C 
BRANCH  12  13
ATOM     13  C   UNL     1      45.005   4.199  11.720  0.00  0.00    +0.000 A 
ATOM     14  C   UNL     1      45.417   5.376  11.081  0.00  0.00    +0.000 A 
ATOM     15  C   UNL     1      45.604   5.402   9.699  0.00  0.00    +0.000 A 
ATOM     16  C   UNL     1      45.386   4.250   8.941  0.00  0.00    +0.000 A 
ATOM     17  C   UNL     1      44.966   3.061   9.554  0.00  0.00    +0.000 A 
ATOM     18  C   UNL     1      44.765   3.052  10.944  0.00  0.00    +0.000 A 
BRANCH  17  19
ATOM     19  C   UNL     1      44.809   1.797   8.746  0.00  0.00    +0.000 C 
BRANCH  19  20
ATOM     20  N   UNL     1      46.090   1.205   8.379  0.00  0.00    +0.000 NA
ATOM     21  H   UNL     1      46.837   1.763   8.787  0.00  0.00    +0.000 HD
ATOM     22  H   UNL     1      46.203   1.267   7.368  0.00  0.00    +0.000 HD
ENDBRANCH  19  20
ENDBRANCH  17  19
ENDBRANCH  12  13
ENDBRANCH   1  12
TORSDOF 5
ENDMDL
MODEL 7
REMARK VINA RESULT:    -5.495      3.119      4.729
REMARK INTER + INTRA:          -7.602
REMARK INTER:                  -7.318
REMARK INTRA:                  -0.284
REMARK UNBOUND:                -0.662
REMARK  Name = 
REMARK  7 active torsions:
REMARK  status: ('A' for Active; 'I' for Inactive)
REMARK    1  A    between atoms: C_1  and  C_2
REMARK    2  A    between atoms: C_4  and  C_5
REMARK    3  A    between atoms: N_8  and  C_9
REMARK    4  A    between atoms: C_9  and  C_10
REMARK    5  A    between atoms: C_10  and  C_11
REMARK    6  A    between atoms: C_15  and  C_16
REMARK    7  A    between atoms: C_16  and  N_17
REMARK                            x       y       z     vdW  Elec       q    Type
REMARK                         _______ _______ _______ _____ _____    ______ ____
ROOT
ATOM      1  C   UNL     1      47.276   6.941  13.201  0.00  0.00    +0.000 C 
ENDROOT
BRANCH   1   9
ATOM      2  C   UNL     1      50.534   6.681  17.267  0.00  0.00    +0.000 C 
ATOM      3  C   UNL     1      49.378   5.857  16.794  0.00  0.00    +0.000 A 
ATOM      4  C   UNL     1      48.938   4.732  17.480  0.00  0.00    +0.000 A 
ATOM      5  C   UNL     1      47.856   4.020  16.972  0.00  0.00    +0.000 A 
ATOM      6  C   UNL     1      47.352   2.804  17.691  0.00  0.00    +0.000 C 
ATOM      7  N   UNL     1      47.208   4.374  15.831  0.00  0.00    +0.000 NA
ATOM      8  C   UNL     1      47.632   5.467  15.163  0.00  0.00    +0.000 A 
ATOM      9  N   UNL     1      46.940   5.792  14.016  0.00  0.00    +0.000 N 
ATOM     10  C   UNL     1      48.708   6.218  15.624  0.00  0.00    +0.000 A 
ATOM     11  H   UNL     1      46.186   5.161  13.784  0.00  0.00    +0.000 HD
ENDBRANCH   1   9
BRANCH   1  12
ATOM     12  C   UNL     1      47.019   6.704  11.715  0.00  0.00    +0.000 C 
BRANCH  12  13
ATOM     13  C   UNL     1      45.617   6.177  11.492  0.00  0.00    +0.000 A 
ATOM     14  C   UNL     1      44.514   7.038  11.569  0.00  0.00    +0.000 A 
ATOM     15  C   UNL     1      43.221   6.549  11.384  0.00  0.00    +0.000 A 
ATOM     16  C   UNL     1      43.017   5.195  11.116  0.00  0.00    +0.000 A 
ATOM     17  C   UNL     1      44.102   4.310  11.041  0.00  0.00    +0.000 A 
ATOM     18  C   UNL     1      45.398   4.812  11.245  0.00  0.00    +0.000 A 
BRANCH  17  19
ATOM     19  C   UNL     1      43.886   2.863  10.673  0.00  0.00    +0.000 C 
BRANCH  19  20
ATOM     20  N   UNL     1      43.055   2.158  11.641  0.00  0.00    +0.000 NA
ATOM     21  H   UNL     1      42.558   1.409  11.162  0.00  0.00    +0.000 HD
ATOM     22  H   UNL     1      42.343   2.797  11.991  0.00  0.00    +0.000 HD
ENDBRANCH  19  20
ENDBRANCH  17  19
ENDBRANCH  12  13
ENDBRANCH   1  12
TORSDOF 5
ENDMDL
MODEL 8
REMARK VINA RESULT:    -5.435      3.291      7.773
REMARK INTER + INTRA:          -7.527
REMARK INTER:                  -7.218
REMARK INTRA:                  -0.309
REMARK UNBOUND:                -0.662
REMARK  Name = 
REMARK  7 active torsions:
REMARK  status: ('A' for Active; 'I' for Inactive)
REMARK    1  A    between atoms: C_1  and  C_2
REMARK    2  A    between atoms: C_4  and  C_5
REMARK    3  A    between atoms: N_8  and  C_9
REMARK    4  A    between atoms: C_9  and  C_10
REMARK    5  A    between atoms: C_10  and  C_11
REMARK    6  A    between atoms: C_15  and  C_16
REMARK    7  A    between atoms: C_16  and  N_17
REMARK                            x       y       z     vdW  Elec       q    Type
REMARK                         _______ _______ _______ _____ _____    ______ ____
ROOT
ATOM      1  C   UNL     1      47.268   3.866  15.368  0.00  0.00    +0.000 C 
ENDROOT
BRANCH   1   9
ATOM      2  C   UNL     1      44.766   2.991  10.875  0.00  0.00    +0.000 C 
ATOM      3  C   UNL     1      45.145   4.217  11.644  0.00  0.00    +0.000 A 
ATOM      4  C   UNL     1      44.831   5.497  11.202  0.00  0.00    +0.000 A 
ATOM      5  C   UNL     1      45.220   6.585  11.977  0.00  0.00    +0.000 A 
ATOM      6  C   UNL     1      44.893   7.980  11.532  0.00  0.00    +0.000 C 
ATOM      7  N   UNL     1      45.897   6.455  13.148  0.00  0.00    +0.000 NA
ATOM      8  C   UNL     1      46.202   5.214  13.580  0.00  0.00    +0.000 A 
ATOM      9  N   UNL     1      46.882   5.130  14.776  0.00  0.00    +0.000 N 
ATOM     10  C   UNL     1      45.838   4.088  12.848  0.00  0.00    +0.000 A 
ATOM     11  H   UNL     1      47.096   6.020  15.204  0.00  0.00    +0.000 HD
ENDBRANCH   1   9
BRANCH   1  12
ATOM     12  C   UNL     1      47.498   3.966  16.874  0.00  0.00    +0.000 C 
BRANCH  12  13
ATOM     13  C   UNL     1      48.969   4.161  17.178  0.00  0.00    +0.000 A 
ATOM     14  C   UNL     1      49.507   5.451  17.281  0.00  0.00    +0.000 A 
ATOM     15  C   UNL     1      50.866   5.630  17.542  0.00  0.00    +0.000 A 
ATOM     16  C   UNL     1      51.699   4.523  17.707  0.00  0.00    +0.000 A 
ATOM     17  C   UNL     1      51.188   3.222  17.602  0.00  0.00    +0.000 A 
ATOM     18  C   UNL     1      49.822   3.054  17.323  0.00  0.00    +0.000 A 
BRANCH  17  19
ATOM     19  C   UNL     1      52.073   2.028  17.859  0.00  0.00    +0.000 C 
BRANCH  19  20
ATOM     20  N   UNL     1      51.404   0.764  17.578  0.00  0.00    +0.000 NA
ATOM     21  H   UNL     1      50.912   0.460  18.417  0.00  0.00    +0.000 HD
ATOM     22  H   UNL     1      52.108   0.054  17.386  0.00  0.00    +0.000 HD
ENDBRANCH  19  20
ENDBRANCH  17  19
ENDBRANCH  12  13
ENDBRANCH   1  12
TORSDOF 5
ENDMDL
MODEL 9
REMARK VINA RESULT:    -5.390      2.493      4.806
REMARK INTER + INTRA:          -7.470
REMARK INTER:                  -7.071
REMARK INTRA:                  -0.399
REMARK UNBOUND:                -0.662
REMARK  Name = 
REMARK  7 active torsions:
REMARK  status: ('A' for Active; 'I' for Inactive)
REMARK    1  A    between atoms: C_1  and  C_2
REMARK    2  A    between atoms: C_4  and  C_5
REMARK    3  A    between atoms: N_8  and  C_9
REMARK    4  A    between atoms: C_9  and  C_10
REMARK    5  A    between atoms: C_10  and  C_11
REMARK    6  A    between atoms: C_15  and  C_16
REMARK    7  A    between atoms: C_16  and  N_17
REMARK                            x       y       z     vdW  Elec       q    Type
REMARK                         _______ _______ _______ _____ _____    ______ ____
ROOT
ATOM      1  C   UNL     1      47.520   5.809  13.312  0.00  0.00    +0.000 C 
ENDROOT
BRANCH   1   9
ATOM      2  C   UNL     1      47.251   2.830  17.585  0.00  0.00    +0.000 C 
ATOM      3  C   UNL     1      47.804   4.187  17.285  0.00  0.00    +0.000 A 
ATOM      4  C   UNL     1      48.424   4.967  18.254  0.00  0.00    +0.000 A 
ATOM      5  C   UNL     1      48.911   6.219  17.893  0.00  0.00    +0.000 A 
ATOM      6  C   UNL     1      49.591   7.085  18.912  0.00  0.00    +0.000 C 
ATOM      7  N   UNL     1      48.806   6.718  16.633  0.00  0.00    +0.000 NA
ATOM      8  C   UNL     1      48.206   5.963  15.690  0.00  0.00    +0.000 A 
ATOM      9  N   UNL     1      48.129   6.507  14.425  0.00  0.00    +0.000 N 
ATOM     10  C   UNL     1      47.701   4.703  15.992  0.00  0.00    +0.000 A 
ATOM     11  H   UNL     1      48.524   7.432  14.338  0.00  0.00    +0.000 HD
ENDBRANCH   1   9
BRANCH   1  12
ATOM     12  C   UNL     1      46.219   6.460  12.850  0.00  0.00    +0.000 C 
BRANCH  12  13
ATOM     13  C   UNL     1      45.288   5.428  12.249  0.00  0.00    +0.000 A 
ATOM     14  C   UNL     1      44.372   4.742  13.058  0.00  0.00    +0.000 A 
ATOM     15  C   UNL     1      43.528   3.776  12.509  0.00  0.00    +0.000 A 
ATOM     16  C   UNL     1      43.589   3.489  11.145  0.00  0.00    +0.000 A 
ATOM     17  C   UNL     1      44.501   4.155  10.314  0.00  0.00    +0.000 A 
ATOM     18  C   UNL     1      45.356   5.113  10.882  0.00  0.00    +0.000 A 
BRANCH  17  19
ATOM     19  C   UNL     1      44.509   3.900   8.827  0.00  0.00    +0.000 C 
BRANCH  19  20
ATOM     20  N   UNL     1      45.493   4.716   8.126  0.00  0.00    +0.000 NA
ATOM     21  H   UNL     1      45.007   5.320   7.465  0.00  0.00    +0.000 HD
ATOM     22  H   UNL     1      46.091   4.106   7.570  0.00  0.00    +0.000 HD
ENDBRANCH  19  20
ENDBRANCH  17  19
ENDBRANCH  12  13
ENDBRANCH   1  12
TORSDOF 5
ENDMDL
