MODEL 1
REMARK VINA RESULT:    -8.274      0.000      0.000
REMARK INTER + INTRA:         -12.659
REMARK INTER:                 -11.660
REMARK INTRA:                  -1.000
REMARK UNBOUND:                -1.000
REMARK  Name = 
REMARK  7 active torsions:
REMARK  status: ('A' for Active; 'I' for Inactive)
REMARK    1  A    between atoms: C_2  and  C_20
REMARK    2  A    between atoms: N_3  and  C_4
REMARK    3  A    between atoms: C_4  and  C_5
REMARK    4  A    between atoms: C_8  and  N_9
REMARK    5  A    between atoms: N_9  and  C_10
REMARK    6  A    between atoms: C_10  and  C_11
REMARK    7  A    between atoms: C_11  and  C_12
REMARK                            x       y       z     vdW  Elec       q    Type
REMARK                         _______ _______ _______ _____ _____    ______ ____
ROOT
ATOM      1  C   UNL     1      45.869   5.753  12.162  0.00  0.00    +0.000 A 
ATOM      2  C   UNL     1      45.695   4.559  12.871  0.00  0.00    +0.000 A 
ATOM      3  C   UNL     1      45.128   3.447  12.246  0.00  0.00    +0.000 A 
ATOM      4  C   UNL     1      44.698   3.514  10.916  0.00  0.00    +0.000 A 
ATOM      5  C   UNL     1      44.979   4.670  10.184  0.00  0.00    +0.000 A 
ATOM      6  C   UNL     1      45.548   5.785  10.801  0.00  0.00    +0.000 A 
ENDROOT
BRANCH   4   7
ATOM      7  N   UNL     1      44.069   2.452  10.246  0.00  0.00    +0.000 N 
ATOM      8  H   UNL     1      43.058   2.567  10.315  0.00  0.00    +0.000 HD
BRANCH   7   9
ATOM      9  C   UNL     1      44.484   2.197   8.861  0.00  0.00    +0.000 C 
BRANCH   9  10
ATOM     10  C   UNL     1      45.931   1.688   8.789  0.00  0.00    +0.000 C 
BRANCH  10  11
ATOM     11  C   UNL     1      46.550   1.929   7.445  0.00  0.00    +0.000 A 
ATOM     12  C   UNL     1      46.331   3.125   6.750  0.00  0.00    +0.000 A 
ATOM     13  C   UNL     1      46.914   3.302   5.503  0.00  0.00    +0.000 A 
ATOM     14  C   UNL     1      47.713   2.294   4.992  0.00  0.00    +0.000 A 
ATOM     15  N   UNL     1      47.936   1.122   5.626  0.00  0.00    +0.000 NA
ATOM     16  C   UNL     1      47.342   0.966   6.830  0.00  0.00    +0.000 A 
ENDBRANCH  10  11
ENDBRANCH   9  10
ENDBRANCH   7   9
ENDBRANCH   4   7
BRANCH   1  17
ATOM     17  C   UNL     1      46.452   6.969  12.826  0.00  0.00    +0.000 C 
BRANCH  17  20
ATOM     18  O   UNL     1      49.133   6.481  13.426  0.00  0.00    +0.000 OA
ATOM     19  C   UNL     1      48.312   6.461  14.335  0.00  0.00    +0.000 C 
ATOM     20  N   UNL     1      46.967   6.626  14.121  0.00  0.00    +0.000 N 
ATOM     21  H   UNL     1      46.315   6.474  14.875  0.00  0.00    +0.000 HD
BRANCH  19  22
ATOM     22  C   UNL     1      48.676   6.280  15.737  0.00  0.00    +0.000 A 
ATOM     23  C   UNL     1      49.641   6.991  16.437  0.00  0.00    +0.000 A 
ATOM     24  N   UNL     1      49.576   6.566  17.733  0.00  0.00    +0.000 N 
ATOM     25  C   UNL     1      49.055   5.299  17.744  0.00  0.00    +0.000 A 
ATOM     26  C   UNL     1      49.203   4.240  18.641  0.00  0.00    +0.000 A 
ATOM     27  C   UNL     1      48.395   3.120  18.427  0.00  0.00    +0.000 A 
ATOM     28  C   UNL     1      47.401   3.130  17.448  0.00  0.00    +0.000 A 
ATOM     29  C   UNL     1      47.297   4.192  16.542  0.00  0.00    +0.000 A 
ATOM     30  C   UNL     1      48.233   5.240  16.621  0.00  0.00    +0.000 A 
ATOM     31  H   UNL     1      49.900   7.074  18.546  0.00  0.00    +0.000 HD
ENDBRANCH  19  22
ENDBRANCH  17  20
ENDBRANCH   1  17
TORSDOF 7
ENDMDL
MODEL 2
REMARK VINA RESULT:    -7.973      1.728      2.287
REMARK INTER + INTRA:         -12.235
REMARK INTER:                 -11.356
REMARK INTRA:                  -0.879
REMARK UNBOUND:                -1.000
REMARK  Name = 
REMARK  7 active torsions:
REMARK  status: ('A' for Active; 'I' for Inactive)
REMARK    1  A    between atoms: C_2  and  C_20
REMARK    2  A    between atoms: N_3  and  C_4
REMARK    3  A    between atoms: C_4  and  C_5
REMARK    4  A    between atoms: C_8  and  N_9
REMARK    5  A    between atoms: N_9  and  C_10
REMARK    6  A    between atoms: C_10  and  C_11
REMARK    7  A    between atoms: C_11  and  C_12
REMARK                            x       y       z     vdW  Elec       q    Type
REMARK                         _______ _______ _______ _____ _____    ______ ____
ROOT
ATOM      1  C   UNL     1      46.732   5.614  12.898  0.00  0.00    +0.000 A 
ATOM      2  C   UNL     1      46.264   4.353  13.286  0.00  0.00    +0.000 A 
ATOM      3  C   UNL     1      45.359   3.660  12.479  0.00  0.00    +0.000 A 
ATOM      4  C   UNL     1      44.882   4.223  11.289  0.00  0.00    +0.000 A 
ATOM      5  C   UNL     1      45.440   5.427  10.854  0.00  0.00    +0.000 A 
ATOM      6  C   UNL     1      46.347   6.125  11.653  0.00  0.00    +0.000 A 
ENDROOT
BRANCH   4   7
ATOM      7  N   UNL     1      43.930   3.606  10.462  0.00  0.00    +0.000 N 
ATOM      8  H   UNL     1      43.082   4.172  10.451  0.00  0.00    +0.000 HD
BRANCH   7   9
ATOM      9  C   UNL     1      44.355   3.255   9.101  0.00  0.00    +0.000 C 
BRANCH   9  10
ATOM     10  C   UNL     1      45.484   2.213   9.112  0.00  0.00    +0.000 C 
BRANCH  10  11
ATOM     11  C   UNL     1      46.244   2.188   7.821  0.00  0.00    +0.000 A 
ATOM     12  C   UNL     1      46.157   3.246   6.907  0.00  0.00    +0.000 A 
ATOM     13  C   UNL     1      46.869   3.176   5.718  0.00  0.00    +0.000 A 
ATOM     14  C   UNL     1      47.661   2.066   5.480  0.00  0.00    +0.000 A 
ATOM     15  N   UNL     1      47.759   1.020   6.330  0.00  0.00    +0.000 NA
ATOM     16  C   UNL     1      47.042   1.104   7.472  0.00  0.00    +0.000 A 
ENDBRANCH  10  11
ENDBRANCH   9  10
ENDBRANCH   7   9
ENDBRANCH   4   7
BRANCH   1  17
ATOM     17  C   UNL     1      47.684   6.386  13.765  0.00  0.00    +0.000 C 
BRANCH  17  20
ATOM     18  O   UNL     1      49.816   6.465  15.565  0.00  0.00    +0.000 OA
ATOM     19  C   UNL     1      48.745   6.003  15.939  0.00  0.00    +0.000 C 
ATOM     20  N   UNL     1      47.665   5.867  15.104  0.00  0.00    +0.000 N 
ATOM     21  H   UNL     1      46.848   5.365  15.415  0.00  0.00    +0.000 HD
BRANCH  19  22
ATOM     22  C   UNL     1      48.497   5.569  17.311  0.00  0.00    +0.000 A 
ATOM     23  C   UNL     1      48.081   4.307  17.713  0.00  0.00    +0.000 A 
ATOM     24  N   UNL     1      48.075   4.314  19.079  0.00  0.00    +0.000 N 
ATOM     25  C   UNL     1      47.915   5.609  19.500  0.00  0.00    +0.000 A 
ATOM     26  C   UNL     1      47.371   6.146  20.668  0.00  0.00    +0.000 A 
ATOM     27  C   UNL     1      47.507   7.525  20.844  0.00  0.00    +0.000 A 
ATOM     28  C   UNL     1      48.267   8.290  19.959  0.00  0.00    +0.000 A 
ATOM     29  C   UNL     1      48.771   7.731  18.779  0.00  0.00    +0.000 A 
ATOM     30  C   UNL     1      48.476   6.386  18.489  0.00  0.00    +0.000 A 
ATOM     31  H   UNL     1      48.129   3.504  19.681  0.00  0.00    +0.000 HD
ENDBRANCH  19  22
ENDBRANCH  17  20
ENDBRANCH   1  17
TORSDOF 7
ENDMDL
MODEL 3
REMARK VINA RESULT:    -7.942      2.228      8.788
REMARK INTER + INTRA:         -12.192
REMARK INTER:                 -11.031
REMARK INTRA:                  -1.161
REMARK UNBOUND:                -1.000
REMARK  Name = 
REMARK  7 active torsions:
REMARK  status: ('A' for Active; 'I' for Inactive)
REMARK    1  A    between atoms: C_2  and  C_20
REMARK    2  A    between atoms: N_3  and  C_4
REMARK    3  A    between atoms: C_4  and  C_5
REMARK    4  A    between atoms: C_8  and  N_9
REMARK    5  A    between atoms: N_9  and  C_10
REMARK    6  A    between atoms: C_10  and  C_11
REMARK    7  A    between atoms: C_11  and  C_12
REMARK                            x       y       z     vdW  Elec       q    Type
REMARK                         _______ _______ _______ _____ _____    ______ ____
ROOT
ATOM      1  C   UNL     1      46.379   7.336  12.490  0.00  0.00    +0.000 A 
ATOM      2  C   UNL     1      46.461   8.453  13.329  0.00  0.00    +0.000 A 
ATOM      3  C   UNL     1      47.626   8.699  14.059  0.00  0.00    +0.000 A 
ATOM      4  C   UNL     1      48.715   7.823  13.988  0.00  0.00    +0.000 A 
ATOM      5  C   UNL     1      48.668   6.777  13.064  0.00  0.00    +0.000 A 
ATOM      6  C   UNL     1      47.508   6.525  12.329  0.00  0.00    +0.000 A 
ENDROOT
BRANCH   4   7
ATOM      7  N   UNL     1      49.892   7.981  14.737  0.00  0.00    +0.000 N 
ATOM      8  H   UNL     1      49.911   8.921  15.132  0.00  0.00    +0.000 HD
BRANCH   7   9
ATOM      9  C   UNL     1      50.176   6.967  15.760  0.00  0.00    +0.000 C 
BRANCH   9  10
ATOM     10  C   UNL     1      49.023   6.842  16.767  0.00  0.00    +0.000 C 
BRANCH  10  11
ATOM     11  C   UNL     1      48.591   5.420  16.960  0.00  0.00    +0.000 A 
ATOM     12  C   UNL     1      49.114   4.637  17.996  0.00  0.00    +0.000 A 
ATOM     13  C   UNL     1      48.694   3.321  18.131  0.00  0.00    +0.000 A 
ATOM     14  C   UNL     1      47.753   2.828  17.244  0.00  0.00    +0.000 A 
ATOM     15  N   UNL     1      47.236   3.547  16.224  0.00  0.00    +0.000 NA
ATOM     16  C   UNL     1      47.675   4.820  16.103  0.00  0.00    +0.000 A 
ENDBRANCH  10  11
ENDBRANCH   9  10
ENDBRANCH   7   9
ENDBRANCH   4   7
BRANCH   1  17
ATOM     17  C   UNL     1      45.125   7.039  11.718  0.00  0.00    +0.000 C 
BRANCH  17  20
ATOM     18  O   UNL     1      42.918   5.595  10.805  0.00  0.00    +0.000 OA
ATOM     19  C   UNL     1      44.027   5.081  10.738  0.00  0.00    +0.000 C 
ATOM     20  N   UNL     1      45.157   5.692  11.222  0.00  0.00    +0.000 N 
ATOM     21  H   UNL     1      46.026   5.183  11.264  0.00  0.00    +0.000 HD
BRANCH  19  22
ATOM     22  C   UNL     1      44.270   3.780  10.123  0.00  0.00    +0.000 A 
ATOM     23  C   UNL     1      43.937   2.541  10.656  0.00  0.00    +0.000 A 
ATOM     24  N   UNL     1      44.253   1.611   9.707  0.00  0.00    +0.000 N 
ATOM     25  C   UNL     1      45.235   2.131   8.905  0.00  0.00    +0.000 A 
ATOM     26  C   UNL     1      46.235   1.521   8.146  0.00  0.00    +0.000 A 
ATOM     27  C   UNL     1      46.984   2.356   7.312  0.00  0.00    +0.000 A 
ATOM     28  C   UNL     1      46.649   3.701   7.156  0.00  0.00    +0.000 A 
ATOM     29  C   UNL     1      45.663   4.292   7.955  0.00  0.00    +0.000 A 
ATOM     30  C   UNL     1      45.033   3.509   8.939  0.00  0.00    +0.000 A 
ATOM     31  H   UNL     1      43.867   0.679   9.631  0.00  0.00    +0.000 HD
ENDBRANCH  19  22
ENDBRANCH  17  20
ENDBRANCH   1  17
TORSDOF 7
ENDMDL
MODEL 4
REMARK VINA RESULT:    -7.855      1.482      1.872
REMARK INTER + INTRA:         -12.069
REMARK INTER:                 -10.902
REMARK INTRA:                  -1.167
REMARK UNBOUND:                -1.000
REMARK  Name = 
REMARK  7 active torsions:
REMARK  status: ('A' for Active; 'I' for Inactive)
REMARK    1  A    between atoms: C_2  and  C_20
REMARK    2  A    between atoms: N_3  and  C_4
REMARK    3  A    between atoms: C_4  and  C_5
REMARK    4  A    between atoms: C_8  and  N_9
REMARK    5  A    between atoms: N_9  and  C_10
REMARK    6  A    between atoms: C_10  and  C_11
REMARK    7  A    between atoms: C_11  and  C_12
REMARK                            x       y       z     vdW  Elec       q    Type
REMARK                         _______ _______ _______ _____ _____    ______ ____
ROOT
ATOM      1  C   UNL     1      46.936   6.875  12.749  0.00  0.00    +0.000 A 
ATOM      2  C   UNL     1      46.860   5.517  13.076  0.00  0.00    +0.000 A 
ATOM      3  C   UNL     1      45.848   4.719  12.536  0.00  0.00    +0.000 A 
ATOM      4  C   UNL     1      44.880   5.268  11.687  0.00  0.00    +0.000 A 
ATOM      5  C   UNL     1      45.029   6.594  11.277  0.00  0.00    +0.000 A 
ATOM      6  C   UNL     1      46.040   7.397  11.809  0.00  0.00    +0.000 A 
ENDROOT
BRANCH   4   7
ATOM      7  N   UNL     1      43.805   4.536  11.156  0.00  0.00    +0.000 N 
ATOM      8  H   UNL     1      43.155   5.180  10.706  0.00  0.00    +0.000 HD
BRANCH   7   9
ATOM      9  C   UNL     1      44.135   3.408  10.276  0.00  0.00    +0.000 C 
BRANCH   9  10
ATOM     10  C   UNL     1      44.524   3.884   8.869  0.00  0.00    +0.000 C 
BRANCH  10  11
ATOM     11  C   UNL     1      45.556   2.999   8.236  0.00  0.00    +0.000 A 
ATOM     12  C   UNL     1      46.457   3.498   7.288  0.00  0.00    +0.000 A 
ATOM     13  C   UNL     1      47.389   2.641   6.721  0.00  0.00    +0.000 A 
ATOM     14  C   UNL     1      47.409   1.317   7.124  0.00  0.00    +0.000 A 
ATOM     15  N   UNL     1      46.547   0.796   8.025  0.00  0.00    +0.000 NA
ATOM     16  C   UNL     1      45.638   1.647   8.550  0.00  0.00    +0.000 A 
ENDBRANCH  10  11
ENDBRANCH   9  10
ENDBRANCH   7   9
ENDBRANCH   4   7
BRANCH   1  17
ATOM     17  C   UNL     1      48.000   7.755  13.341  0.00  0.00    +0.000 C 
BRANCH  17  20
ATOM     18  O   UNL     1      48.424   8.496  15.998  0.00  0.00    +0.000 OA
ATOM     19  C   UNL     1      48.880   7.430  15.603  0.00  0.00    +0.000 C 
ATOM     20  N   UNL     1      48.775   7.017  14.299  0.00  0.00    +0.000 N 
ATOM     21  H   UNL     1      49.274   6.198  13.988  0.00  0.00    +0.000 HD
BRANCH  19  22
ATOM     22  C   UNL     1      49.563   6.480  16.476  0.00  0.00    +0.000 A 
ATOM     23  C   UNL     1      50.846   6.611  16.992  0.00  0.00    +0.000 A 
ATOM     24  N   UNL     1      51.038   5.550  17.831  0.00  0.00    +0.000 N 
ATOM     25  C   UNL     1      50.212   4.532  17.433  0.00  0.00    +0.000 A 
ATOM     26  C   UNL     1      50.311   3.146  17.570  0.00  0.00    +0.000 A 
ATOM     27  C   UNL     1      49.199   2.398  17.178  0.00  0.00    +0.000 A 
ATOM     28  C   UNL     1      48.010   3.023  16.801  0.00  0.00    +0.000 A 
ATOM     29  C   UNL     1      47.950   4.412  16.640  0.00  0.00    +0.000 A 
ATOM     30  C   UNL     1      49.121   5.166  16.843  0.00  0.00    +0.000 A 
ATOM     31  H   UNL     1      51.707   5.500  18.588  0.00  0.00    +0.000 HD
ENDBRANCH  19  22
ENDBRANCH  17  20
ENDBRANCH   1  17
TORSDOF 7
ENDMDL
MODEL 5
REMARK VINA RESULT:    -7.008      2.267      8.695
REMARK INTER + INTRA:         -10.875
REMARK INTER:                  -9.732
REMARK INTRA:                  -1.143
REMARK UNBOUND:                -1.000
REMARK  Name = 
REMARK  7 active torsions:
REMARK  status: ('A' for Active; 'I' for Inactive)
REMARK    1  A    between atoms: C_2  and  C_20
REMARK    2  A    between atoms: N_3  and  C_4
REMARK    3  A    between atoms: C_4  and  C_5
REMARK    4  A    between atoms: C_8  and  N_9
REMARK    5  A    between atoms: N_9  and  C_10
REMARK    6  A    between atoms: C_10  and  C_11
REMARK    7  A    between atoms: C_11  and  C_12
REMARK                            x       y       z     vdW  Elec       q    Type
REMARK                         _______ _______ _______ _____ _____    ______ ____
ROOT
ATOM      1  C   UNL     1      48.576   7.325  13.162  0.00  0.00    +0.000 A 
ATOM      2  C   UNL     1      48.006   6.588  14.207  0.00  0.00    +0.000 A 
ATOM      3  C   UNL     1      48.680   6.455  15.422  0.00  0.00    +0.000 A 
ATOM      4  C   UNL     1      49.944   7.027  15.607  0.00  0.00    +0.000 A 
ATOM      5  C   UNL     1      50.453   7.854  14.603  0.00  0.00    +0.000 A 
ATOM      6  C   UNL     1      49.784   7.994  13.386  0.00  0.00    +0.000 A 
ENDROOT
BRANCH   4   7
ATOM      7  N   UNL     1      50.700   6.884  16.783  0.00  0.00    +0.000 N 
ATOM      8  H   UNL     1      51.379   7.643  16.834  0.00  0.00    +0.000 HD
BRANCH   7   9
ATOM      9  C   UNL     1      49.957   6.746  18.041  0.00  0.00    +0.000 C 
BRANCH   9  10
ATOM     10  C   UNL     1      50.281   5.420  18.746  0.00  0.00    +0.000 C 
BRANCH  10  11
ATOM     11  C   UNL     1      49.744   4.236  17.999  0.00  0.00    +0.000 A 
ATOM     12  C   UNL     1      48.367   3.998  17.911  0.00  0.00    +0.000 A 
ATOM     13  C   UNL     1      47.914   2.884  17.219  0.00  0.00    +0.000 A 
ATOM     14  C   UNL     1      48.841   2.049  16.620  0.00  0.00    +0.000 A 
ATOM     15  N   UNL     1      50.177   2.238  16.694  0.00  0.00    +0.000 NA
ATOM     16  C   UNL     1      50.594   3.320  17.389  0.00  0.00    +0.000 A 
ENDBRANCH  10  11
ENDBRANCH   9  10
ENDBRANCH   7   9
ENDBRANCH   4   7
BRANCH   1  17
ATOM     17  C   UNL     1      47.878   7.456  11.838  0.00  0.00    +0.000 C 
BRANCH  17  20
ATOM     18  O   UNL     1      45.114   7.660  11.519  0.00  0.00    +0.000 OA
ATOM     19  C   UNL     1      45.637   6.556  11.436  0.00  0.00    +0.000 C 
ATOM     20  N   UNL     1      46.978   6.355  11.642  0.00  0.00    +0.000 N 
ATOM     21  H   UNL     1      47.345   5.417  11.692  0.00  0.00    +0.000 HD
BRANCH  19  22
ATOM     22  C   UNL     1      44.898   5.345  11.090  0.00  0.00    +0.000 A 
ATOM     23  C   UNL     1      44.048   4.632  11.925  0.00  0.00    +0.000 A 
ATOM     24  N   UNL     1      43.498   3.638  11.166  0.00  0.00    +0.000 N 
ATOM     25  C   UNL     1      44.354   3.367  10.131  0.00  0.00    +0.000 A 
ATOM     26  C   UNL     1      44.567   2.209   9.380  0.00  0.00    +0.000 A 
ATOM     27  C   UNL     1      45.421   2.325   8.280  0.00  0.00    +0.000 A 
ATOM     28  C   UNL     1      45.917   3.567   7.886  0.00  0.00    +0.000 A 
ATOM     29  C   UNL     1      45.715   4.705   8.676  0.00  0.00    +0.000 A 
ATOM     30  C   UNL     1      45.021   4.566   9.892  0.00  0.00    +0.000 A 
ATOM     31  H   UNL     1      42.634   3.150  11.356  0.00  0.00    +0.000 HD
ENDBRANCH  19  22
ENDBRANCH  17  20
ENDBRANCH   1  17
TORSDOF 7
ENDMDL
MODEL 6
REMARK VINA RESULT:    -6.973      2.943      3.828
REMARK INTER + INTRA:         -10.826
REMARK INTER:                 -10.082
REMARK INTRA:                  -0.744
REMARK UNBOUND:                -1.000
REMARK  Name = 
REMARK  7 active torsions:
REMARK  status: ('A' for Active; 'I' for Inactive)
REMARK    1  A    between atoms: C_2  and  C_20
REMARK    2  A    between atoms: N_3  and  C_4
REMARK    3  A    between atoms: C_4  and  C_5
REMARK    4  A    between atoms: C_8  and  N_9
REMARK    5  A    between atoms: N_9  and  C_10
REMARK    6  A    between atoms: C_10  and  C_11
REMARK    7  A    between atoms: C_11  and  C_12
REMARK                            x       y       z     vdW  Elec       q    Type
REMARK                         _______ _______ _______ _____ _____    ______ ____
ROOT
ATOM      1  C   UNL     1      47.297   5.742  13.719  0.00  0.00    +0.000 A 
ATOM      2  C   UNL     1      46.706   4.486  13.538  0.00  0.00    +0.000 A 
ATOM      3  C   UNL     1      45.795   4.279  12.501  0.00  0.00    +0.000 A 
ATOM      4  C   UNL     1      45.434   5.327  11.645  0.00  0.00    +0.000 A 
ATOM      5  C   UNL     1      46.112   6.542  11.761  0.00  0.00    +0.000 A 
ATOM      6  C   UNL     1      47.026   6.756  12.793  0.00  0.00    +0.000 A 
ENDROOT
BRANCH   4   7
ATOM      7  N   UNL     1      44.484   5.202  10.619  0.00  0.00    +0.000 N 
ATOM      8  H   UNL     1      44.594   5.979   9.968  0.00  0.00    +0.000 HD
BRANCH   7   9
ATOM      9  C   UNL     1      44.428   3.917   9.912  0.00  0.00    +0.000 C 
BRANCH   9  10
ATOM     10  C   UNL     1      44.742   4.081   8.417  0.00  0.00    +0.000 C 
BRANCH  10  11
ATOM     11  C   UNL     1      45.720   3.054   7.929  0.00  0.00    +0.000 A 
ATOM     12  C   UNL     1      46.667   3.365   6.945  0.00  0.00    +0.000 A 
ATOM     13  C   UNL     1      47.546   2.382   6.514  0.00  0.00    +0.000 A 
ATOM     14  C   UNL     1      47.470   1.124   7.086  0.00  0.00    +0.000 A 
ATOM     15  N   UNL     1      46.562   0.782   8.027  0.00  0.00    +0.000 NA
ATOM     16  C   UNL     1      45.706   1.752   8.416  0.00  0.00    +0.000 A 
ENDBRANCH  10  11
ENDBRANCH   9  10
ENDBRANCH   7   9
ENDBRANCH   4   7
BRANCH   1  17
ATOM     17  C   UNL     1      48.259   5.990  14.846  0.00  0.00    +0.000 C 
BRANCH  17  20
ATOM     18  O   UNL     1      49.538   7.019  17.102  0.00  0.00    +0.000 OA
ATOM     19  C   UNL     1      48.745   7.730  16.499  0.00  0.00    +0.000 C 
ATOM     20  N   UNL     1      48.024   7.285  15.419  0.00  0.00    +0.000 N 
ATOM     21  H   UNL     1      47.290   7.858  15.033  0.00  0.00    +0.000 HD
BRANCH  19  22
ATOM     22  C   UNL     1      48.496   9.126  16.847  0.00  0.00    +0.000 A 
ATOM     23  C   UNL     1      48.998  10.241  16.191  0.00  0.00    +0.000 A 
ATOM     24  N   UNL     1      48.432  11.333  16.787  0.00  0.00    +0.000 N 
ATOM     25  C   UNL     1      48.084  10.990  18.068  0.00  0.00    +0.000 A 
ATOM     26  C   UNL     1      47.944  11.752  19.229  0.00  0.00    +0.000 A 
ATOM     27  C   UNL     1      47.418  11.099  20.346  0.00  0.00    +0.000 A 
ATOM     28  C   UNL     1      46.937   9.793  20.252  0.00  0.00    +0.000 A 
ATOM     29  C   UNL     1      47.121   9.042  19.086  0.00  0.00    +0.000 A 
ATOM     30  C   UNL     1      47.826   9.622  18.015  0.00  0.00    +0.000 A 
ATOM     31  H   UNL     1      48.329  12.251  16.378  0.00  0.00    +0.000 HD
ENDBRANCH  19  22
ENDBRANCH  17  20
ENDBRANCH   1  17
TORSDOF 7
ENDMDL
MODEL 7
REMARK VINA RESULT:    -6.811      1.800      2.915
REMARK INTER + INTRA:         -10.598
REMARK INTER:                  -9.839
REMARK INTRA:                  -0.759
REMARK UNBOUND:                -1.000
REMARK  Name = 
REMARK  7 active torsions:
REMARK  status: ('A' for Active; 'I' for Inactive)
REMARK    1  A    between atoms: C_2  and  C_20
REMARK    2  A    between atoms: N_3  and  C_4
REMARK    3  A    between atoms: C_4  and  C_5
REMARK    4  A    between atoms: C_8  and  N_9
REMARK    5  A    between atoms: N_9  and  C_10
REMARK    6  A    between atoms: C_10  and  C_11
REMARK    7  A    between atoms: C_11  and  C_12
REMARK                            x       y       z     vdW  Elec       q    Type
REMARK                         _______ _______ _______ _____ _____    ______ ____
ROOT
ATOM      1  C   UNL     1      44.700   4.403  11.406  0.00  0.00    +0.000 A 
ATOM      2  C   UNL     1      45.236   5.371  10.550  0.00  0.00    +0.000 A 
ATOM      3  C   UNL     1      45.492   5.063   9.212  0.00  0.00    +0.000 A 
ATOM      4  C   UNL     1      45.246   3.778   8.713  0.00  0.00    +0.000 A 
ATOM      5  C   UNL     1      44.606   2.854   9.542  0.00  0.00    +0.000 A 
ATOM      6  C   UNL     1      44.344   3.156  10.880  0.00  0.00    +0.000 A 
ENDROOT
BRANCH   4   7
ATOM      7  N   UNL     1      45.533   3.386   7.395  0.00  0.00    +0.000 N 
ATOM      8  H   UNL     1      45.547   4.213   6.799  0.00  0.00    +0.000 HD
BRANCH   7   9
ATOM      9  C   UNL     1      46.728   2.559   7.189  0.00  0.00    +0.000 C 
BRANCH   9  10
ATOM     10  C   UNL     1      47.294   2.727   5.771  0.00  0.00    +0.000 C 
BRANCH  10  11
ATOM     11  C   UNL     1      46.967   1.561   4.889  0.00  0.00    +0.000 A 
ATOM     12  C   UNL     1      46.319   1.740   3.660  0.00  0.00    +0.000 A 
ATOM     13  C   UNL     1      46.025   0.631   2.880  0.00  0.00    +0.000 A 
ATOM     14  C   UNL     1      46.399  -0.622   3.334  0.00  0.00    +0.000 A 
ATOM     15  N   UNL     1      47.012  -0.836   4.519  0.00  0.00    +0.000 NA
ATOM     16  C   UNL     1      47.271   0.258   5.269  0.00  0.00    +0.000 A 
ENDBRANCH  10  11
ENDBRANCH   9  10
ENDBRANCH   7   9
ENDBRANCH   4   7
BRANCH   1  17
ATOM     17  C   UNL     1      44.443   4.707  12.854  0.00  0.00    +0.000 C 
BRANCH  17  20
ATOM     18  O   UNL     1      46.681   3.737  14.210  0.00  0.00    +0.000 OA
ATOM     19  C   UNL     1      46.601   4.938  13.989  0.00  0.00    +0.000 C 
ATOM     20  N   UNL     1      45.509   5.509  13.387  0.00  0.00    +0.000 N 
ATOM     21  H   UNL     1      45.426   6.513  13.341  0.00  0.00    +0.000 HD
BRANCH  19  22
ATOM     22  C   UNL     1      47.661   5.885  14.322  0.00  0.00    +0.000 A 
ATOM     23  C   UNL     1      48.227   6.823  13.469  0.00  0.00    +0.000 A 
ATOM     24  N   UNL     1      49.101   7.557  14.220  0.00  0.00    +0.000 N 
ATOM     25  C   UNL     1      49.503   6.790  15.282  0.00  0.00    +0.000 A 
ATOM     26  C   UNL     1      50.670   6.802  16.048  0.00  0.00    +0.000 A 
ATOM     27  C   UNL     1      50.690   5.972  17.171  0.00  0.00    +0.000 A 
ATOM     28  C   UNL     1      49.547   5.278  17.569  0.00  0.00    +0.000 A 
ATOM     29  C   UNL     1      48.402   5.258  16.764  0.00  0.00    +0.000 A 
ATOM     30  C   UNL     1      48.435   5.932  15.530  0.00  0.00    +0.000 A 
ATOM     31  H   UNL     1      49.435   8.488  14.008  0.00  0.00    +0.000 HD
ENDBRANCH  19  22
ENDBRANCH  17  20
ENDBRANCH   1  17
TORSDOF 7
ENDMDL
MODEL 8
REMARK VINA RESULT:    -6.700      2.077      3.425
REMARK INTER + INTRA:         -10.441
REMARK INTER:                  -9.382
REMARK INTRA:                  -1.060
REMARK UNBOUND:                -1.000
REMARK  Name = 
REMARK  7 active torsions:
REMARK  status: ('A' for Active; 'I' for Inactive)
REMARK    1  A    between atoms: C_2  and  C_20
REMARK    2  A    between atoms: N_3  and  C_4
REMARK    3  A    between atoms: C_4  and  C_5
REMARK    4  A    between atoms: C_8  and  N_9
REMARK    5  A    between atoms: N_9  and  C_10
REMARK    6  A    between atoms: C_10  and  C_11
REMARK    7  A    between atoms: C_11  and  C_12
REMARK                            x       y       z     vdW  Elec       q    Type
REMARK                         _______ _______ _______ _____ _____    ______ ____
ROOT
ATOM      1  C   UNL     1      48.462   8.088  13.087  0.00  0.00    +0.000 A 
ATOM      2  C   UNL     1      47.289   8.719  13.517  0.00  0.00    +0.000 A 
ATOM      3  C   UNL     1      46.045   8.266  13.075  0.00  0.00    +0.000 A 
ATOM      4  C   UNL     1      45.949   7.198  12.176  0.00  0.00    +0.000 A 
ATOM      5  C   UNL     1      47.114   6.503  11.843  0.00  0.00    +0.000 A 
ATOM      6  C   UNL     1      48.362   6.948  12.283  0.00  0.00    +0.000 A 
ENDROOT
BRANCH   4   7
ATOM      7  N   UNL     1      44.734   6.729  11.649  0.00  0.00    +0.000 N 
ATOM      8  H   UNL     1      44.656   7.029  10.678  0.00  0.00    +0.000 HD
BRANCH   7   9
ATOM      9  C   UNL     1      44.454   5.295  11.790  0.00  0.00    +0.000 C 
BRANCH   9  10
ATOM     10  C   UNL     1      43.665   4.753  10.589  0.00  0.00    +0.000 C 
BRANCH  10  11
ATOM     11  C   UNL     1      44.536   3.991   9.636  0.00  0.00    +0.000 A 
ATOM     12  C   UNL     1      44.595   2.592   9.667  0.00  0.00    +0.000 A 
ATOM     13  C   UNL     1      45.424   1.928   8.774  0.00  0.00    +0.000 A 
ATOM     14  C   UNL     1      46.156   2.672   7.864  0.00  0.00    +0.000 A 
ATOM     15  N   UNL     1      46.136   4.022   7.813  0.00  0.00    +0.000 NA
ATOM     16  C   UNL     1      45.336   4.646   8.705  0.00  0.00    +0.000 A 
ENDBRANCH  10  11
ENDBRANCH   9  10
ENDBRANCH   7   9
ENDBRANCH   4   7
BRANCH   1  17
ATOM     17  C   UNL     1      49.812   8.578  13.530  0.00  0.00    +0.000 C 
BRANCH  17  20
ATOM     18  O   UNL     1      49.560   8.536  16.309  0.00  0.00    +0.000 OA
ATOM     19  C   UNL     1      50.194   7.644  15.761  0.00  0.00    +0.000 C 
ATOM     20  N   UNL     1      50.422   7.620  14.408  0.00  0.00    +0.000 N 
ATOM     21  H   UNL     1      51.056   6.941  14.016  0.00  0.00    +0.000 HD
BRANCH  19  22
ATOM     22  C   UNL     1      50.756   6.504  16.480  0.00  0.00    +0.000 A 
ATOM     23  C   UNL     1      52.105   6.206  16.626  0.00  0.00    +0.000 A 
ATOM     24  N   UNL     1      52.177   5.119  17.450  0.00  0.00    +0.000 N 
ATOM     25  C   UNL     1      50.997   4.428  17.354  0.00  0.00    +0.000 A 
ATOM     26  C   UNL     1      50.690   3.080  17.549  0.00  0.00    +0.000 A 
ATOM     27  C   UNL     1      49.337   2.736  17.518  0.00  0.00    +0.000 A 
ATOM     28  C   UNL     1      48.349   3.717  17.431  0.00  0.00    +0.000 A 
ATOM     29  C   UNL     1      48.686   5.056  17.203  0.00  0.00    +0.000 A 
ATOM     30  C   UNL     1      50.043   5.391  17.036  0.00  0.00    +0.000 A 
ATOM     31  H   UNL     1      52.977   4.839  18.003  0.00  0.00    +0.000 HD
ENDBRANCH  19  22
ENDBRANCH  17  20
ENDBRANCH   1  17
TORSDOF 7
ENDMDL
MODEL 9
REMARK VINA RESULT:    -6.698      2.324     10.053
REMARK INTER + INTRA:         -10.438
REMARK INTER:                  -9.728
REMARK INTRA:                  -0.711
REMARK UNBOUND:                -1.000
REMARK  Name = 
REMARK  7 active torsions:
REMARK  status: ('A' for Active; 'I' for Inactive)
REMARK    1  A    between atoms: C_2  and  C_20
REMARK    2  A    between atoms: N_3  and  C_4
REMARK    3  A    between atoms: C_4  and  C_5
REMARK    4  A    between atoms: C_8  and  N_9
REMARK    5  A    between atoms: N_9  and  C_10
REMARK    6  A    between atoms: C_10  and  C_11
REMARK    7  A    between atoms: C_11  and  C_12
REMARK                            x       y       z     vdW  Elec       q    Type
REMARK                         _______ _______ _______ _____ _____    ______ ____
ROOT
ATOM      1  C   UNL     1      46.648   6.946  12.727  0.00  0.00    +0.000 A 
ATOM      2  C   UNL     1      47.339   8.139  12.965  0.00  0.00    +0.000 A 
ATOM      3  C   UNL     1      48.303   8.204  13.973  0.00  0.00    +0.000 A 
ATOM      4  C   UNL     1      48.572   7.093  14.780  0.00  0.00    +0.000 A 
ATOM      5  C   UNL     1      47.962   5.878  14.462  0.00  0.00    +0.000 A 
ATOM      6  C   UNL     1      47.000   5.803  13.454  0.00  0.00    +0.000 A 
ENDROOT
BRANCH   4   7
ATOM      7  N   UNL     1      49.487   7.107  15.845  0.00  0.00    +0.000 N 
ATOM      8  H   UNL     1      49.726   8.074  16.065  0.00  0.00    +0.000 HD
BRANCH   7   9
ATOM      9  C   UNL     1      49.117   6.361  17.054  0.00  0.00    +0.000 C 
BRANCH   9  10
ATOM     10  C   UNL     1      49.467   7.141  18.330  0.00  0.00    +0.000 C 
BRANCH  10  11
ATOM     11  C   UNL     1      48.900   6.499  19.560  0.00  0.00    +0.000 A 
ATOM     12  C   UNL     1      49.371   5.261  20.015  0.00  0.00    +0.000 A 
ATOM     13  C   UNL     1      48.810   4.698  21.152  0.00  0.00    +0.000 A 
ATOM     14  C   UNL     1      47.809   5.389  21.814  0.00  0.00    +0.000 A 
ATOM     15  N   UNL     1      47.319   6.577  21.398  0.00  0.00    +0.000 NA
ATOM     16  C   UNL     1      47.869   7.097  20.278  0.00  0.00    +0.000 A 
ENDBRANCH  10  11
ENDBRANCH   9  10
ENDBRANCH   7   9
ENDBRANCH   4   7
BRANCH   1  17
ATOM     17  C   UNL     1      45.588   6.864  11.665  0.00  0.00    +0.000 C 
BRANCH  17  20
ATOM     18  O   UNL     1      43.270   5.625  10.727  0.00  0.00    +0.000 OA
ATOM     19  C   UNL     1      44.332   5.020  10.655  0.00  0.00    +0.000 C 
ATOM     20  N   UNL     1      45.507   5.526  11.149  0.00  0.00    +0.000 N 
ATOM     21  H   UNL     1      46.330   4.944  11.186  0.00  0.00    +0.000 HD
BRANCH  19  22
ATOM     22  C   UNL     1      44.466   3.712  10.021  0.00  0.00    +0.000 A 
ATOM     23  C   UNL     1      44.000   2.503  10.520  0.00  0.00    +0.000 A 
ATOM     24  N   UNL     1      44.251   1.562   9.562  0.00  0.00    +0.000 N 
ATOM     25  C   UNL     1      45.302   1.998   8.798  0.00  0.00    +0.000 A 
ATOM     26  C   UNL     1      46.260   1.307   8.054  0.00  0.00    +0.000 A 
ATOM     27  C   UNL     1      47.110   2.079   7.258  0.00  0.00    +0.000 A 
ATOM     28  C   UNL     1      46.910   3.452   7.118  0.00  0.00    +0.000 A 
ATOM     29  C   UNL     1      45.964   4.123   7.901  0.00  0.00    +0.000 A 
ATOM     30  C   UNL     1      45.233   3.388   8.853  0.00  0.00    +0.000 A 
ATOM     31  H   UNL     1      43.779   0.674   9.458  0.00  0.00    +0.000 HD
ENDBRANCH  19  22
ENDBRANCH  17  20
ENDBRANCH   1  17
TORSDOF 7
ENDMDL
