MODEL 1
REMARK VINA RESULT:    -7.454      0.000      0.000
REMARK INTER + INTRA:          -9.142
REMARK INTER:                  -8.762
REMARK INTRA:                  -0.381
REMARK UNBOUND:                -0.381
REMARK  Name = 
REMARK  3 active torsions:
REMARK  status: ('A' for Active; 'I' for Inactive)
REMARK    1  A    between atoms: C_3  and  C_4
REMARK    2  A    between atoms: C_4  and  N_5
REMARK    3  A    between atoms: C_13  and  N_14
REMARK                            x       y       z     vdW  Elec       q    Type
REMARK                         _______ _______ _______ _____ _____    ______ ____
ROOT
ATOM      1  C   UNL     1      42.932   5.153  12.128  0.00  0.00    +0.000 A 
ATOM      2  C   UNL     1      43.152   4.295  11.052  0.00  0.00    +0.000 A 
ATOM      3  C   UNL     1      44.400   3.690  10.883  0.00  0.00    +0.000 A 
ATOM      4  C   UNL     1      45.424   3.986  11.799  0.00  0.00    +0.000 A 
ATOM      5  C   UNL     1      45.233   4.860  12.881  0.00  0.00    +0.000 A 
ATOM      6  C   UNL     1      43.964   5.432  13.032  0.00  0.00    +0.000 A 
ENDROOT
BRANCH   5   7
ATOM      7  N   UNL     1      46.311   5.157  13.705  0.00  0.00    +0.000 N 
ATOM      8  C   UNL     1      46.837   4.141  14.625  0.00  0.00    +0.000 C 
ATOM      9  C   UNL     1      47.606   4.849  15.768  0.00  0.00    +0.000 C 
ATOM     10  N   UNL     1      48.690   5.740  15.293  0.00  0.00    +0.000 NA
ATOM     11  C   UNL     1      48.126   6.706  14.324  0.00  0.00    +0.000 C 
ATOM     12  C   UNL     1      47.349   6.051  13.158  0.00  0.00    +0.000 C 
ATOM     13  H   UNL     1      49.372   5.166  14.800  0.00  0.00    +0.000 HD
ENDBRANCH   5   7
BRANCH   3  14
ATOM     14  C   UNL     1      44.659   2.741   9.738  0.00  0.00    +0.000 C 
BRANCH  14  15
ATOM     15  N   UNL     1      45.116   3.476   8.563  0.00  0.00    +0.000 N 
ATOM     16  C   UNL     1      46.031   2.754   7.773  0.00  0.00    +0.000 A 
ATOM     17  C   UNL     1      46.536   3.350   6.633  0.00  0.00    +0.000 A 
ATOM     18  C   UNL     1      47.402   2.601   5.871  0.00  0.00    +0.000 A 
ATOM     19  N   UNL     1      47.771   1.349   6.183  0.00  0.00    +0.000 NA
ATOM     20  C   UNL     1      47.220   0.855   7.297  0.00  0.00    +0.000 A 
ATOM     21  N   UNL     1      46.363   1.495   8.105  0.00  0.00    +0.000 NA
ATOM     22  H   UNL     1      45.510   4.378   8.814  0.00  0.00    +0.000 HD
ENDBRANCH  14  15
ENDBRANCH   3  14
TORSDOF 3
ENDMDL
MODEL 2
REMARK VINA RESULT:    -7.336      1.761      2.164
REMARK INTER + INTRA:          -9.004
REMARK INTER:                  -8.517
REMARK INTRA:                  -0.487
REMARK UNBOUND:                -0.381
REMARK  Name = 
REMARK  3 active torsions:
REMARK  status: ('A' for Active; 'I' for Inactive)
REMARK    1  A    between atoms: C_3  and  C_4
REMARK    2  A    between atoms: C_4  and  N_5
REMARK    3  A    between atoms: C_13  and  N_14
REMARK                            x       y       z     vdW  Elec       q    Type
REMARK                         _______ _______ _______ _____ _____    ______ ____
ROOT
ATOM      1  C   UNL     1      43.111   4.576  12.762  0.00  0.00    +0.000 A 
ATOM      2  C   UNL     1      43.224   3.707  11.678  0.00  0.00    +0.000 A 
ATOM      3  C   UNL     1      44.270   3.863  10.764  0.00  0.00    +0.000 A 
ATOM      4  C   UNL     1      45.177   4.920  10.947  0.00  0.00    +0.000 A 
ATOM      5  C   UNL     1      45.075   5.818  12.021  0.00  0.00    +0.000 A 
ATOM      6  C   UNL     1      44.027   5.620  12.929  0.00  0.00    +0.000 A 
ENDROOT
BRANCH   5   7
ATOM      7  N   UNL     1      45.967   6.879  12.099  0.00  0.00    +0.000 N 
ATOM      8  C   UNL     1      45.564   8.135  12.744  0.00  0.00    +0.000 C 
ATOM      9  C   UNL     1      46.469   9.279  12.223  0.00  0.00    +0.000 C 
ATOM     10  N   UNL     1      47.916   9.030  12.419  0.00  0.00    +0.000 NA
ATOM     11  C   UNL     1      48.264   7.727  11.808  0.00  0.00    +0.000 C 
ATOM     12  C   UNL     1      47.391   6.547  12.296  0.00  0.00    +0.000 C 
ATOM     13  H   UNL     1      48.087   8.961  13.421  0.00  0.00    +0.000 HD
ENDBRANCH   5   7
BRANCH   3  14
ATOM     14  C   UNL     1      44.429   2.924   9.592  0.00  0.00    +0.000 C 
BRANCH  14  15
ATOM     15  N   UNL     1      45.053   3.615   8.468  0.00  0.00    +0.000 N 
ATOM     16  C   UNL     1      46.007   2.830   7.791  0.00  0.00    +0.000 A 
ATOM     17  C   UNL     1      46.667   3.381   6.708  0.00  0.00    +0.000 A 
ATOM     18  C   UNL     1      47.568   2.574   6.053  0.00  0.00    +0.000 A 
ATOM     19  N   UNL     1      47.827   1.307   6.414  0.00  0.00    +0.000 NA
ATOM     20  C   UNL     1      47.130   0.861   7.465  0.00  0.00    +0.000 A 
ATOM     21  N   UNL     1      46.227   1.560   8.167  0.00  0.00    +0.000 NA
ATOM     22  H   UNL     1      45.468   4.497   8.754  0.00  0.00    +0.000 HD
ENDBRANCH  14  15
ENDBRANCH   3  14
TORSDOF 3
ENDMDL
MODEL 3
REMARK VINA RESULT:    -7.065      2.262      3.116
REMARK INTER + INTRA:          -8.685
REMARK INTER:                  -8.216
REMARK INTRA:                  -0.470
REMARK UNBOUND:                -0.381
REMARK  Name = 
REMARK  3 active torsions:
REMARK  status: ('A' for Active; 'I' for Inactive)
REMARK    1  A    between atoms: C_3  and  C_4
REMARK    2  A    between atoms: C_4  and  N_5
REMARK    3  A    between atoms: C_13  and  N_14
REMARK                            x       y       z     vdW  Elec       q    Type
REMARK                         _______ _______ _______ _____ _____    ______ ____
ROOT
ATOM      1  C   UNL     1      46.153   3.891  13.343  0.00  0.00    +0.000 A 
ATOM      2  C   UNL     1      45.457   3.299  12.291  0.00  0.00    +0.000 A 
ATOM      3  C   UNL     1      44.991   4.083  11.232  0.00  0.00    +0.000 A 
ATOM      4  C   UNL     1      45.214   5.469  11.268  0.00  0.00    +0.000 A 
ATOM      5  C   UNL     1      45.897   6.091  12.324  0.00  0.00    +0.000 A 
ATOM      6  C   UNL     1      46.368   5.273  13.358  0.00  0.00    +0.000 A 
ENDROOT
BRANCH   5   7
ATOM      7  N   UNL     1      46.020   7.475  12.325  0.00  0.00    +0.000 N 
ATOM      8  C   UNL     1      47.346   8.097  12.221  0.00  0.00    +0.000 C 
ATOM      9  C   UNL     1      47.272   9.534  12.791  0.00  0.00    +0.000 C 
ATOM     10  N   UNL     1      46.244  10.380  12.140  0.00  0.00    +0.000 NA
ATOM     11  C   UNL     1      44.938   9.687  12.215  0.00  0.00    +0.000 C 
ATOM     12  C   UNL     1      44.955   8.245  11.656  0.00  0.00    +0.000 C 
ATOM     13  H   UNL     1      46.493  10.473  11.157  0.00  0.00    +0.000 HD
ENDBRANCH   5   7
BRANCH   3  14
ATOM     14  C   UNL     1      44.252   3.464  10.069  0.00  0.00    +0.000 C 
BRANCH  14  15
ATOM     15  N   UNL     1      44.876   2.202   9.685  0.00  0.00    +0.000 N 
ATOM     16  C   UNL     1      45.687   2.307   8.538  0.00  0.00    +0.000 A 
ATOM     17  C   UNL     1      46.329   1.173   8.077  0.00  0.00    +0.000 A 
ATOM     18  C   UNL     1      47.138   1.321   6.974  0.00  0.00    +0.000 A 
ATOM     19  N   UNL     1      47.323   2.491   6.342  0.00  0.00    +0.000 NA
ATOM     20  C   UNL     1      46.670   3.532   6.871  0.00  0.00    +0.000 A 
ATOM     21  N   UNL     1      45.865   3.498   7.943  0.00  0.00    +0.000 NA
ATOM     22  H   UNL     1      44.187   1.467   9.556  0.00  0.00    +0.000 HD
ENDBRANCH  14  15
ENDBRANCH   3  14
TORSDOF 3
ENDMDL
MODEL 4
REMARK VINA RESULT:    -6.656      1.438      6.391
REMARK INTER + INTRA:          -8.204
REMARK INTER:                  -7.780
REMARK INTRA:                  -0.424
REMARK UNBOUND:                -0.381
REMARK  Name = 
REMARK  3 active torsions:
REMARK  status: ('A' for Active; 'I' for Inactive)
REMARK    1  A    between atoms: C_3  and  C_4
REMARK    2  A    between atoms: C_4  and  N_5
REMARK    3  A    between atoms: C_13  and  N_14
REMARK                            x       y       z     vdW  Elec       q    Type
REMARK                         _______ _______ _______ _____ _____    ______ ____
ROOT
ATOM      1  C   UNL     1      43.312   2.855  11.625  0.00  0.00    +0.000 A 
ATOM      2  C   UNL     1      43.483   4.174  12.040  0.00  0.00    +0.000 A 
ATOM      3  C   UNL     1      44.308   5.035  11.310  0.00  0.00    +0.000 A 
ATOM      4  C   UNL     1      44.974   4.536  10.179  0.00  0.00    +0.000 A 
ATOM      5  C   UNL     1      44.831   3.207   9.750  0.00  0.00    +0.000 A 
ATOM      6  C   UNL     1      43.982   2.378  10.492  0.00  0.00    +0.000 A 
ENDROOT
BRANCH   5   7
ATOM      7  N   UNL     1      45.574   2.767   8.662  0.00  0.00    +0.000 N 
ATOM      8  C   UNL     1      45.720   1.329   8.403  0.00  0.00    +0.000 C 
ATOM      9  C   UNL     1      46.983   1.101   7.538  0.00  0.00    +0.000 C 
ATOM     10  N   UNL     1      46.982   1.865   6.269  0.00  0.00    +0.000 NA
ATOM     11  C   UNL     1      46.771   3.298   6.574  0.00  0.00    +0.000 C 
ATOM     12  C   UNL     1      45.518   3.584   7.436  0.00  0.00    +0.000 C 
ATOM     13  H   UNL     1      46.191   1.545   5.713  0.00  0.00    +0.000 HD
ENDBRANCH   5   7
BRANCH   3  14
ATOM     14  C   UNL     1      44.495   6.475  11.726  0.00  0.00    +0.000 C 
BRANCH  14  15
ATOM     15  N   UNL     1      45.764   6.988  11.220  0.00  0.00    +0.000 N 
ATOM     16  C   UNL     1      46.826   6.848  12.134  0.00  0.00    +0.000 A 
ATOM     17  C   UNL     1      48.079   7.302  11.766  0.00  0.00    +0.000 A 
ATOM     18  C   UNL     1      49.098   7.118  12.672  0.00  0.00    +0.000 A 
ATOM     19  N   UNL     1      48.929   6.534  13.869  0.00  0.00    +0.000 NA
ATOM     20  C   UNL     1      47.685   6.117  14.127  0.00  0.00    +0.000 A 
ATOM     21  N   UNL     1      46.626   6.240  13.315  0.00  0.00    +0.000 NA
ATOM     22  H   UNL     1      45.686   7.957  10.925  0.00  0.00    +0.000 HD
ENDBRANCH  14  15
ENDBRANCH   3  14
TORSDOF 3
ENDMDL
MODEL 5
REMARK VINA RESULT:    -6.248      2.927      7.610
REMARK INTER + INTRA:          -7.725
REMARK INTER:                  -7.196
REMARK INTRA:                  -0.529
REMARK UNBOUND:                -0.381
REMARK  Name = 
REMARK  3 active torsions:
REMARK  status: ('A' for Active; 'I' for Inactive)
REMARK    1  A    between atoms: C_3  and  C_4
REMARK    2  A    between atoms: C_4  and  N_5
REMARK    3  A    between atoms: C_13  and  N_14
REMARK                            x       y       z     vdW  Elec       q    Type
REMARK                         _______ _______ _______ _____ _____    ______ ____
ROOT
ATOM      1  C   UNL     1      45.833   8.446  12.801  0.00  0.00    +0.000 A 
ATOM      2  C   UNL     1      46.980   8.282  13.575  0.00  0.00    +0.000 A 
ATOM      3  C   UNL     1      47.487   7.001  13.811  0.00  0.00    +0.000 A 
ATOM      4  C   UNL     1      46.804   5.895  13.278  0.00  0.00    +0.000 A 
ATOM      5  C   UNL     1      45.638   6.033  12.509  0.00  0.00    +0.000 A 
ATOM      6  C   UNL     1      45.170   7.331  12.275  0.00  0.00    +0.000 A 
ENDROOT
BRANCH   5   7
ATOM      7  N   UNL     1      44.980   4.890  12.073  0.00  0.00    +0.000 N 
ATOM      8  C   UNL     1      43.776   4.421  12.771  0.00  0.00    +0.000 C 
ATOM      9  C   UNL     1      43.580   2.914  12.475  0.00  0.00    +0.000 C 
ATOM     10  N   UNL     1      43.506   2.596  11.030  0.00  0.00    +0.000 NA
ATOM     11  C   UNL     1      44.708   3.140  10.358  0.00  0.00    +0.000 C 
ATOM     12  C   UNL     1      44.950   4.646  10.619  0.00  0.00    +0.000 C 
ATOM     13  H   UNL     1      42.692   3.073  10.647  0.00  0.00    +0.000 HD
ENDBRANCH   5   7
BRANCH   3  14
ATOM     14  C   UNL     1      48.739   6.796  14.630  0.00  0.00    +0.000 C 
BRANCH  14  15
ATOM     15  N   UNL     1      48.474   7.065  16.039  0.00  0.00    +0.000 N 
ATOM     16  C   UNL     1      48.458   5.904  16.836  0.00  0.00    +0.000 A 
ATOM     17  C   UNL     1      48.214   6.034  18.190  0.00  0.00    +0.000 A 
ATOM     18  C   UNL     1      48.238   4.881  18.941  0.00  0.00    +0.000 A 
ATOM     19  N   UNL     1      48.480   3.666  18.424  0.00  0.00    +0.000 NA
ATOM     20  C   UNL     1      48.717   3.645  17.108  0.00  0.00    +0.000 A 
ATOM     21  N   UNL     1      48.724   4.706  16.289  0.00  0.00    +0.000 NA
ATOM     22  H   UNL     1      47.610   7.585  16.166  0.00  0.00    +0.000 HD
ENDBRANCH  14  15
ENDBRANCH   3  14
TORSDOF 3
ENDMDL
MODEL 6
REMARK VINA RESULT:    -6.136      3.565      7.976
REMARK INTER + INTRA:          -7.593
REMARK INTER:                  -7.144
REMARK INTRA:                  -0.449
REMARK UNBOUND:                -0.381
REMARK  Name = 
REMARK  3 active torsions:
REMARK  status: ('A' for Active; 'I' for Inactive)
REMARK    1  A    between atoms: C_3  and  C_4
REMARK    2  A    between atoms: C_4  and  N_5
REMARK    3  A    between atoms: C_13  and  N_14
REMARK                            x       y       z     vdW  Elec       q    Type
REMARK                         _______ _______ _______ _____ _____    ______ ____
ROOT
ATOM      1  C   UNL     1      48.173   6.671  13.914  0.00  0.00    +0.000 A 
ATOM      2  C   UNL     1      48.481   6.079  15.137  0.00  0.00    +0.000 A 
ATOM      3  C   UNL     1      47.709   5.015  15.614  0.00  0.00    +0.000 A 
ATOM      4  C   UNL     1      46.612   4.581  14.851  0.00  0.00    +0.000 A 
ATOM      5  C   UNL     1      46.271   5.172  13.624  0.00  0.00    +0.000 A 
ATOM      6  C   UNL     1      47.078   6.221  13.167  0.00  0.00    +0.000 A 
ENDROOT
BRANCH   5   7
ATOM      7  N   UNL     1      45.133   4.735  12.959  0.00  0.00    +0.000 N 
ATOM      8  C   UNL     1      44.207   5.708  12.366  0.00  0.00    +0.000 C 
ATOM      9  C   UNL     1      42.818   5.043  12.202  0.00  0.00    +0.000 C 
ATOM     10  N   UNL     1      42.846   3.793  11.408  0.00  0.00    +0.000 NA
ATOM     11  C   UNL     1      43.835   2.868  12.006  0.00  0.00    +0.000 C 
ATOM     12  C   UNL     1      45.244   3.482  12.189  0.00  0.00    +0.000 C 
ATOM     13  H   UNL     1      43.165   4.027  10.469  0.00  0.00    +0.000 HD
ENDBRANCH   5   7
BRANCH   3  14
ATOM     14  C   UNL     1      48.033   4.342  16.926  0.00  0.00    +0.000 C 
BRANCH  14  15
ATOM     15  N   UNL     1      49.308   4.827  17.444  0.00  0.00    +0.000 N 
ATOM     16  C   UNL     1      50.281   3.816  17.569  0.00  0.00    +0.000 A 
ATOM     17  C   UNL     1      51.530   4.157  18.054  0.00  0.00    +0.000 A 
ATOM     18  C   UNL     1      52.463   3.149  18.132  0.00  0.00    +0.000 A 
ATOM     19  N   UNL     1      52.216   1.881  17.769  0.00  0.00    +0.000 NA
ATOM     20  C   UNL     1      50.984   1.653  17.301  0.00  0.00    +0.000 A 
ATOM     21  N   UNL     1      50.005   2.561  17.178  0.00  0.00    +0.000 NA
ATOM     22  H   UNL     1      49.193   5.310  18.331  0.00  0.00    +0.000 HD
ENDBRANCH  14  15
ENDBRANCH   3  14
TORSDOF 3
ENDMDL
MODEL 7
REMARK VINA RESULT:    -6.099      4.926      8.049
REMARK INTER + INTRA:          -7.549
REMARK INTER:                  -7.152
REMARK INTRA:                  -0.397
REMARK UNBOUND:                -0.381
REMARK  Name = 
REMARK  3 active torsions:
REMARK  status: ('A' for Active; 'I' for Inactive)
REMARK    1  A    between atoms: C_3  and  C_4
REMARK    2  A    between atoms: C_4  and  N_5
REMARK    3  A    between atoms: C_13  and  N_14
REMARK                            x       y       z     vdW  Elec       q    Type
REMARK                         _______ _______ _______ _____ _____    ______ ____
ROOT
ATOM      1  C   UNL     1      46.537   8.088  12.826  0.00  0.00    +0.000 A 
ATOM      2  C   UNL     1      45.797   9.129  12.270  0.00  0.00    +0.000 A 
ATOM      3  C   UNL     1      44.626   8.852  11.558  0.00  0.00    +0.000 A 
ATOM      4  C   UNL     1      44.234   7.512  11.396  0.00  0.00    +0.000 A 
ATOM      5  C   UNL     1      44.972   6.445  11.932  0.00  0.00    +0.000 A 
ATOM      6  C   UNL     1      46.128   6.760  12.657  0.00  0.00    +0.000 A 
ENDROOT
BRANCH   5   7
ATOM      7  N   UNL     1      44.560   5.144  11.674  0.00  0.00    +0.000 N 
ATOM      8  C   UNL     1      43.451   4.557  12.435  0.00  0.00    +0.000 C 
ATOM      9  C   UNL     1      43.559   3.014  12.370  0.00  0.00    +0.000 C 
ATOM     10  N   UNL     1      43.588   2.478  10.989  0.00  0.00    +0.000 NA
ATOM     11  C   UNL     1      44.681   3.141  10.242  0.00  0.00    +0.000 C 
ATOM     12  C   UNL     1      44.620   4.687  10.273  0.00  0.00    +0.000 C 
ATOM     13  H   UNL     1      42.708   2.724  10.540  0.00  0.00    +0.000 HD
ENDBRANCH   5   7
BRANCH   3  14
ATOM     14  C   UNL     1      43.793   9.961  10.963  0.00  0.00    +0.000 C 
BRANCH  14  15
ATOM     15  N   UNL     1      43.043  10.651  12.008  0.00  0.00    +0.000 N 
ATOM     16  C   UNL     1      41.725  10.971  11.631  0.00  0.00    +0.000 A 
ATOM     17  C   UNL     1      40.918  11.629  12.540  0.00  0.00    +0.000 A 
ATOM     18  C   UNL     1      39.627  11.896  12.146  0.00  0.00    +0.000 A 
ATOM     19  N   UNL     1      39.133  11.556  10.946  0.00  0.00    +0.000 NA
ATOM     20  C   UNL     1      39.985  10.912  10.142  0.00  0.00    +0.000 A 
ATOM     21  N   UNL     1      41.257  10.597  10.428  0.00  0.00    +0.000 NA
ATOM     22  H   UNL     1      43.526  11.486  12.327  0.00  0.00    +0.000 HD
ENDBRANCH  14  15
ENDBRANCH   3  14
TORSDOF 3
ENDMDL
MODEL 8
REMARK VINA RESULT:    -6.080      2.859      4.565
REMARK INTER + INTRA:          -7.527
REMARK INTER:                  -6.983
REMARK INTRA:                  -0.544
REMARK UNBOUND:                -0.381
REMARK  Name = 
REMARK  3 active torsions:
REMARK  status: ('A' for Active; 'I' for Inactive)
REMARK    1  A    between atoms: C_3  and  C_4
REMARK    2  A    between atoms: C_4  and  N_5
REMARK    3  A    between atoms: C_13  and  N_14
REMARK                            x       y       z     vdW  Elec       q    Type
REMARK                         _______ _______ _______ _____ _____    ______ ____
ROOT
ATOM      1  C   UNL     1      49.186   7.766  12.486  0.00  0.00    +0.000 A 
ATOM      2  C   UNL     1      48.034   7.721  11.703  0.00  0.00    +0.000 A 
ATOM      3  C   UNL     1      46.884   7.092  12.187  0.00  0.00    +0.000 A 
ATOM      4  C   UNL     1      46.925   6.491  13.456  0.00  0.00    +0.000 A 
ATOM      5  C   UNL     1      48.078   6.508  14.257  0.00  0.00    +0.000 A 
ATOM      6  C   UNL     1      49.206   7.164  13.749  0.00  0.00    +0.000 A 
ENDROOT
BRANCH   5   7
ATOM      7  N   UNL     1      48.065   5.834  15.471  0.00  0.00    +0.000 N 
ATOM      8  C   UNL     1      47.515   4.475  15.553  0.00  0.00    +0.000 C 
ATOM      9  C   UNL     1      47.109   4.185  17.019  0.00  0.00    +0.000 C 
ATOM     10  N   UNL     1      48.215   4.363  17.989  0.00  0.00    +0.000 NA
ATOM     11  C   UNL     1      48.777   5.723  17.828  0.00  0.00    +0.000 C 
ATOM     12  C   UNL     1      49.203   6.064  16.380  0.00  0.00    +0.000 C 
ATOM     13  H   UNL     1      48.946   3.693  17.755  0.00  0.00    +0.000 HD
ENDBRANCH   5   7
BRANCH   3  14
ATOM     14  C   UNL     1      45.616   7.046  11.368  0.00  0.00    +0.000 C 
BRANCH  14  15
ATOM     15  N   UNL     1      45.690   5.977  10.378  0.00  0.00    +0.000 N 
ATOM     16  C   UNL     1      44.884   4.866  10.696  0.00  0.00    +0.000 A 
ATOM     17  C   UNL     1      44.874   3.787   9.831  0.00  0.00    +0.000 A 
ATOM     18  C   UNL     1      44.052   2.735  10.159  0.00  0.00    +0.000 A 
ATOM     19  N   UNL     1      43.280   2.711  11.258  0.00  0.00    +0.000 NA
ATOM     20  C   UNL     1      43.349   3.805  12.024  0.00  0.00    +0.000 A 
ATOM     21  N   UNL     1      44.110   4.885  11.794  0.00  0.00    +0.000 NA
ATOM     22  H   UNL     1      46.647   5.677  10.220  0.00  0.00    +0.000 HD
ENDBRANCH  14  15
ENDBRANCH   3  14
TORSDOF 3
ENDMDL
MODEL 9
REMARK VINA RESULT:    -5.785      2.124      4.112
REMARK INTER + INTRA:          -7.180
REMARK INTER:                  -6.748
REMARK INTRA:                  -0.432
REMARK UNBOUND:                -0.381
REMARK  Name = 
REMARK  3 active torsions:
REMARK  status: ('A' for Active; 'I' for Inactive)
REMARK    1  A    between atoms: C_3  and  C_4
REMARK    2  A    between atoms: C_4  and  N_5
REMARK    3  A    between atoms: C_13  and  N_14
REMARK                            x       y       z     vdW  Elec       q    Type
REMARK                         _______ _______ _______ _____ _____    ______ ____
ROOT
ATOM      1  C   UNL     1      48.526   7.520  13.469  0.00  0.00    +0.000 A 
ATOM      2  C   UNL     1      47.425   7.129  12.710  0.00  0.00    +0.000 A 
ATOM      3  C   UNL     1      46.614   6.076  13.144  0.00  0.00    +0.000 A 
ATOM      4  C   UNL     1      46.948   5.413  14.336  0.00  0.00    +0.000 A 
ATOM      5  C   UNL     1      48.061   5.777  15.110  0.00  0.00    +0.000 A 
ATOM      6  C   UNL     1      48.839   6.848  14.657  0.00  0.00    +0.000 A 
ENDROOT
BRANCH   5   7
ATOM      7  N   UNL     1      48.368   5.031  16.241  0.00  0.00    +0.000 N 
ATOM      8  C   UNL     1      49.344   5.536  17.214  0.00  0.00    +0.000 C 
ATOM      9  C   UNL     1      49.906   4.343  18.026  0.00  0.00    +0.000 C 
ATOM     10  N   UNL     1      48.862   3.539  18.701  0.00  0.00    +0.000 NA
ATOM     11  C   UNL     1      47.868   3.103  17.694  0.00  0.00    +0.000 C 
ATOM     12  C   UNL     1      47.272   4.258  16.854  0.00  0.00    +0.000 C 
ATOM     13  H   UNL     1      48.385   4.142  19.369  0.00  0.00    +0.000 HD
ENDBRANCH   5   7
BRANCH   3  14
ATOM     14  C   UNL     1      45.404   5.645  12.351  0.00  0.00    +0.000 C 
BRANCH  14  15
ATOM     15  N   UNL     1      45.656   5.789  10.921  0.00  0.00    +0.000 N 
ATOM     16  C   UNL     1      45.269   4.661  10.170  0.00  0.00    +0.000 A 
ATOM     17  C   UNL     1      45.463   4.681   8.801  0.00  0.00    +0.000 A 
ATOM     18  C   UNL     1      45.043   3.575   8.098  0.00  0.00    +0.000 A 
ATOM     19  N   UNL     1      44.472   2.505   8.673  0.00  0.00    +0.000 NA
ATOM     20  C   UNL     1      44.316   2.586   9.998  0.00  0.00    +0.000 A 
ATOM     21  N   UNL     1      44.682   3.616  10.775  0.00  0.00    +0.000 NA
ATOM     22  H   UNL     1      46.628   6.014  10.732  0.00  0.00    +0.000 HD
ENDBRANCH  14  15
ENDBRANCH   3  14
TORSDOF 3
ENDMDL
