MODEL 1
REMARK VINA RESULT:    -7.428      0.000      0.000
REMARK INTER + INTRA:         -11.388
REMARK INTER:                 -10.685
REMARK INTRA:                  -0.703
REMARK UNBOUND:                -0.703
REMARK  Name = 
REMARK  9 active torsions:
REMARK  status: ('A' for Active; 'I' for Inactive)
REMARK    1  A    between atoms: C_1  and  O_2
REMARK    2  A    between atoms: O_2  and  C_3
REMARK    3  A    between atoms: C_6  and  C_7
REMARK    4  A    between atoms: C_8  and  C_9
REMARK    5  A    between atoms: C_9  and  O_10
REMARK    6  A    between atoms: O_10  and  C_11
REMARK    7  A    between atoms: C_14  and  C_15
REMARK    8  A    between atoms: C_21  and  C_22
REMARK    9  A    between atoms: C_22  and  N_23
REMARK                            x       y       z     vdW  Elec       q    Type
REMARK                         _______ _______ _______ _____ _____    ______ ____
ROOT
ATOM      1  C   UNL     1      45.568   4.115  12.697  0.00  0.00    +0.000 C 
ATOM      2  C   UNL     1      44.556   4.753  12.087  0.00  0.00    +0.000 C 
ENDROOT
BRANCH   1   6
ATOM      3  C   UNL     1      48.288   5.965  15.453  0.00  0.00    +0.000 A 
ATOM      4  C   UNL     1      48.118   6.491  14.167  0.00  0.00    +0.000 A 
ATOM      5  C   UNL     1      47.240   5.895  13.260  0.00  0.00    +0.000 A 
ATOM      6  C   UNL     1      46.511   4.761  13.616  0.00  0.00    +0.000 A 
ATOM      7  C   UNL     1      46.711   4.208  14.887  0.00  0.00    +0.000 A 
ATOM      8  C   UNL     1      47.586   4.804  15.821  0.00  0.00    +0.000 A 
BRANCH   3  10
ATOM      9  C   UNL     1      49.555   7.843  16.148  0.00  0.00    +0.000 C 
ATOM     10  O   UNL     1      49.139   6.502  16.381  0.00  0.00    +0.000 OA
ENDBRANCH   3  10
BRANCH   8  11
ATOM     11  C   UNL     1      47.735   4.164  17.181  0.00  0.00    +0.000 C 
BRANCH  11  12
ATOM     12  N   UNL     1      46.653   3.217  17.453  0.00  0.00    +0.000 NA
ATOM     13  H   UNL     1      45.830   3.748  17.735  0.00  0.00    +0.000 HD
ATOM     14  H   UNL     1      46.911   2.648  18.256  0.00  0.00    +0.000 HD
ENDBRANCH  11  12
ENDBRANCH   8  11
ENDBRANCH   1   6
BRANCH   2  15
ATOM     15  C   UNL     1      43.546   4.062  11.227  0.00  0.00    +0.000 C 
BRANCH  15  16
ATOM     16  O   UNL     1      43.644   4.591   9.906  0.00  0.00    +0.000 OA
BRANCH  16  17
ATOM     17  C   UNL     1      44.591   3.920   9.161  0.00  0.00    +0.000 A 
ATOM     18  C   UNL     1      44.634   2.541   9.282  0.00  0.00    +0.000 A 
ATOM     19  C   UNL     1      45.600   1.847   8.553  0.00  0.00    +0.000 A 
ATOM     20  C   UNL     1      46.490   2.547   7.732  0.00  0.00    +0.000 A 
ATOM     21  C   UNL     1      46.354   3.926   7.676  0.00  0.00    +0.000 A 
ATOM     22  N   UNL     1      45.431   4.626   8.373  0.00  0.00    +0.000 NA
BRANCH  20  23
ATOM     23  C   UNL     1      47.525   1.806   6.974  0.00  0.00    +0.000 C 
ATOM     24  N   UNL     1      48.518   2.505   6.343  0.00  0.00    +0.000 N 
ATOM     25  O   UNL     1      47.503   0.583   6.911  0.00  0.00    +0.000 OA
ATOM     26  H   UNL     1      48.634   3.503   6.330  0.00  0.00    +0.000 HD
ATOM     27  H   UNL     1      49.204   1.952   5.844  0.00  0.00    +0.000 HD
ENDBRANCH  20  23
ENDBRANCH  16  17
ENDBRANCH  15  16
ENDBRANCH   2  15
TORSDOF 8
ENDMDL
MODEL 2
REMARK VINA RESULT:    -7.104      1.598      2.166
REMARK INTER + INTRA:         -10.923
REMARK INTER:                  -9.957
REMARK INTRA:                  -0.966
REMARK UNBOUND:                -0.703
REMARK  Name = 
REMARK  9 active torsions:
REMARK  status: ('A' for Active; 'I' for Inactive)
REMARK    1  A    between atoms: C_1  and  O_2
REMARK    2  A    between atoms: O_2  and  C_3
REMARK    3  A    between atoms: C_6  and  C_7
REMARK    4  A    between atoms: C_8  and  C_9
REMARK    5  A    between atoms: C_9  and  O_10
REMARK    6  A    between atoms: O_10  and  C_11
REMARK    7  A    between atoms: C_14  and  C_15
REMARK    8  A    between atoms: C_21  and  C_22
REMARK    9  A    between atoms: C_22  and  N_23
REMARK                            x       y       z     vdW  Elec       q    Type
REMARK                         _______ _______ _______ _____ _____    ______ ____
ROOT
ATOM      1  C   UNL     1      45.532   4.176  12.865  0.00  0.00    +0.000 C 
ATOM      2  C   UNL     1      44.756   4.825  11.982  0.00  0.00    +0.000 C 
ENDROOT
BRANCH   1   6
ATOM      3  C   UNL     1      48.499   6.126  15.276  0.00  0.00    +0.000 A 
ATOM      4  C   UNL     1      47.797   5.023  15.775  0.00  0.00    +0.000 A 
ATOM      5  C   UNL     1      46.826   4.384  15.003  0.00  0.00    +0.000 A 
ATOM      6  C   UNL     1      46.533   4.830  13.714  0.00  0.00    +0.000 A 
ATOM      7  C   UNL     1      47.205   5.959  13.229  0.00  0.00    +0.000 A 
ATOM      8  C   UNL     1      48.198   6.610  13.991  0.00  0.00    +0.000 A 
BRANCH   3  10
ATOM      9  C   UNL     1      50.288   5.999  16.825  0.00  0.00    +0.000 C 
ATOM     10  O   UNL     1      49.456   6.797  15.989  0.00  0.00    +0.000 OA
ENDBRANCH   3  10
BRANCH   8  11
ATOM     11  C   UNL     1      48.896   7.810  13.394  0.00  0.00    +0.000 C 
BRANCH  11  12
ATOM     12  N   UNL     1      50.327   7.564  13.206  0.00  0.00    +0.000 NA
ATOM     13  H   UNL     1      50.839   8.331  13.641  0.00  0.00    +0.000 HD
ATOM     14  H   UNL     1      50.538   7.610  12.212  0.00  0.00    +0.000 HD
ENDBRANCH  11  12
ENDBRANCH   8  11
ENDBRANCH   1   6
BRANCH   2  15
ATOM     15  C   UNL     1      43.674   4.160  11.192  0.00  0.00    +0.000 C 
BRANCH  15  16
ATOM     16  O   UNL     1      43.727   4.652   9.854  0.00  0.00    +0.000 OA
BRANCH  16  17
ATOM     17  C   UNL     1      44.652   3.964   9.097  0.00  0.00    +0.000 A 
ATOM     18  C   UNL     1      44.689   2.587   9.239  0.00  0.00    +0.000 A 
ATOM     19  C   UNL     1      45.633   1.875   8.498  0.00  0.00    +0.000 A 
ATOM     20  C   UNL     1      46.506   2.556   7.644  0.00  0.00    +0.000 A 
ATOM     21  C   UNL     1      46.378   3.934   7.569  0.00  0.00    +0.000 A 
ATOM     22  N   UNL     1      45.477   4.652   8.278  0.00  0.00    +0.000 NA
BRANCH  20  23
ATOM     23  C   UNL     1      47.518   1.796   6.873  0.00  0.00    +0.000 C 
ATOM     24  N   UNL     1      48.612   2.453   6.378  0.00  0.00    +0.000 N 
ATOM     25  O   UNL     1      47.387   0.593   6.678  0.00  0.00    +0.000 OA
ATOM     26  H   UNL     1      48.820   3.431   6.478  0.00  0.00    +0.000 HD
ATOM     27  H   UNL     1      49.276   1.888   5.864  0.00  0.00    +0.000 HD
ENDBRANCH  20  23
ENDBRANCH  16  17
ENDBRANCH  15  16
ENDBRANCH   2  15
TORSDOF 8
ENDMDL
MODEL 3
REMARK VINA RESULT:    -7.059      2.621      3.172
REMARK INTER + INTRA:         -10.857
REMARK INTER:                  -9.910
REMARK INTRA:                  -0.946
REMARK UNBOUND:                -0.703
REMARK  Name = 
REMARK  9 active torsions:
REMARK  status: ('A' for Active; 'I' for Inactive)
REMARK    1  A    between atoms: C_1  and  O_2
REMARK    2  A    between atoms: O_2  and  C_3
REMARK    3  A    between atoms: C_6  and  C_7
REMARK    4  A    between atoms: C_8  and  C_9
REMARK    5  A    between atoms: C_9  and  O_10
REMARK    6  A    between atoms: O_10  and  C_11
REMARK    7  A    between atoms: C_14  and  C_15
REMARK    8  A    between atoms: C_21  and  C_22
REMARK    9  A    between atoms: C_22  and  N_23
REMARK                            x       y       z     vdW  Elec       q    Type
REMARK                         _______ _______ _______ _____ _____    ______ ____
ROOT
ATOM      1  C   UNL     1      44.605   5.544  11.548  0.00  0.00    +0.000 C 
ATOM      2  C   UNL     1      44.848   4.256  11.842  0.00  0.00    +0.000 C 
ENDROOT
BRANCH   1   6
ATOM      3  C   UNL     1      47.187   8.741  12.784  0.00  0.00    +0.000 A 
ATOM      4  C   UNL     1      45.934   9.020  12.227  0.00  0.00    +0.000 A 
ATOM      5  C   UNL     1      45.088   7.989  11.817  0.00  0.00    +0.000 A 
ATOM      6  C   UNL     1      45.472   6.656  11.953  0.00  0.00    +0.000 A 
ATOM      7  C   UNL     1      46.742   6.375  12.471  0.00  0.00    +0.000 A 
ATOM      8  C   UNL     1      47.606   7.405  12.902  0.00  0.00    +0.000 A 
BRANCH   3  10
ATOM      9  C   UNL     1      48.525  10.606  12.192  0.00  0.00    +0.000 C 
ATOM     10  O   UNL     1      48.062   9.710  13.197  0.00  0.00    +0.000 OA
ENDBRANCH   3  10
BRANCH   8  11
ATOM     11  C   UNL     1      48.954   7.026  13.470  0.00  0.00    +0.000 C 
BRANCH  11  12
ATOM     12  N   UNL     1      50.026   7.223  12.493  0.00  0.00    +0.000 NA
ATOM     13  H   UNL     1      49.679   7.843  11.762  0.00  0.00    +0.000 HD
ATOM     14  H   UNL     1      50.223   6.334  12.040  0.00  0.00    +0.000 HD
ENDBRANCH  11  12
ENDBRANCH   8  11
ENDBRANCH   1   6
BRANCH   2  15
ATOM     15  C   UNL     1      44.006   3.125  11.343  0.00  0.00    +0.000 C 
BRANCH  15  16
ATOM     16  O   UNL     1      43.645   3.396   9.990  0.00  0.00    +0.000 OA
BRANCH  16  17
ATOM     17  C   UNL     1      44.636   3.008   9.114  0.00  0.00    +0.000 A 
ATOM     18  C   UNL     1      45.090   3.954   8.210  0.00  0.00    +0.000 A 
ATOM     19  C   UNL     1      46.077   3.573   7.300  0.00  0.00    +0.000 A 
ATOM     20  C   UNL     1      46.576   2.266   7.319  0.00  0.00    +0.000 A 
ATOM     21  C   UNL     1      46.058   1.401   8.271  0.00  0.00    +0.000 A 
ATOM     22  N   UNL     1      45.099   1.740   9.162  0.00  0.00    +0.000 NA
BRANCH  20  23
ATOM     23  C   UNL     1      47.611   1.864   6.339  0.00  0.00    +0.000 C 
ATOM     24  N   UNL     1      48.792   2.554   6.293  0.00  0.00    +0.000 N 
ATOM     25  O   UNL     1      47.423   0.924   5.576  0.00  0.00    +0.000 OA
ATOM     26  H   UNL     1      49.052   3.336   6.869  0.00  0.00    +0.000 HD
ATOM     27  H   UNL     1      49.468   2.236   5.610  0.00  0.00    +0.000 HD
ENDBRANCH  20  23
ENDBRANCH  16  17
ENDBRANCH  15  16
ENDBRANCH   2  15
TORSDOF 8
ENDMDL
MODEL 4
REMARK VINA RESULT:    -6.997      2.482      3.211
REMARK INTER + INTRA:         -10.768
REMARK INTER:                 -10.040
REMARK INTRA:                  -0.728
REMARK UNBOUND:                -0.703
REMARK  Name = 
REMARK  9 active torsions:
REMARK  status: ('A' for Active; 'I' for Inactive)
REMARK    1  A    between atoms: C_1  and  O_2
REMARK    2  A    between atoms: O_2  and  C_3
REMARK    3  A    between atoms: C_6  and  C_7
REMARK    4  A    between atoms: C_8  and  C_9
REMARK    5  A    between atoms: C_9  and  O_10
REMARK    6  A    between atoms: O_10  and  C_11
REMARK    7  A    between atoms: C_14  and  C_15
REMARK    8  A    between atoms: C_21  and  C_22
REMARK    9  A    between atoms: C_22  and  N_23
REMARK                            x       y       z     vdW  Elec       q    Type
REMARK                         _______ _______ _______ _____ _____    ______ ____
ROOT
ATOM      1  C   UNL     1      45.839   4.703  12.295  0.00  0.00    +0.000 C 
ATOM      2  C   UNL     1      44.580   4.619  11.835  0.00  0.00    +0.000 C 
ENDROOT
BRANCH   1   6
ATOM      3  C   UNL     1      47.605   8.371  13.655  0.00  0.00    +0.000 A 
ATOM      4  C   UNL     1      48.076   7.141  14.129  0.00  0.00    +0.000 A 
ATOM      5  C   UNL     1      47.507   5.942  13.698  0.00  0.00    +0.000 A 
ATOM      6  C   UNL     1      46.454   5.942  12.784  0.00  0.00    +0.000 A 
ATOM      7  C   UNL     1      45.953   7.172  12.340  0.00  0.00    +0.000 A 
ATOM      8  C   UNL     1      46.524   8.394  12.756  0.00  0.00    +0.000 A 
BRANCH   3  10
ATOM      9  C   UNL     1      49.437   9.873  13.597  0.00  0.00    +0.000 C 
ATOM     10  O   UNL     1      48.118   9.578  14.046  0.00  0.00    +0.000 OA
ENDBRANCH   3  10
BRANCH   8  11
ATOM     11  C   UNL     1      45.944   9.681  12.219  0.00  0.00    +0.000 C 
BRANCH  11  12
ATOM     12  N   UNL     1      44.550   9.857  12.629  0.00  0.00    +0.000 NA
ATOM     13  H   UNL     1      44.470   9.583  13.607  0.00  0.00    +0.000 HD
ATOM     14  H   UNL     1      43.971   9.206  12.103  0.00  0.00    +0.000 HD
ENDBRANCH  11  12
ENDBRANCH   8  11
ENDBRANCH   1   6
BRANCH   2  15
ATOM     15  C   UNL     1      43.937   3.332  11.428  0.00  0.00    +0.000 C 
BRANCH  15  16
ATOM     16  O   UNL     1      43.540   3.439  10.062  0.00  0.00    +0.000 OA
BRANCH  16  17
ATOM     17  C   UNL     1      44.551   3.048   9.209  0.00  0.00    +0.000 A 
ATOM     18  C   UNL     1      45.097   4.018   8.386  0.00  0.00    +0.000 A 
ATOM     19  C   UNL     1      46.105   3.637   7.499  0.00  0.00    +0.000 A 
ATOM     20  C   UNL     1      46.533   2.306   7.461  0.00  0.00    +0.000 A 
ATOM     21  C   UNL     1      45.926   1.417   8.335  0.00  0.00    +0.000 A 
ATOM     22  N   UNL     1      44.944   1.756   9.202  0.00  0.00    +0.000 NA
BRANCH  20  23
ATOM     23  C   UNL     1      47.591   1.904   6.506  0.00  0.00    +0.000 C 
ATOM     24  N   UNL     1      48.684   2.712   6.342  0.00  0.00    +0.000 N 
ATOM     25  O   UNL     1      47.500   0.862   5.867  0.00  0.00    +0.000 OA
ATOM     26  H   UNL     1      48.862   3.582   6.811  0.00  0.00    +0.000 HD
ATOM     27  H   UNL     1      49.381   2.390   5.682  0.00  0.00    +0.000 HD
ENDBRANCH  20  23
ENDBRANCH  16  17
ENDBRANCH  15  16
ENDBRANCH   2  15
TORSDOF 8
ENDMDL
MODEL 5
REMARK VINA RESULT:    -6.165      2.628      3.413
REMARK INTER + INTRA:          -9.572
REMARK INTER:                  -8.671
REMARK INTRA:                  -0.901
REMARK UNBOUND:                -0.703
REMARK  Name = 
REMARK  9 active torsions:
REMARK  status: ('A' for Active; 'I' for Inactive)
REMARK    1  A    between atoms: C_1  and  O_2
REMARK    2  A    between atoms: O_2  and  C_3
REMARK    3  A    between atoms: C_6  and  C_7
REMARK    4  A    between atoms: C_8  and  C_9
REMARK    5  A    between atoms: C_9  and  O_10
REMARK    6  A    between atoms: O_10  and  C_11
REMARK    7  A    between atoms: C_14  and  C_15
REMARK    8  A    between atoms: C_21  and  C_22
REMARK    9  A    between atoms: C_22  and  N_23
REMARK                            x       y       z     vdW  Elec       q    Type
REMARK                         _______ _______ _______ _____ _____    ______ ____
ROOT
ATOM      1  C   UNL     1      46.240   5.623  11.964  0.00  0.00    +0.000 C 
ATOM      2  C   UNL     1      44.900   5.690  11.908  0.00  0.00    +0.000 C 
ENDROOT
BRANCH   1   6
ATOM      3  C   UNL     1      48.736   8.641  13.718  0.00  0.00    +0.000 A 
ATOM      4  C   UNL     1      48.438   7.472  14.427  0.00  0.00    +0.000 A 
ATOM      5  C   UNL     1      47.624   6.486  13.869  0.00  0.00    +0.000 A 
ATOM      6  C   UNL     1      47.088   6.643  12.591  0.00  0.00    +0.000 A 
ATOM      7  C   UNL     1      47.351   7.831  11.898  0.00  0.00    +0.000 A 
ATOM      8  C   UNL     1      48.182   8.833  12.441  0.00  0.00    +0.000 A 
BRANCH   3  10
ATOM      9  C   UNL     1      49.139  10.172  15.483  0.00  0.00    +0.000 C 
ATOM     10  O   UNL     1      49.523   9.646  14.217  0.00  0.00    +0.000 OA
ENDBRANCH   3  10
BRANCH   8  11
ATOM     11  C   UNL     1      48.438  10.079  11.626  0.00  0.00    +0.000 C 
BRANCH  11  12
ATOM     12  N   UNL     1      49.851  10.210  11.269  0.00  0.00    +0.000 NA
ATOM     13  H   UNL     1      50.081  11.203  11.245  0.00  0.00    +0.000 HD
ATOM     14  H   UNL     1      49.981   9.866  10.320  0.00  0.00    +0.000 HD
ENDBRANCH  11  12
ENDBRANCH   8  11
ENDBRANCH   1   6
BRANCH   2  15
ATOM     15  C   UNL     1      44.045   4.598  11.349  0.00  0.00    +0.000 C 
BRANCH  15  16
ATOM     16  O   UNL     1      43.893   4.818   9.948  0.00  0.00    +0.000 OA
BRANCH  16  17
ATOM     17  C   UNL     1      44.746   4.019   9.215  0.00  0.00    +0.000 A 
ATOM     18  C   UNL     1      44.696   2.655   9.450  0.00  0.00    +0.000 A 
ATOM     19  C   UNL     1      45.566   1.832   8.734  0.00  0.00    +0.000 A 
ATOM     20  C   UNL     1      46.456   2.394   7.812  0.00  0.00    +0.000 A 
ATOM     21  C   UNL     1      46.417   3.770   7.647  0.00  0.00    +0.000 A 
ATOM     22  N   UNL     1      45.588   4.593   8.329  0.00  0.00    +0.000 NA
BRANCH  20  23
ATOM     23  C   UNL     1      47.390   1.516   7.068  0.00  0.00    +0.000 C 
ATOM     24  N   UNL     1      47.012   0.233   6.779  0.00  0.00    +0.000 N 
ATOM     25  O   UNL     1      48.487   1.926   6.710  0.00  0.00    +0.000 OA
ATOM     26  H   UNL     1      46.140  -0.205   7.021  0.00  0.00    +0.000 HD
ATOM     27  H   UNL     1      47.683  -0.324   6.264  0.00  0.00    +0.000 HD
ENDBRANCH  20  23
ENDBRANCH  16  17
ENDBRANCH  15  16
ENDBRANCH   2  15
TORSDOF 8
ENDMDL
MODEL 6
REMARK VINA RESULT:    -6.030      1.642      2.459
REMARK INTER + INTRA:          -9.377
REMARK INTER:                  -8.573
REMARK INTRA:                  -0.804
REMARK UNBOUND:                -0.703
REMARK  Name = 
REMARK  9 active torsions:
REMARK  status: ('A' for Active; 'I' for Inactive)
REMARK    1  A    between atoms: C_1  and  O_2
REMARK    2  A    between atoms: O_2  and  C_3
REMARK    3  A    between atoms: C_6  and  C_7
REMARK    4  A    between atoms: C_8  and  C_9
REMARK    5  A    between atoms: C_9  and  O_10
REMARK    6  A    between atoms: O_10  and  C_11
REMARK    7  A    between atoms: C_14  and  C_15
REMARK    8  A    between atoms: C_21  and  C_22
REMARK    9  A    between atoms: C_22  and  N_23
REMARK                            x       y       z     vdW  Elec       q    Type
REMARK                         _______ _______ _______ _____ _____    ______ ____
ROOT
ATOM      1  C   UNL     1      46.354   6.210  12.844  0.00  0.00    +0.000 C 
ATOM      2  C   UNL     1      45.857   5.441  11.862  0.00  0.00    +0.000 C 
ENDROOT
BRANCH   1   6
ATOM      3  C   UNL     1      48.321   4.725  16.357  0.00  0.00    +0.000 A 
ATOM      4  C   UNL     1      47.286   3.993  15.765  0.00  0.00    +0.000 A 
ATOM      5  C   UNL     1      46.635   4.468  14.625  0.00  0.00    +0.000 A 
ATOM      6  C   UNL     1      47.003   5.684  14.050  0.00  0.00    +0.000 A 
ATOM      7  C   UNL     1      48.010   6.438  14.666  0.00  0.00    +0.000 A 
ATOM      8  C   UNL     1      48.687   5.968  15.811  0.00  0.00    +0.000 A 
BRANCH   3  10
ATOM      9  C   UNL     1      49.502   2.985  17.451  0.00  0.00    +0.000 C 
ATOM     10  O   UNL     1      48.990   4.314  17.479  0.00  0.00    +0.000 OA
ENDBRANCH   3  10
BRANCH   8  11
ATOM     11  C   UNL     1      49.777   6.826  16.409  0.00  0.00    +0.000 C 
BRANCH  11  12
ATOM     12  N   UNL     1      49.386   7.365  17.713  0.00  0.00    +0.000 NA
ATOM     13  H   UNL     1      48.685   8.089  17.559  0.00  0.00    +0.000 HD
ATOM     14  H   UNL     1      50.190   7.831  18.127  0.00  0.00    +0.000 HD
ENDBRANCH  11  12
ENDBRANCH   8  11
ENDBRANCH   1   6
BRANCH   2  15
ATOM     15  C   UNL     1      45.283   5.992  10.596  0.00  0.00    +0.000 C 
BRANCH  15  16
ATOM     16  O   UNL     1      44.350   5.046  10.076  0.00  0.00    +0.000 OA
BRANCH  16  17
ATOM     17  C   UNL     1      44.987   4.012   9.423  0.00  0.00    +0.000 A 
ATOM     18  C   UNL     1      45.868   4.350   8.409  0.00  0.00    +0.000 A 
ATOM     19  C   UNL     1      46.506   3.317   7.721  0.00  0.00    +0.000 A 
ATOM     20  C   UNL     1      46.245   1.986   8.064  0.00  0.00    +0.000 A 
ATOM     21  C   UNL     1      45.353   1.759   9.101  0.00  0.00    +0.000 A 
ATOM     22  N   UNL     1      44.717   2.739   9.782  0.00  0.00    +0.000 NA
BRANCH  20  23
ATOM     23  C   UNL     1      46.912   0.893   7.317  0.00  0.00    +0.000 C 
ATOM     24  N   UNL     1      47.606   1.192   6.176  0.00  0.00    +0.000 N 
ATOM     25  O   UNL     1      46.852  -0.265   7.711  0.00  0.00    +0.000 OA
ATOM     26  H   UNL     1      47.721   2.102   5.765  0.00  0.00    +0.000 HD
ATOM     27  H   UNL     1      48.048   0.412   5.706  0.00  0.00    +0.000 HD
ENDBRANCH  20  23
ENDBRANCH  16  17
ENDBRANCH  15  16
ENDBRANCH   2  15
TORSDOF 8
ENDMDL
MODEL 7
REMARK VINA RESULT:    -5.995      4.083      6.312
REMARK INTER + INTRA:          -9.327
REMARK INTER:                  -8.793
REMARK INTRA:                  -0.534
REMARK UNBOUND:                -0.703
REMARK  Name = 
REMARK  9 active torsions:
REMARK  status: ('A' for Active; 'I' for Inactive)
REMARK    1  A    between atoms: C_1  and  O_2
REMARK    2  A    between atoms: O_2  and  C_3
REMARK    3  A    between atoms: C_6  and  C_7
REMARK    4  A    between atoms: C_8  and  C_9
REMARK    5  A    between atoms: C_9  and  O_10
REMARK    6  A    between atoms: O_10  and  C_11
REMARK    7  A    between atoms: C_14  and  C_15
REMARK    8  A    between atoms: C_21  and  C_22
REMARK    9  A    between atoms: C_22  and  N_23
REMARK                            x       y       z     vdW  Elec       q    Type
REMARK                         _______ _______ _______ _____ _____    ______ ____
ROOT
ATOM      1  C   UNL     1      49.428   4.380  17.123  0.00  0.00    +0.000 C 
ATOM      2  C   UNL     1      48.540   3.442  16.754  0.00  0.00    +0.000 C 
ENDROOT
BRANCH   1   6
ATOM      3  C   UNL     1      53.085   3.454  19.167  0.00  0.00    +0.000 A 
ATOM      4  C   UNL     1      52.461   4.691  19.362  0.00  0.00    +0.000 A 
ATOM      5  C   UNL     1      51.274   5.006  18.699  0.00  0.00    +0.000 A 
ATOM      6  C   UNL     1      50.682   4.093  17.826  0.00  0.00    +0.000 A 
ATOM      7  C   UNL     1      51.327   2.872  17.597  0.00  0.00    +0.000 A 
ATOM      8  C   UNL     1      52.522   2.531  18.268  0.00  0.00    +0.000 A 
BRANCH   3  10
ATOM      9  C   UNL     1      54.254   3.149  21.206  0.00  0.00    +0.000 C 
ATOM     10  O   UNL     1      54.253   3.092  19.783  0.00  0.00    +0.000 OA
ENDBRANCH   3  10
BRANCH   8  11
ATOM     11  C   UNL     1      53.150   1.187  17.986  0.00  0.00    +0.000 C 
BRANCH  11  12
ATOM     12  N   UNL     1      52.217   0.089  18.248  0.00  0.00    +0.000 NA
ATOM     13  H   UNL     1      52.430  -0.669  17.601  0.00  0.00    +0.000 HD
ATOM     14  H   UNL     1      51.275   0.400  18.020  0.00  0.00    +0.000 HD
ENDBRANCH  11  12
ENDBRANCH   8  11
ENDBRANCH   1   6
BRANCH   2  15
ATOM     15  C   UNL     1      47.311   3.739  15.956  0.00  0.00    +0.000 C 
BRANCH  15  16
ATOM     16  O   UNL     1      47.520   3.278  14.622  0.00  0.00    +0.000 OA
BRANCH  16  17
ATOM     17  C   UNL     1      46.615   3.839  13.745  0.00  0.00    +0.000 A 
ATOM     18  C   UNL     1      46.523   5.220  13.727  0.00  0.00    +0.000 A 
ATOM     19  C   UNL     1      45.597   5.806  12.862  0.00  0.00    +0.000 A 
ATOM     20  C   UNL     1      44.797   4.999  12.047  0.00  0.00    +0.000 A 
ATOM     21  C   UNL     1      44.977   3.627  12.137  0.00  0.00    +0.000 A 
ATOM     22  N   UNL     1      45.862   3.031  12.968  0.00  0.00    +0.000 NA
BRANCH  20  23
ATOM     23  C   UNL     1      43.804   5.626  11.144  0.00  0.00    +0.000 C 
ATOM     24  N   UNL     1      43.480   6.944  11.322  0.00  0.00    +0.000 N 
ATOM     25  O   UNL     1      43.277   4.983  10.245  0.00  0.00    +0.000 OA
ATOM     26  H   UNL     1      43.849   7.563  12.022  0.00  0.00    +0.000 HD
ATOM     27  H   UNL     1      42.801   7.326  10.676  0.00  0.00    +0.000 HD
ENDBRANCH  20  23
ENDBRANCH  16  17
ENDBRANCH  15  16
ENDBRANCH   2  15
TORSDOF 8
ENDMDL
MODEL 8
REMARK VINA RESULT:    -5.945      3.441      8.488
REMARK INTER + INTRA:          -9.255
REMARK INTER:                  -8.420
REMARK INTRA:                  -0.835
REMARK UNBOUND:                -0.703
REMARK  Name = 
REMARK  9 active torsions:
REMARK  status: ('A' for Active; 'I' for Inactive)
REMARK    1  A    between atoms: C_1  and  O_2
REMARK    2  A    between atoms: O_2  and  C_3
REMARK    3  A    between atoms: C_6  and  C_7
REMARK    4  A    between atoms: C_8  and  C_9
REMARK    5  A    between atoms: C_9  and  O_10
REMARK    6  A    between atoms: O_10  and  C_11
REMARK    7  A    between atoms: C_14  and  C_15
REMARK    8  A    between atoms: C_21  and  C_22
REMARK    9  A    between atoms: C_22  and  N_23
REMARK                            x       y       z     vdW  Elec       q    Type
REMARK                         _______ _______ _______ _____ _____    ______ ____
ROOT
ATOM      1  C   UNL     1      46.856   4.661  14.839  0.00  0.00    +0.000 C 
ATOM      2  C   UNL     1      47.724   5.633  15.164  0.00  0.00    +0.000 C 
ENDROOT
BRANCH   1   6
ATOM      3  C   UNL     1      44.604   4.620  11.187  0.00  0.00    +0.000 A 
ATOM      4  C   UNL     1      45.160   3.438  11.687  0.00  0.00    +0.000 A 
ATOM      5  C   UNL     1      45.898   3.439  12.871  0.00  0.00    +0.000 A 
ATOM      6  C   UNL     1      46.099   4.621  13.584  0.00  0.00    +0.000 A 
ATOM      7  C   UNL     1      45.579   5.812  13.063  0.00  0.00    +0.000 A 
ATOM      8  C   UNL     1      44.820   5.828  11.874  0.00  0.00    +0.000 A 
BRANCH   3  10
ATOM      9  C   UNL     1      44.430   4.004   8.905  0.00  0.00    +0.000 C 
ATOM     10  O   UNL     1      43.876   4.682  10.028  0.00  0.00    +0.000 OA
ENDBRANCH   3  10
BRANCH   8  11
ATOM     11  C   UNL     1      44.273   7.148  11.383  0.00  0.00    +0.000 C 
BRANCH  11  12
ATOM     12  N   UNL     1      42.827   7.085  11.162  0.00  0.00    +0.000 NA
ATOM     13  H   UNL     1      42.665   6.670  10.245  0.00  0.00    +0.000 HD
ATOM     14  H   UNL     1      42.463   8.034  11.113  0.00  0.00    +0.000 HD
ENDBRANCH  11  12
ENDBRANCH   8  11
ENDBRANCH   1   6
BRANCH   2  15
ATOM     15  C   UNL     1      48.557   5.612  16.405  0.00  0.00    +0.000 C 
BRANCH  15  16
ATOM     16  O   UNL     1      48.329   4.376  17.079  0.00  0.00    +0.000 OA
BRANCH  16  17
ATOM     17  C   UNL     1      49.503   3.676  17.264  0.00  0.00    +0.000 A 
ATOM     18  C   UNL     1      49.514   2.345  16.881  0.00  0.00    +0.000 A 
ATOM     19  C   UNL     1      50.685   1.613  17.081  0.00  0.00    +0.000 A 
ATOM     20  C   UNL     1      51.803   2.229  17.654  0.00  0.00    +0.000 A 
ATOM     21  C   UNL     1      51.687   3.569  17.992  0.00  0.00    +0.000 A 
ATOM     22  N   UNL     1      50.565   4.302  17.814  0.00  0.00    +0.000 NA
BRANCH  20  23
ATOM     23  C   UNL     1      53.037   1.442  17.880  0.00  0.00    +0.000 C 
ATOM     24  N   UNL     1      54.231   1.927  17.417  0.00  0.00    +0.000 N 
ATOM     25  O   UNL     1      53.001   0.372  18.474  0.00  0.00    +0.000 OA
ATOM     26  H   UNL     1      54.376   2.788  16.921  0.00  0.00    +0.000 HD
ATOM     27  H   UNL     1      55.045   1.355  17.601  0.00  0.00    +0.000 HD
ENDBRANCH  20  23
ENDBRANCH  16  17
ENDBRANCH  15  16
ENDBRANCH   2  15
TORSDOF 8
ENDMDL
MODEL 9
REMARK VINA RESULT:    -5.915      2.945      4.305
REMARK INTER + INTRA:          -9.211
REMARK INTER:                  -8.524
REMARK INTRA:                  -0.687
REMARK UNBOUND:                -0.703
REMARK  Name = 
REMARK  9 active torsions:
REMARK  status: ('A' for Active; 'I' for Inactive)
REMARK    1  A    between atoms: C_1  and  O_2
REMARK    2  A    between atoms: O_2  and  C_3
REMARK    3  A    between atoms: C_6  and  C_7
REMARK    4  A    between atoms: C_8  and  C_9
REMARK    5  A    between atoms: C_9  and  O_10
REMARK    6  A    between atoms: O_10  and  C_11
REMARK    7  A    between atoms: C_14  and  C_15
REMARK    8  A    between atoms: C_21  and  C_22
REMARK    9  A    between atoms: C_22  and  N_23
REMARK                            x       y       z     vdW  Elec       q    Type
REMARK                         _______ _______ _______ _____ _____    ______ ____
ROOT
ATOM      1  C   UNL     1      48.007   6.449  14.354  0.00  0.00    +0.000 C 
ATOM      2  C   UNL     1      47.648   7.695  14.005  0.00  0.00    +0.000 C 
ENDROOT
BRANCH   1   6
ATOM      3  C   UNL     1      49.289   5.284  18.280  0.00  0.00    +0.000 A 
ATOM      4  C   UNL     1      49.682   6.516  17.745  0.00  0.00    +0.000 A 
ATOM      5  C   UNL     1      49.275   6.904  16.468  0.00  0.00    +0.000 A 
ATOM      6  C   UNL     1      48.468   6.071  15.694  0.00  0.00    +0.000 A 
ATOM      7  C   UNL     1      48.109   4.820  16.210  0.00  0.00    +0.000 A 
ATOM      8  C   UNL     1      48.500   4.417  17.505  0.00  0.00    +0.000 A 
BRANCH   3  10
ATOM      9  C   UNL     1      48.888   5.333  20.615  0.00  0.00    +0.000 C 
ATOM     10  O   UNL     1      49.662   4.847  19.523  0.00  0.00    +0.000 OA
ENDBRANCH   3  10
BRANCH   8  11
ATOM     11  C   UNL     1      48.058   3.061  18.003  0.00  0.00    +0.000 C 
BRANCH  11  12
ATOM     12  N   UNL     1      46.632   2.836  17.762  0.00  0.00    +0.000 NA
ATOM     13  H   UNL     1      46.404   3.208  16.840  0.00  0.00    +0.000 HD
ATOM     14  H   UNL     1      46.097   3.386  18.430  0.00  0.00    +0.000 HD
ENDBRANCH  11  12
ENDBRANCH   8  11
ENDBRANCH   1   6
BRANCH   2  15
ATOM     15  C   UNL     1      47.091   8.047  12.663  0.00  0.00    +0.000 C 
BRANCH  15  16
ATOM     16  O   UNL     1      45.670   7.945  12.724  0.00  0.00    +0.000 OA
BRANCH  16  17
ATOM     17  C   UNL     1      45.235   6.694  12.337  0.00  0.00    +0.000 A 
ATOM     18  C   UNL     1      45.634   6.242  11.091  0.00  0.00    +0.000 A 
ATOM     19  C   UNL     1      45.186   4.988  10.672  0.00  0.00    +0.000 A 
ATOM     20  C   UNL     1      44.357   4.230  11.506  0.00  0.00    +0.000 A 
ATOM     21  C   UNL     1      44.025   4.774  12.738  0.00  0.00    +0.000 A 
ATOM     22  N   UNL     1      44.440   5.986  13.169  0.00  0.00    +0.000 NA
BRANCH  20  23
ATOM     23  C   UNL     1      43.870   2.908  11.048  0.00  0.00    +0.000 C 
ATOM     24  N   UNL     1      44.452   2.324   9.955  0.00  0.00    +0.000 N 
ATOM     25  O   UNL     1      42.960   2.335  11.635  0.00  0.00    +0.000 OA
ATOM     26  H   UNL     1      45.202   2.702   9.403  0.00  0.00    +0.000 HD
ATOM     27  H   UNL     1      44.088   1.419   9.687  0.00  0.00    +0.000 HD
ENDBRANCH  20  23
ENDBRANCH  16  17
ENDBRANCH  15  16
ENDBRANCH   2  15
TORSDOF 8
ENDMDL
