MODEL 1
REMARK VINA RESULT:    -7.960      0.000      0.000
REMARK INTER + INTRA:         -12.450
REMARK INTER:                 -11.217
REMARK INTRA:                  -1.233
REMARK UNBOUND:                -1.233
REMARK  Name = 
REMARK  7 active torsions:
REMARK  status: ('A' for Active; 'I' for Inactive)
REMARK    1  A    between atoms: C_2  and  C_20
REMARK    2  A    between atoms: N_3  and  C_4
REMARK    3  A    between atoms: C_4  and  C_5
REMARK    4  A    between atoms: C_8  and  C_9
REMARK    5  A    between atoms: C_9  and  N_10
REMARK    6  A    between atoms: N_10  and  C_11
REMARK    7  A    between atoms: C_11  and  C_12
REMARK                            x       y       z     vdW  Elec       q    Type
REMARK                         _______ _______ _______ _____ _____    ______ ____
ROOT
ATOM      1  C   UNL     1      47.403   7.183  13.242  0.00  0.00    +0.000 C 
ENDROOT
BRANCH   1   2
ATOM      2  C   UNL     1      46.405   6.237  12.625  0.00  0.00    +0.000 A 
ATOM      3  C   UNL     1      46.192   6.252  11.241  0.00  0.00    +0.000 A 
ATOM      4  C   UNL     1      45.275   5.378  10.651  0.00  0.00    +0.000 A 
ATOM      5  C   UNL     1      44.550   4.467  11.431  0.00  0.00    +0.000 A 
ATOM      6  C   UNL     1      44.749   4.465  12.819  0.00  0.00    +0.000 A 
ATOM      7  C   UNL     1      45.661   5.347  13.411  0.00  0.00    +0.000 A 
BRANCH   5   8
ATOM      8  C   UNL     1      43.546   3.532  10.793  0.00  0.00    +0.000 C 
BRANCH   8   9
ATOM      9  N   UNL     1      43.906   3.231   9.407  0.00  0.00    +0.000 NA
ATOM     10  H   UNL     1      44.498   3.984   9.055  0.00  0.00    +0.000 HD
BRANCH   9  11
ATOM     11  C   UNL     1      44.650   1.969   9.309  0.00  0.00    +0.000 C 
BRANCH  11  12
ATOM     12  C   UNL     1      45.775   2.050   8.302  0.00  0.00    +0.000 A 
ATOM     13  C   UNL     1      46.067   3.244   7.651  0.00  0.00    +0.000 A 
ATOM     14  C   UNL     1      47.111   3.269   6.736  0.00  0.00    +0.000 A 
ATOM     15  C   UNL     1      47.807   2.099   6.517  0.00  0.00    +0.000 A 
ATOM     16  N   UNL     1      47.511   0.949   7.153  0.00  0.00    +0.000 NA
ATOM     17  N   UNL     1      46.486   0.924   8.056  0.00  0.00    +0.000 NA
ENDBRANCH  11  12
ENDBRANCH   9  11
ENDBRANCH   8   9
ENDBRANCH   5   8
ENDBRANCH   1   2
BRANCH   1  20
ATOM     18  O   UNL     1      49.999   7.087  14.363  0.00  0.00    +0.000 OA
ATOM     19  C   UNL     1      49.026   6.839  15.069  0.00  0.00    +0.000 C 
ATOM     20  N   UNL     1      47.743   6.800  14.587  0.00  0.00    +0.000 N 
ATOM     21  H   UNL     1      46.974   6.786  15.246  0.00  0.00    +0.000 HD
BRANCH  19  22
ATOM     22  C   UNL     1      49.176   6.497  16.487  0.00  0.00    +0.000 A 
ATOM     23  C   UNL     1      49.740   7.404  17.373  0.00  0.00    +0.000 A 
ATOM     24  S   UNL     1      49.871   6.803  18.965  0.00  0.00    +0.000 S 
ATOM     25  C   UNL     1      49.132   5.333  18.529  0.00  0.00    +0.000 A 
ATOM     26  N   UNL     1      48.922   4.350  19.451  0.00  0.00    +0.000 NA
ATOM     27  C   UNL     1      48.323   3.308  18.985  0.00  0.00    +0.000 A 
ATOM     28  N   UNL     1      47.912   3.153  17.687  0.00  0.00    +0.000 N 
ATOM     29  C   UNL     1      48.163   4.085  16.711  0.00  0.00    +0.000 A 
ATOM     30  O   UNL     1      47.893   3.855  15.537  0.00  0.00    +0.000 OA
ATOM     31  C   UNL     1      48.807   5.292  17.187  0.00  0.00    +0.000 A 
ATOM     32  H   UNL     1      47.468   2.297  17.384  0.00  0.00    +0.000 HD
ENDBRANCH  19  22
ENDBRANCH   1  20
TORSDOF 7
ENDMDL
MODEL 2
REMARK VINA RESULT:    -7.924      0.948      1.344
REMARK INTER + INTRA:         -12.400
REMARK INTER:                 -11.389
REMARK INTRA:                  -1.011
REMARK UNBOUND:                -1.233
REMARK  Name = 
REMARK  7 active torsions:
REMARK  status: ('A' for Active; 'I' for Inactive)
REMARK    1  A    between atoms: C_2  and  C_20
REMARK    2  A    between atoms: N_3  and  C_4
REMARK    3  A    between atoms: C_4  and  C_5
REMARK    4  A    between atoms: C_8  and  C_9
REMARK    5  A    between atoms: C_9  and  N_10
REMARK    6  A    between atoms: N_10  and  C_11
REMARK    7  A    between atoms: C_11  and  C_12
REMARK                            x       y       z     vdW  Elec       q    Type
REMARK                         _______ _______ _______ _____ _____    ______ ____
ROOT
ATOM      1  C   UNL     1      48.161   6.808  13.333  0.00  0.00    +0.000 C 
ENDROOT
BRANCH   1   2
ATOM      2  C   UNL     1      46.985   6.161  12.648  0.00  0.00    +0.000 A 
ATOM      3  C   UNL     1      46.256   5.164  13.307  0.00  0.00    +0.000 A 
ATOM      4  C   UNL     1      45.159   4.556  12.688  0.00  0.00    +0.000 A 
ATOM      5  C   UNL     1      44.766   4.932  11.397  0.00  0.00    +0.000 A 
ATOM      6  C   UNL     1      45.509   5.917  10.730  0.00  0.00    +0.000 A 
ATOM      7  C   UNL     1      46.613   6.519  11.345  0.00  0.00    +0.000 A 
BRANCH   5   8
ATOM      8  C   UNL     1      43.588   4.263  10.723  0.00  0.00    +0.000 C 
BRANCH   8   9
ATOM      9  N   UNL     1      43.946   3.769   9.394  0.00  0.00    +0.000 NA
ATOM     10  H   UNL     1      44.598   4.429   8.967  0.00  0.00    +0.000 HD
BRANCH   9  11
ATOM     11  C   UNL     1      44.595   2.454   9.467  0.00  0.00    +0.000 C 
BRANCH  11  12
ATOM     12  C   UNL     1      45.676   2.295   8.421  0.00  0.00    +0.000 A 
ATOM     13  C   UNL     1      46.093   3.378   7.654  0.00  0.00    +0.000 A 
ATOM     14  C   UNL     1      47.090   3.182   6.707  0.00  0.00    +0.000 A 
ATOM     15  C   UNL     1      47.616   1.914   6.574  0.00  0.00    +0.000 A 
ATOM     16  N   UNL     1      47.199   0.874   7.323  0.00  0.00    +0.000 NA
ATOM     17  N   UNL     1      46.220   1.067   8.257  0.00  0.00    +0.000 NA
ENDBRANCH  11  12
ENDBRANCH   9  11
ENDBRANCH   8   9
ENDBRANCH   5   8
ENDBRANCH   1   2
BRANCH   1  20
ATOM     18  O   UNL     1      50.277   6.737  15.211  0.00  0.00    +0.000 OA
ATOM     19  C   UNL     1      49.117   6.796  15.608  0.00  0.00    +0.000 C 
ATOM     20  N   UNL     1      48.035   6.768  14.766  0.00  0.00    +0.000 N 
ATOM     21  H   UNL     1      47.124   7.016  15.133  0.00  0.00    +0.000 HD
BRANCH  19  22
ATOM     22  C   UNL     1      48.799   6.835  17.039  0.00  0.00    +0.000 A 
ATOM     23  C   UNL     1      48.413   8.025  17.641  0.00  0.00    +0.000 A 
ATOM     24  S   UNL     1      48.133   7.875  19.318  0.00  0.00    +0.000 S 
ATOM     25  C   UNL     1      48.470   6.207  19.280  0.00  0.00    +0.000 A 
ATOM     26  N   UNL     1      48.401   5.449  20.413  0.00  0.00    +0.000 NA
ATOM     27  C   UNL     1      48.648   4.197  20.226  0.00  0.00    +0.000 A 
ATOM     28  N   UNL     1      48.959   3.629  19.018  0.00  0.00    +0.000 N 
ATOM     29  C   UNL     1      49.108   4.362  17.867  0.00  0.00    +0.000 A 
ATOM     30  O   UNL     1      49.510   3.838  16.835  0.00  0.00    +0.000 OA
ATOM     31  C   UNL     1      48.810   5.773  18.013  0.00  0.00    +0.000 A 
ATOM     32  H   UNL     1      49.165   2.643  18.949  0.00  0.00    +0.000 HD
ENDBRANCH  19  22
ENDBRANCH   1  20
TORSDOF 7
ENDMDL
MODEL 3
REMARK VINA RESULT:    -7.612      2.162      3.224
REMARK INTER + INTRA:         -11.961
REMARK INTER:                 -10.816
REMARK INTRA:                  -1.145
REMARK UNBOUND:                -1.233
REMARK  Name = 
REMARK  7 active torsions:
REMARK  status: ('A' for Active; 'I' for Inactive)
REMARK    1  A    between atoms: C_2  and  C_20
REMARK    2  A    between atoms: N_3  and  C_4
REMARK    3  A    between atoms: C_4  and  C_5
REMARK    4  A    between atoms: C_8  and  C_9
REMARK    5  A    between atoms: C_9  and  N_10
REMARK    6  A    between atoms: N_10  and  C_11
REMARK    7  A    between atoms: C_11  and  C_12
REMARK                            x       y       z     vdW  Elec       q    Type
REMARK                         _______ _______ _______ _____ _____    ______ ____
ROOT
ATOM      1  C   UNL     1      48.405   6.570  13.518  0.00  0.00    +0.000 C 
ENDROOT
BRANCH   1   2
ATOM      2  C   UNL     1      47.180   6.121  12.764  0.00  0.00    +0.000 A 
ATOM      3  C   UNL     1      46.285   5.223  13.358  0.00  0.00    +0.000 A 
ATOM      4  C   UNL     1      45.141   4.801  12.676  0.00  0.00    +0.000 A 
ATOM      5  C   UNL     1      44.864   5.266  11.384  0.00  0.00    +0.000 A 
ATOM      6  C   UNL     1      45.771   6.150  10.781  0.00  0.00    +0.000 A 
ATOM      7  C   UNL     1      46.922   6.566  11.461  0.00  0.00    +0.000 A 
BRANCH   5   8
ATOM      8  C   UNL     1      43.633   4.795  10.640  0.00  0.00    +0.000 C 
BRANCH   8   9
ATOM      9  N   UNL     1      43.980   4.249   9.329  0.00  0.00    +0.000 NA
ATOM     10  H   UNL     1      44.796   4.749   8.975  0.00  0.00    +0.000 HD
BRANCH   9  11
ATOM     11  C   UNL     1      44.309   2.820   9.414  0.00  0.00    +0.000 C 
BRANCH  11  12
ATOM     12  C   UNL     1      45.479   2.454   8.528  0.00  0.00    +0.000 A 
ATOM     13  C   UNL     1      46.098   3.409   7.729  0.00  0.00    +0.000 A 
ATOM     14  C   UNL     1      47.170   3.025   6.935  0.00  0.00    +0.000 A 
ATOM     15  C   UNL     1      47.565   1.704   6.977  0.00  0.00    +0.000 A 
ATOM     16  N   UNL     1      46.953   0.789   7.754  0.00  0.00    +0.000 NA
ATOM     17  N   UNL     1      45.901   1.167   8.538  0.00  0.00    +0.000 NA
ENDBRANCH  11  12
ENDBRANCH   9  11
ENDBRANCH   8   9
ENDBRANCH   5   8
ENDBRANCH   1   2
BRANCH   1  20
ATOM     18  O   UNL     1      49.956   6.087  15.834  0.00  0.00    +0.000 OA
ATOM     19  C   UNL     1      48.929   6.753  15.922  0.00  0.00    +0.000 C 
ATOM     20  N   UNL     1      48.089   6.976  14.861  0.00  0.00    +0.000 N 
ATOM     21  H   UNL     1      47.373   7.687  14.947  0.00  0.00    +0.000 HD
BRANCH  19  22
ATOM     22  C   UNL     1      48.485   7.311  17.204  0.00  0.00    +0.000 A 
ATOM     23  C   UNL     1      48.315   6.488  18.308  0.00  0.00    +0.000 A 
ATOM     24  S   UNL     1      47.749   7.317  19.688  0.00  0.00    +0.000 S 
ATOM     25  C   UNL     1      47.764   8.808  18.867  0.00  0.00    +0.000 A 
ATOM     26  N   UNL     1      47.392   9.961  19.494  0.00  0.00    +0.000 NA
ATOM     27  C   UNL     1      47.486  11.016  18.759  0.00  0.00    +0.000 A 
ATOM     28  N   UNL     1      47.915  11.031  17.458  0.00  0.00    +0.000 N 
ATOM     29  C   UNL     1      48.233   9.888  16.765  0.00  0.00    +0.000 A 
ATOM     30  O   UNL     1      48.490   9.929  15.568  0.00  0.00    +0.000 OA
ATOM     31  C   UNL     1      48.175   8.675  17.555  0.00  0.00    +0.000 A 
ATOM     32  H   UNL     1      47.941  11.893  16.932  0.00  0.00    +0.000 HD
ENDBRANCH  19  22
ENDBRANCH   1  20
TORSDOF 7
ENDMDL
MODEL 4
REMARK VINA RESULT:    -7.294      3.333      8.134
REMARK INTER + INTRA:         -11.513
REMARK INTER:                 -10.119
REMARK INTRA:                  -1.394
REMARK UNBOUND:                -1.233
REMARK  Name = 
REMARK  7 active torsions:
REMARK  status: ('A' for Active; 'I' for Inactive)
REMARK    1  A    between atoms: C_2  and  C_20
REMARK    2  A    between atoms: N_3  and  C_4
REMARK    3  A    between atoms: C_4  and  C_5
REMARK    4  A    between atoms: C_8  and  C_9
REMARK    5  A    between atoms: C_9  and  N_10
REMARK    6  A    between atoms: N_10  and  C_11
REMARK    7  A    between atoms: C_11  and  C_12
REMARK                            x       y       z     vdW  Elec       q    Type
REMARK                         _______ _______ _______ _____ _____    ______ ____
ROOT
ATOM      1  C   UNL     1      48.383   8.042  11.920  0.00  0.00    +0.000 C 
ENDROOT
BRANCH   1   2
ATOM      2  C   UNL     1      48.491   8.026  13.422  0.00  0.00    +0.000 A 
ATOM      3  C   UNL     1      48.975   6.886  14.076  0.00  0.00    +0.000 A 
ATOM      4  C   UNL     1      49.088   6.856  15.469  0.00  0.00    +0.000 A 
ATOM      5  C   UNL     1      48.720   7.966  16.241  0.00  0.00    +0.000 A 
ATOM      6  C   UNL     1      48.217   9.100  15.588  0.00  0.00    +0.000 A 
ATOM      7  C   UNL     1      48.095   9.127  14.194  0.00  0.00    +0.000 A 
BRANCH   5   8
ATOM      8  C   UNL     1      48.828   7.927  17.750  0.00  0.00    +0.000 C 
BRANCH   8   9
ATOM      9  N   UNL     1      47.621   7.365  18.355  0.00  0.00    +0.000 NA
ATOM     10  H   UNL     1      46.986   7.079  17.608  0.00  0.00    +0.000 HD
BRANCH   9  11
ATOM     11  C   UNL     1      47.931   6.189  19.178  0.00  0.00    +0.000 C 
BRANCH  11  12
ATOM     12  C   UNL     1      47.978   4.919  18.358  0.00  0.00    +0.000 A 
ATOM     13  C   UNL     1      49.169   4.221  18.188  0.00  0.00    +0.000 A 
ATOM     14  C   UNL     1      49.160   3.059  17.428  0.00  0.00    +0.000 A 
ATOM     15  C   UNL     1      47.962   2.656  16.875  0.00  0.00    +0.000 A 
ATOM     16  N   UNL     1      46.817   3.345  17.047  0.00  0.00    +0.000 NA
ATOM     17  N   UNL     1      46.824   4.487  17.797  0.00  0.00    +0.000 NA
ENDBRANCH  11  12
ENDBRANCH   9  11
ENDBRANCH   8   9
ENDBRANCH   5   8
ENDBRANCH   1   2
BRANCH   1  20
ATOM     18  O   UNL     1      45.564   7.808  11.829  0.00  0.00    +0.000 OA
ATOM     19  C   UNL     1      46.261   6.913  11.362  0.00  0.00    +0.000 C 
ATOM     20  N   UNL     1      47.630   6.920  11.425  0.00  0.00    +0.000 N 
ATOM     21  H   UNL     1      48.149   6.262  10.855  0.00  0.00    +0.000 HD
BRANCH  19  22
ATOM     22  C   UNL     1      45.665   5.720  10.749  0.00  0.00    +0.000 A 
ATOM     23  C   UNL     1      45.861   5.449   9.402  0.00  0.00    +0.000 A 
ATOM     24  S   UNL     1      45.050   4.046   8.870  0.00  0.00    +0.000 S 
ATOM     25  C   UNL     1      44.455   3.730  10.433  0.00  0.00    +0.000 A 
ATOM     26  N   UNL     1      43.675   2.639  10.683  0.00  0.00    +0.000 NA
ATOM     27  C   UNL     1      43.328   2.510  11.918  0.00  0.00    +0.000 A 
ATOM     28  N   UNL     1      43.683   3.365  12.928  0.00  0.00    +0.000 N 
ATOM     29  C   UNL     1      44.407   4.511  12.712  0.00  0.00    +0.000 A 
ATOM     30  O   UNL     1      44.597   5.315  13.617  0.00  0.00    +0.000 OA
ATOM     31  C   UNL     1      44.852   4.690  11.344  0.00  0.00    +0.000 A 
ATOM     32  H   UNL     1      43.354   3.216  13.871  0.00  0.00    +0.000 HD
ENDBRANCH  19  22
ENDBRANCH   1  20
TORSDOF 7
ENDMDL
MODEL 5
REMARK VINA RESULT:    -7.005      3.477      5.510
REMARK INTER + INTRA:         -11.104
REMARK INTER:                  -9.935
REMARK INTRA:                  -1.169
REMARK UNBOUND:                -1.233
REMARK  Name = 
REMARK  7 active torsions:
REMARK  status: ('A' for Active; 'I' for Inactive)
REMARK    1  A    between atoms: C_2  and  C_20
REMARK    2  A    between atoms: N_3  and  C_4
REMARK    3  A    between atoms: C_4  and  C_5
REMARK    4  A    between atoms: C_8  and  C_9
REMARK    5  A    between atoms: C_9  and  N_10
REMARK    6  A    between atoms: N_10  and  C_11
REMARK    7  A    between atoms: C_11  and  C_12
REMARK                            x       y       z     vdW  Elec       q    Type
REMARK                         _______ _______ _______ _____ _____    ______ ____
ROOT
ATOM      1  C   UNL     1      48.075   6.379  13.620  0.00  0.00    +0.000 C 
ENDROOT
BRANCH   1   2
ATOM      2  C   UNL     1      46.874   5.826  12.898  0.00  0.00    +0.000 A 
ATOM      3  C   UNL     1      46.085   4.841  13.506  0.00  0.00    +0.000 A 
ATOM      4  C   UNL     1      44.965   4.321  12.853  0.00  0.00    +0.000 A 
ATOM      5  C   UNL     1      44.605   4.773  11.577  0.00  0.00    +0.000 A 
ATOM      6  C   UNL     1      45.405   5.745  10.960  0.00  0.00    +0.000 A 
ATOM      7  C   UNL     1      46.534   6.259  11.610  0.00  0.00    +0.000 A 
BRANCH   5   8
ATOM      8  C   UNL     1      43.400   4.198  10.865  0.00  0.00    +0.000 C 
BRANCH   8   9
ATOM      9  N   UNL     1      43.757   3.688   9.542  0.00  0.00    +0.000 NA
ATOM     10  H   UNL     1      44.346   4.380   9.075  0.00  0.00    +0.000 HD
BRANCH   9  11
ATOM     11  C   UNL     1      44.506   2.429   9.637  0.00  0.00    +0.000 C 
BRANCH  11  12
ATOM     12  C   UNL     1      45.566   2.315   8.563  0.00  0.00    +0.000 A 
ATOM     13  C   UNL     1      45.971   3.431   7.838  0.00  0.00    +0.000 A 
ATOM     14  C   UNL     1      46.948   3.277   6.864  0.00  0.00    +0.000 A 
ATOM     15  C   UNL     1      47.467   2.015   6.662  0.00  0.00    +0.000 A 
ATOM     16  N   UNL     1      47.062   0.943   7.371  0.00  0.00    +0.000 NA
ATOM     17  N   UNL     1      46.103   1.094   8.332  0.00  0.00    +0.000 NA
ENDBRANCH  11  12
ENDBRANCH   9  11
ENDBRANCH   8   9
ENDBRANCH   5   8
ENDBRANCH   1   2
BRANCH   1  20
ATOM     18  O   UNL     1      50.389   7.823  14.372  0.00  0.00    +0.000 OA
ATOM     19  C   UNL     1      49.971   7.907  13.222  0.00  0.00    +0.000 C 
ATOM     20  N   UNL     1      48.821   7.293  12.797  0.00  0.00    +0.000 N 
ATOM     21  H   UNL     1      48.636   7.237  11.802  0.00  0.00    +0.000 HD
BRANCH  19  22
ATOM     22  C   UNL     1      50.647   8.739  12.220  0.00  0.00    +0.000 A 
ATOM     23  C   UNL     1      51.988   8.535  11.926  0.00  0.00    +0.000 A 
ATOM     24  S   UNL     1      52.601   9.632  10.772  0.00  0.00    +0.000 S 
ATOM     25  C   UNL     1      51.082  10.379  10.593  0.00  0.00    +0.000 A 
ATOM     26  N   UNL     1      50.905  11.416   9.725  0.00  0.00    +0.000 NA
ATOM     27  C   UNL     1      49.695  11.858   9.670  0.00  0.00    +0.000 A 
ATOM     28  N   UNL     1      48.645  11.365  10.399  0.00  0.00    +0.000 N 
ATOM     29  C   UNL     1      48.790  10.371  11.334  0.00  0.00    +0.000 A 
ATOM     30  O   UNL     1      47.854  10.044  12.055  0.00  0.00    +0.000 OA
ATOM     31  C   UNL     1      50.125   9.814  11.414  0.00  0.00    +0.000 A 
ATOM     32  H   UNL     1      47.726  11.777  10.324  0.00  0.00    +0.000 HD
ENDBRANCH  19  22
ENDBRANCH   1  20
TORSDOF 7
ENDMDL
MODEL 6
REMARK VINA RESULT:    -6.987      4.577      9.261
REMARK INTER + INTRA:         -11.079
REMARK INTER:                 -10.284
REMARK INTRA:                  -0.795
REMARK UNBOUND:                -1.233
REMARK  Name = 
REMARK  7 active torsions:
REMARK  status: ('A' for Active; 'I' for Inactive)
REMARK    1  A    between atoms: C_2  and  C_20
REMARK    2  A    between atoms: N_3  and  C_4
REMARK    3  A    between atoms: C_4  and  C_5
REMARK    4  A    between atoms: C_8  and  C_9
REMARK    5  A    between atoms: C_9  and  N_10
REMARK    6  A    between atoms: N_10  and  C_11
REMARK    7  A    between atoms: C_11  and  C_12
REMARK                            x       y       z     vdW  Elec       q    Type
REMARK                         _______ _______ _______ _____ _____    ______ ____
ROOT
ATOM      1  C   UNL     1      46.988   3.521  16.841  0.00  0.00    +0.000 C 
ENDROOT
BRANCH   1   2
ATOM      2  C   UNL     1      48.465   3.470  17.135  0.00  0.00    +0.000 A 
ATOM      3  C   UNL     1      49.135   4.627  17.550  0.00  0.00    +0.000 A 
ATOM      4  C   UNL     1      50.504   4.597  17.832  0.00  0.00    +0.000 A 
ATOM      5  C   UNL     1      51.235   3.408  17.706  0.00  0.00    +0.000 A 
ATOM      6  C   UNL     1      50.568   2.254  17.271  0.00  0.00    +0.000 A 
ATOM      7  C   UNL     1      49.199   2.286  16.980  0.00  0.00    +0.000 A 
BRANCH   5   8
ATOM      8  C   UNL     1      52.719   3.380  17.996  0.00  0.00    +0.000 C 
BRANCH   8   9
ATOM      9  N   UNL     1      53.056   2.314  18.939  0.00  0.00    +0.000 NA
ATOM     10  H   UNL     1      52.460   1.509  18.746  0.00  0.00    +0.000 HD
BRANCH   9  11
ATOM     11  C   UNL     1      54.458   1.899  18.800  0.00  0.00    +0.000 C 
BRANCH  11  12
ATOM     12  C   UNL     1      54.583   0.502  18.233  0.00  0.00    +0.000 A 
ATOM     13  C   UNL     1      54.820   0.300  16.878  0.00  0.00    +0.000 A 
ATOM     14  C   UNL     1      54.929  -1.001  16.404  0.00  0.00    +0.000 A 
ATOM     15  C   UNL     1      54.790  -2.032  17.310  0.00  0.00    +0.000 A 
ATOM     16  N   UNL     1      54.557  -1.820  18.620  0.00  0.00    +0.000 NA
ATOM     17  N   UNL     1      54.453  -0.540  19.087  0.00  0.00    +0.000 NA
ENDBRANCH  11  12
ENDBRANCH   9  11
ENDBRANCH   8   9
ENDBRANCH   5   8
ENDBRANCH   1   2
BRANCH   1  20
ATOM     18  O   UNL     1      47.318   3.133  14.058  0.00  0.00    +0.000 OA
ATOM     19  C   UNL     1      46.815   4.174  14.468  0.00  0.00    +0.000 C 
ATOM     20  N   UNL     1      46.681   4.466  15.801  0.00  0.00    +0.000 N 
ATOM     21  H   UNL     1      46.087   5.240  16.074  0.00  0.00    +0.000 HD
BRANCH  19  22
ATOM     22  C   UNL     1      46.373   5.226  13.546  0.00  0.00    +0.000 A 
ATOM     23  C   UNL     1      47.227   6.266  13.206  0.00  0.00    +0.000 A 
ATOM     24  S   UNL     1      46.514   7.412  12.162  0.00  0.00    +0.000 S 
ATOM     25  C   UNL     1      45.062   6.527  12.092  0.00  0.00    +0.000 A 
ATOM     26  N   UNL     1      44.008   6.960  11.340  0.00  0.00    +0.000 NA
ATOM     27  C   UNL     1      42.989   6.170  11.356  0.00  0.00    +0.000 A 
ATOM     28  N   UNL     1      42.919   4.990  12.050  0.00  0.00    +0.000 N 
ATOM     29  C   UNL     1      43.926   4.550  12.872  0.00  0.00    +0.000 A 
ATOM     30  O   UNL     1      43.777   3.556  13.574  0.00  0.00    +0.000 OA
ATOM     31  C   UNL     1      45.111   5.385  12.868  0.00  0.00    +0.000 A 
ATOM     32  H   UNL     1      42.078   4.432  12.036  0.00  0.00    +0.000 HD
ENDBRANCH  19  22
ENDBRANCH   1  20
TORSDOF 7
ENDMDL
MODEL 7
REMARK VINA RESULT:    -6.832      3.065      4.645
REMARK INTER + INTRA:         -10.861
REMARK INTER:                  -9.759
REMARK INTRA:                  -1.103
REMARK UNBOUND:                -1.233
REMARK  Name = 
REMARK  7 active torsions:
REMARK  status: ('A' for Active; 'I' for Inactive)
REMARK    1  A    between atoms: C_2  and  C_20
REMARK    2  A    between atoms: N_3  and  C_4
REMARK    3  A    between atoms: C_4  and  C_5
REMARK    4  A    between atoms: C_8  and  C_9
REMARK    5  A    between atoms: C_9  and  N_10
REMARK    6  A    between atoms: N_10  and  C_11
REMARK    7  A    between atoms: C_11  and  C_12
REMARK                            x       y       z     vdW  Elec       q    Type
REMARK                         _______ _______ _______ _____ _____    ______ ____
ROOT
ATOM      1  C   UNL     1      47.559   5.852  14.423  0.00  0.00    +0.000 C 
ENDROOT
BRANCH   1   2
ATOM      2  C   UNL     1      46.515   5.184  13.567  0.00  0.00    +0.000 A 
ATOM      3  C   UNL     1      45.519   5.953  12.953  0.00  0.00    +0.000 A 
ATOM      4  C   UNL     1      44.546   5.351  12.151  0.00  0.00    +0.000 A 
ATOM      5  C   UNL     1      44.546   3.966  11.943  0.00  0.00    +0.000 A 
ATOM      6  C   UNL     1      45.531   3.193  12.573  0.00  0.00    +0.000 A 
ATOM      7  C   UNL     1      46.501   3.795  13.385  0.00  0.00    +0.000 A 
BRANCH   5   8
ATOM      8  C   UNL     1      43.483   3.313  11.086  0.00  0.00    +0.000 C 
BRANCH   8   9
ATOM      9  N   UNL     1      43.883   3.273   9.680  0.00  0.00    +0.000 NA
ATOM     10  H   UNL     1      44.598   3.985   9.526  0.00  0.00    +0.000 HD
BRANCH   9  11
ATOM     11  C   UNL     1      44.444   1.964   9.320  0.00  0.00    +0.000 C 
BRANCH  11  12
ATOM     12  C   UNL     1      45.623   2.091   8.380  0.00  0.00    +0.000 A 
ATOM     13  C   UNL     1      45.924   3.304   7.771  0.00  0.00    +0.000 A 
ATOM     14  C   UNL     1      47.017   3.371   6.918  0.00  0.00    +0.000 A 
ATOM     15  C   UNL     1      47.750   2.221   6.715  0.00  0.00    +0.000 A 
ATOM     16  N   UNL     1      47.444   1.051   7.310  0.00  0.00    +0.000 NA
ATOM     17  N   UNL     1      46.371   0.986   8.152  0.00  0.00    +0.000 NA
ENDBRANCH  11  12
ENDBRANCH   9  11
ENDBRANCH   8   9
ENDBRANCH   5   8
ENDBRANCH   1   2
BRANCH   1  20
ATOM     18  O   UNL     1      49.650   6.838  12.791  0.00  0.00    +0.000 OA
ATOM     19  C   UNL     1      48.781   7.606  13.191  0.00  0.00    +0.000 C 
ATOM     20  N   UNL     1      47.773   7.221  14.037  0.00  0.00    +0.000 N 
ATOM     21  H   UNL     1      46.984   7.843  14.172  0.00  0.00    +0.000 HD
BRANCH  19  22
ATOM     22  C   UNL     1      48.796   9.030  12.837  0.00  0.00    +0.000 A 
ATOM     23  C   UNL     1      48.735   9.425  11.508  0.00  0.00    +0.000 A 
ATOM     24  S   UNL     1      48.813  11.117  11.302  0.00  0.00    +0.000 S 
ATOM     25  C   UNL     1      48.879  11.375  12.983  0.00  0.00    +0.000 A 
ATOM     26  N   UNL     1      48.948  12.635  13.500  0.00  0.00    +0.000 NA
ATOM     27  C   UNL     1      48.958  12.677  14.789  0.00  0.00    +0.000 A 
ATOM     28  N   UNL     1      48.906  11.583  15.611  0.00  0.00    +0.000 N 
ATOM     29  C   UNL     1      48.906  10.294  15.137  0.00  0.00    +0.000 A 
ATOM     30  O   UNL     1      48.987   9.341  15.903  0.00  0.00    +0.000 OA
ATOM     31  C   UNL     1      48.862  10.189  13.692  0.00  0.00    +0.000 A 
ATOM     32  H   UNL     1      48.942  11.688  16.615  0.00  0.00    +0.000 HD
ENDBRANCH  19  22
ENDBRANCH   1  20
TORSDOF 7
ENDMDL
MODEL 8
REMARK VINA RESULT:    -6.825      2.430      4.266
REMARK INTER + INTRA:         -10.851
REMARK INTER:                 -10.019
REMARK INTRA:                  -0.833
REMARK UNBOUND:                -1.233
REMARK  Name = 
REMARK  7 active torsions:
REMARK  status: ('A' for Active; 'I' for Inactive)
REMARK    1  A    between atoms: C_2  and  C_20
REMARK    2  A    between atoms: N_3  and  C_4
REMARK    3  A    between atoms: C_4  and  C_5
REMARK    4  A    between atoms: C_8  and  C_9
REMARK    5  A    between atoms: C_9  and  N_10
REMARK    6  A    between atoms: N_10  and  C_11
REMARK    7  A    between atoms: C_11  and  C_12
REMARK                            x       y       z     vdW  Elec       q    Type
REMARK                         _______ _______ _______ _____ _____    ______ ____
ROOT
ATOM      1  C   UNL     1      47.321   4.897  14.851  0.00  0.00    +0.000 C 
ENDROOT
BRANCH   1   2
ATOM      2  C   UNL     1      46.341   4.783  13.712  0.00  0.00    +0.000 A 
ATOM      3  C   UNL     1      45.666   5.921  13.255  0.00  0.00    +0.000 A 
ATOM      4  C   UNL     1      44.758   5.834  12.195  0.00  0.00    +0.000 A 
ATOM      5  C   UNL     1      44.505   4.607  11.567  0.00  0.00    +0.000 A 
ATOM      6  C   UNL     1      45.167   3.464  12.037  0.00  0.00    +0.000 A 
ATOM      7  C   UNL     1      46.069   3.549  13.105  0.00  0.00    +0.000 A 
BRANCH   5   8
ATOM      8  C   UNL     1      43.511   4.512  10.430  0.00  0.00    +0.000 C 
BRANCH   8   9
ATOM      9  N   UNL     1      43.923   3.511   9.446  0.00  0.00    +0.000 NA
ATOM     10  H   UNL     1      43.094   3.188   8.946  0.00  0.00    +0.000 HD
BRANCH   9  11
ATOM     11  C   UNL     1      44.865   4.074   8.471  0.00  0.00    +0.000 C 
BRANCH  11  12
ATOM     12  C   UNL     1      45.789   3.021   7.902  0.00  0.00    +0.000 A 
ATOM     13  C   UNL     1      46.598   3.297   6.804  0.00  0.00    +0.000 A 
ATOM     14  C   UNL     1      47.431   2.299   6.319  0.00  0.00    +0.000 A 
ATOM     15  C   UNL     1      47.410   1.074   6.953  0.00  0.00    +0.000 A 
ATOM     16  N   UNL     1      46.619   0.820   8.014  0.00  0.00    +0.000 NA
ATOM     17  N   UNL     1      45.801   1.804   8.494  0.00  0.00    +0.000 NA
ENDBRANCH  11  12
ENDBRANCH   9  11
ENDBRANCH   8   9
ENDBRANCH   5   8
ENDBRANCH   1   2
BRANCH   1  20
ATOM     18  O   UNL     1      49.248   6.326  13.352  0.00  0.00    +0.000 OA
ATOM     19  C   UNL     1      48.638   6.895  14.251  0.00  0.00    +0.000 C 
ATOM     20  N   UNL     1      47.737   6.257  15.065  0.00  0.00    +0.000 N 
ATOM     21  H   UNL     1      47.127   6.815  15.650  0.00  0.00    +0.000 HD
BRANCH  19  22
ATOM     22  C   UNL     1      48.880   8.307  14.566  0.00  0.00    +0.000 A 
ATOM     23  C   UNL     1      49.501   8.665  15.754  0.00  0.00    +0.000 A 
ATOM     24  S   UNL     1      49.649  10.353  15.958  0.00  0.00    +0.000 S 
ATOM     25  C   UNL     1      48.934  10.654  14.443  0.00  0.00    +0.000 A 
ATOM     26  N   UNL     1      48.765  11.928  13.985  0.00  0.00    +0.000 NA
ATOM     27  C   UNL     1      48.243  12.000  12.808  0.00  0.00    +0.000 A 
ATOM     28  N   UNL     1      47.872  10.924  12.045  0.00  0.00    +0.000 N 
ATOM     29  C   UNL     1      47.959   9.629  12.493  0.00  0.00    +0.000 A 
ATOM     30  O   UNL     1      47.501   8.703  11.833  0.00  0.00    +0.000 OA
ATOM     31  C   UNL     1      48.570   9.487  13.799  0.00  0.00    +0.000 A 
ATOM     32  H   UNL     1      47.445  11.056  11.139  0.00  0.00    +0.000 HD
ENDBRANCH  19  22
ENDBRANCH   1  20
TORSDOF 7
ENDMDL
MODEL 9
REMARK VINA RESULT:    -6.777      2.931      8.439
REMARK INTER + INTRA:         -10.784
REMARK INTER:                  -9.283
REMARK INTRA:                  -1.500
REMARK UNBOUND:                -1.233
REMARK  Name = 
REMARK  7 active torsions:
REMARK  status: ('A' for Active; 'I' for Inactive)
REMARK    1  A    between atoms: C_2  and  C_20
REMARK    2  A    between atoms: N_3  and  C_4
REMARK    3  A    between atoms: C_4  and  C_5
REMARK    4  A    between atoms: C_8  and  C_9
REMARK    5  A    between atoms: C_9  and  N_10
REMARK    6  A    between atoms: N_10  and  C_11
REMARK    7  A    between atoms: C_11  and  C_12
REMARK                            x       y       z     vdW  Elec       q    Type
REMARK                         _______ _______ _______ _____ _____    ______ ____
ROOT
ATOM      1  C   UNL     1      47.840   7.766  12.169  0.00  0.00    +0.000 C 
ENDROOT
BRANCH   1   2
ATOM      2  C   UNL     1      48.353   7.902  13.579  0.00  0.00    +0.000 A 
ATOM      3  C   UNL     1      49.452   7.143  13.999  0.00  0.00    +0.000 A 
ATOM      4  C   UNL     1      49.944   7.260  15.301  0.00  0.00    +0.000 A 
ATOM      5  C   UNL     1      49.350   8.140  16.215  0.00  0.00    +0.000 A 
ATOM      6  C   UNL     1      48.237   8.886  15.801  0.00  0.00    +0.000 A 
ATOM      7  C   UNL     1      47.738   8.762  14.499  0.00  0.00    +0.000 A 
BRANCH   5   8
ATOM      8  C   UNL     1      49.875   8.254  17.630  0.00  0.00    +0.000 C 
BRANCH   8   9
ATOM      9  N   UNL     1      50.514   7.012  18.062  0.00  0.00    +0.000 NA
ATOM     10  H   UNL     1      51.320   7.247  18.643  0.00  0.00    +0.000 HD
BRANCH   9  11
ATOM     11  C   UNL     1      49.596   6.184  18.854  0.00  0.00    +0.000 C 
BRANCH  11  12
ATOM     12  C   UNL     1      49.060   5.012  18.060  0.00  0.00    +0.000 A 
ATOM     13  C   UNL     1      47.705   4.909  17.764  0.00  0.00    +0.000 A 
ATOM     14  C   UNL     1      47.262   3.816  17.031  0.00  0.00    +0.000 A 
ATOM     15  C   UNL     1      48.196   2.882  16.635  0.00  0.00    +0.000 A 
ATOM     16  N   UNL     1      49.506   2.994  16.932  0.00  0.00    +0.000 NA
ATOM     17  N   UNL     1      49.943   4.071  17.651  0.00  0.00    +0.000 NA
ENDBRANCH  11  12
ENDBRANCH   9  11
ENDBRANCH   8   9
ENDBRANCH   5   8
ENDBRANCH   1   2
BRANCH   1  20
ATOM     18  O   UNL     1      45.034   7.564  12.471  0.00  0.00    +0.000 OA
ATOM     19  C   UNL     1      45.675   6.584  12.107  0.00  0.00    +0.000 C 
ATOM     20  N   UNL     1      47.042   6.581  12.001  0.00  0.00    +0.000 N 
ATOM     21  H   UNL     1      47.493   5.816  11.512  0.00  0.00    +0.000 HD
BRANCH  19  22
ATOM     22  C   UNL     1      45.019   5.304  11.819  0.00  0.00    +0.000 A 
ATOM     23  C   UNL     1      44.295   4.647  12.804  0.00  0.00    +0.000 A 
ATOM     24  S   UNL     1      43.651   3.154  12.288  0.00  0.00    +0.000 S 
ATOM     25  C   UNL     1      44.276   3.363  10.719  0.00  0.00    +0.000 A 
ATOM     26  N   UNL     1      44.070   2.427   9.748  0.00  0.00    +0.000 NA
ATOM     27  C   UNL     1      44.573   2.737   8.602  0.00  0.00    +0.000 A 
ATOM     28  N   UNL     1      45.261   3.890   8.331  0.00  0.00    +0.000 N 
ATOM     29  C   UNL     1      45.552   4.827   9.292  0.00  0.00    +0.000 A 
ATOM     30  O   UNL     1      46.277   5.782   9.040  0.00  0.00    +0.000 OA
ATOM     31  C   UNL     1      44.983   4.544  10.594  0.00  0.00    +0.000 A 
ATOM     32  H   UNL     1      45.649   4.057   7.413  0.00  0.00    +0.000 HD
ENDBRANCH  19  22
ENDBRANCH   1  20
TORSDOF 7
ENDMDL
