MODEL 1
REMARK VINA RESULT:    -7.150      0.000      0.000
REMARK INTER + INTRA:          -9.952
REMARK INTER:                  -9.240
REMARK INTRA:                  -0.712
REMARK UNBOUND:                -0.712
REMARK  Name = 
REMARK  5 active torsions:
REMARK  status: ('A' for Active; 'I' for Inactive)
REMARK    1  A    between atoms: C_2  and  C_4
REMARK    2  A    between atoms: C_8  and  C_9
REMARK    3  A    between atoms: C_9  and  O_10
REMARK    4  A    between atoms: O_10  and  C_11
REMARK    5  A    between atoms: C_15  and  C_16
REMARK                            x       y       z     vdW  Elec       q    Type
REMARK                         _______ _______ _______ _____ _____    ______ ____
ROOT
ATOM      1  O   UNL     1      44.687   5.333  10.941  0.00  0.00    +0.000 OA
ENDROOT
BRANCH   1   2
ATOM      2  C   UNL     1      45.637   5.450  11.915  0.00  0.00    +0.000 A 
ATOM      3  C   UNL     1      45.535   4.561  12.979  0.00  0.00    +0.000 A 
ATOM      4  C   UNL     1      46.422   4.660  14.046  0.00  0.00    +0.000 A 
ATOM      5  C   UNL     1      47.442   5.616  14.025  0.00  0.00    +0.000 A 
ATOM      6  C   UNL     1      47.626   6.450  12.915  0.00  0.00    +0.000 A 
ATOM      7  C   UNL     1      46.681   6.374  11.881  0.00  0.00    +0.000 A 
BRANCH   6   8
ATOM      8  C   UNL     1      48.788   7.426  12.750  0.00  0.00    +0.000 C 
ATOM      9  C   UNL     1      49.297   7.944  14.114  0.00  0.00    +0.000 C 
ATOM     10  C   UNL     1      48.334   8.963  14.721  0.00  0.00    +0.000 C 
ATOM     11  N   UNL     1      48.140  10.111  13.835  0.00  0.00    +0.000 NA
ATOM     12  C   UNL     1      47.644   9.700  12.522  0.00  0.00    +0.000 C 
ATOM     13  C   UNL     1      48.534   8.648  11.851  0.00  0.00    +0.000 C 
ATOM     14  H   UNL     1      49.029  10.596  13.719  0.00  0.00    +0.000 HD
ENDBRANCH   6   8
ENDBRANCH   1   2
BRANCH   1  15
ATOM     15  C   UNL     1      45.190   5.464   9.609  0.00  0.00    +0.000 C 
BRANCH  15  20
ATOM     16  C   UNL     1      46.494   2.727   7.312  0.00  0.00    +0.000 A 
ATOM     17  C   UNL     1      45.945   1.579   7.899  0.00  0.00    +0.000 A 
ATOM     18  C   UNL     1      45.131   1.693   9.025  0.00  0.00    +0.000 A 
ATOM     19  C   UNL     1      44.877   2.948   9.579  0.00  0.00    +0.000 A 
ATOM     20  C   UNL     1      45.454   4.098   9.028  0.00  0.00    +0.000 A 
ATOM     21  C   UNL     1      46.246   3.981   7.879  0.00  0.00    +0.000 A 
BRANCH  16  23
ATOM     22  N   UNL     1      48.710   2.489   6.327  0.00  0.00    +0.000 N 
ATOM     23  C   UNL     1      47.370   2.661   6.112  0.00  0.00    +0.000 C 
ATOM     24  O   UNL     1      46.915   2.716   4.977  0.00  0.00    +0.000 OA
ATOM     25  H   UNL     1      49.276   2.350   5.500  0.00  0.00    +0.000 HD
ATOM     26  H   UNL     1      49.089   2.196   7.215  0.00  0.00    +0.000 HD
ENDBRANCH  16  23
ENDBRANCH  15  20
ENDBRANCH   1  15
TORSDOF 5
ENDMDL
MODEL 2
REMARK VINA RESULT:    -7.084      1.633      2.416
REMARK INTER + INTRA:          -9.866
REMARK INTER:                  -9.299
REMARK INTRA:                  -0.567
REMARK UNBOUND:                -0.712
REMARK  Name = 
REMARK  5 active torsions:
REMARK  status: ('A' for Active; 'I' for Inactive)
REMARK    1  A    between atoms: C_2  and  C_4
REMARK    2  A    between atoms: C_8  and  C_9
REMARK    3  A    between atoms: C_9  and  O_10
REMARK    4  A    between atoms: O_10  and  C_11
REMARK    5  A    between atoms: C_15  and  C_16
REMARK                            x       y       z     vdW  Elec       q    Type
REMARK                         _______ _______ _______ _____ _____    ______ ____
ROOT
ATOM      1  O   UNL     1      44.795   3.582  11.461  0.00  0.00    +0.000 OA
ENDROOT
BRANCH   1   2
ATOM      2  C   UNL     1      44.983   4.932  11.557  0.00  0.00    +0.000 A 
ATOM      3  C   UNL     1      43.835   5.714  11.514  0.00  0.00    +0.000 A 
ATOM      4  C   UNL     1      43.946   7.101  11.537  0.00  0.00    +0.000 A 
ATOM      5  C   UNL     1      45.202   7.703  11.652  0.00  0.00    +0.000 A 
ATOM      6  C   UNL     1      46.361   6.931  11.802  0.00  0.00    +0.000 A 
ATOM      7  C   UNL     1      46.230   5.536  11.714  0.00  0.00    +0.000 A 
BRANCH   6   8
ATOM      8  C   UNL     1      47.752   7.501  12.068  0.00  0.00    +0.000 C 
ATOM      9  C   UNL     1      48.608   6.541  12.925  0.00  0.00    +0.000 C 
ATOM     10  C   UNL     1      48.164   6.546  14.386  0.00  0.00    +0.000 C 
ATOM     11  N   UNL     1      48.252   7.886  14.968  0.00  0.00    +0.000 NA
ATOM     12  C   UNL     1      47.452   8.853  14.217  0.00  0.00    +0.000 C 
ATOM     13  C   UNL     1      47.808   8.890  12.726  0.00  0.00    +0.000 C 
ATOM     14  H   UNL     1      49.227   8.185  14.967  0.00  0.00    +0.000 HD
ENDBRANCH   6   8
ENDBRANCH   1   2
BRANCH   1  15
ATOM     15  C   UNL     1      44.100   3.167  10.283  0.00  0.00    +0.000 C 
BRANCH  15  20
ATOM     16  C   UNL     1      46.446   1.818   7.610  0.00  0.00    +0.000 A 
ATOM     17  C   UNL     1      46.856   2.996   6.973  0.00  0.00    +0.000 A 
ATOM     18  C   UNL     1      46.394   4.231   7.425  0.00  0.00    +0.000 A 
ATOM     19  C   UNL     1      45.507   4.293   8.500  0.00  0.00    +0.000 A 
ATOM     20  C   UNL     1      45.055   3.121   9.117  0.00  0.00    +0.000 A 
ATOM     21  C   UNL     1      45.547   1.885   8.679  0.00  0.00    +0.000 A 
BRANCH  16  23
ATOM     22  N   UNL     1      47.368   0.367   5.883  0.00  0.00    +0.000 N 
ATOM     23  C   UNL     1      46.907   0.475   7.167  0.00  0.00    +0.000 C 
ATOM     24  O   UNL     1      46.916  -0.486   7.923  0.00  0.00    +0.000 OA
ATOM     25  H   UNL     1      47.767  -0.529   5.631  0.00  0.00    +0.000 HD
ATOM     26  H   UNL     1      47.607   1.167   5.317  0.00  0.00    +0.000 HD
ENDBRANCH  16  23
ENDBRANCH  15  20
ENDBRANCH   1  15
TORSDOF 5
ENDMDL
MODEL 3
REMARK VINA RESULT:    -6.745      4.294      7.888
REMARK INTER + INTRA:          -9.428
REMARK INTER:                  -8.875
REMARK INTRA:                  -0.553
REMARK UNBOUND:                -0.712
REMARK  Name = 
REMARK  5 active torsions:
REMARK  status: ('A' for Active; 'I' for Inactive)
REMARK    1  A    between atoms: C_2  and  C_4
REMARK    2  A    between atoms: C_8  and  C_9
REMARK    3  A    between atoms: C_9  and  O_10
REMARK    4  A    between atoms: O_10  and  C_11
REMARK    5  A    between atoms: C_15  and  C_16
REMARK                            x       y       z     vdW  Elec       q    Type
REMARK                         _______ _______ _______ _____ _____    ______ ____
ROOT
ATOM      1  O   UNL     1      48.924   6.503  14.683  0.00  0.00    +0.000 OA
ENDROOT
BRANCH   1   2
ATOM      2  C   UNL     1      47.740   6.689  14.027  0.00  0.00    +0.000 A 
ATOM      3  C   UNL     1      47.495   7.975  13.560  0.00  0.00    +0.000 A 
ATOM      4  C   UNL     1      46.282   8.264  12.942  0.00  0.00    +0.000 A 
ATOM      5  C   UNL     1      45.335   7.254  12.750  0.00  0.00    +0.000 A 
ATOM      6  C   UNL     1      45.606   5.931  13.119  0.00  0.00    +0.000 A 
ATOM      7  C   UNL     1      46.809   5.677  13.796  0.00  0.00    +0.000 A 
BRANCH   6   8
ATOM      8  C   UNL     1      44.689   4.746  12.826  0.00  0.00    +0.000 C 
ATOM      9  C   UNL     1      45.099   4.014  11.527  0.00  0.00    +0.000 C 
ATOM     10  C   UNL     1      44.710   4.815  10.286  0.00  0.00    +0.000 C 
ATOM     11  N   UNL     1      43.268   5.063  10.239  0.00  0.00    +0.000 NA
ATOM     12  C   UNL     1      42.804   5.768  11.433  0.00  0.00    +0.000 C 
ATOM     13  C   UNL     1      43.184   5.051  12.734  0.00  0.00    +0.000 C 
ATOM     14  H   UNL     1      42.779   4.171  10.166  0.00  0.00    +0.000 HD
ENDBRANCH   6   8
ENDBRANCH   1   2
BRANCH   1  15
ATOM     15  C   UNL     1      48.942   7.005  16.022  0.00  0.00    +0.000 C 
BRANCH  15  20
ATOM     16  C   UNL     1      49.364   3.530  17.508  0.00  0.00    +0.000 A 
ATOM     17  C   UNL     1      48.778   3.688  18.770  0.00  0.00    +0.000 A 
ATOM     18  C   UNL     1      48.221   4.914  19.132  0.00  0.00    +0.000 A 
ATOM     19  C   UNL     1      48.265   5.990  18.244  0.00  0.00    +0.000 A 
ATOM     20  C   UNL     1      48.887   5.857  16.997  0.00  0.00    +0.000 A 
ATOM     21  C   UNL     1      49.416   4.614  16.627  0.00  0.00    +0.000 A 
BRANCH  16  23
ATOM     22  N   UNL     1      50.910   1.687  17.900  0.00  0.00    +0.000 N 
ATOM     23  C   UNL     1      49.973   2.244  17.073  0.00  0.00    +0.000 C 
ATOM     24  O   UNL     1      49.628   1.682  16.042  0.00  0.00    +0.000 OA
ATOM     25  H   UNL     1      51.241   0.768  17.636  0.00  0.00    +0.000 HD
ATOM     26  H   UNL     1      51.041   1.980  18.856  0.00  0.00    +0.000 HD
ENDBRANCH  16  23
ENDBRANCH  15  20
ENDBRANCH   1  15
TORSDOF 5
ENDMDL
MODEL 4
REMARK VINA RESULT:    -6.682      4.019      8.009
REMARK INTER + INTRA:          -9.346
REMARK INTER:                  -8.750
REMARK INTRA:                  -0.596
REMARK UNBOUND:                -0.712
REMARK  Name = 
REMARK  5 active torsions:
REMARK  status: ('A' for Active; 'I' for Inactive)
REMARK    1  A    between atoms: C_2  and  C_4
REMARK    2  A    between atoms: C_8  and  C_9
REMARK    3  A    between atoms: C_9  and  O_10
REMARK    4  A    between atoms: O_10  and  C_11
REMARK    5  A    between atoms: C_15  and  C_16
REMARK                            x       y       z     vdW  Elec       q    Type
REMARK                         _______ _______ _______ _____ _____    ______ ____
ROOT
ATOM      1  O   UNL     1      48.656   6.274  13.698  0.00  0.00    +0.000 OA
ENDROOT
BRANCH   1   2
ATOM      2  C   UNL     1      47.510   6.749  13.126  0.00  0.00    +0.000 A 
ATOM      3  C   UNL     1      47.301   8.120  13.220  0.00  0.00    +0.000 A 
ATOM      4  C   UNL     1      46.125   8.673  12.723  0.00  0.00    +0.000 A 
ATOM      5  C   UNL     1      45.181   7.861  12.088  0.00  0.00    +0.000 A 
ATOM      6  C   UNL     1      45.421   6.495  11.890  0.00  0.00    +0.000 A 
ATOM      7  C   UNL     1      46.584   5.950  12.455  0.00  0.00    +0.000 A 
BRANCH   6   8
ATOM      8  C   UNL     1      44.511   5.564  11.093  0.00  0.00    +0.000 C 
ATOM      9  C   UNL     1      43.093   5.491  11.704  0.00  0.00    +0.000 C 
ATOM     10  C   UNL     1      43.077   4.655  12.983  0.00  0.00    +0.000 C 
ATOM     11  N   UNL     1      43.544   3.290  12.737  0.00  0.00    +0.000 NA
ATOM     12  C   UNL     1      44.892   3.277  12.169  0.00  0.00    +0.000 C 
ATOM     13  C   UNL     1      45.010   4.122  10.895  0.00  0.00    +0.000 C 
ATOM     14  H   UNL     1      42.904   2.831  12.090  0.00  0.00    +0.000 HD
ENDBRANCH   6   8
ENDBRANCH   1   2
BRANCH   1  15
ATOM     15  C   UNL     1      49.268   7.174  14.625  0.00  0.00    +0.000 C 
BRANCH  15  20
ATOM     16  C   UNL     1      48.063   5.123  17.593  0.00  0.00    +0.000 A 
ATOM     17  C   UNL     1      48.129   6.062  18.631  0.00  0.00    +0.000 A 
ATOM     18  C   UNL     1      48.540   7.368  18.366  0.00  0.00    +0.000 A 
ATOM     19  C   UNL     1      48.903   7.735  17.070  0.00  0.00    +0.000 A 
ATOM     20  C   UNL     1      48.883   6.796  16.033  0.00  0.00    +0.000 A 
ATOM     21  C   UNL     1      48.441   5.494  16.298  0.00  0.00    +0.000 A 
BRANCH  16  23
ATOM     22  N   UNL     1      48.322   3.001  18.763  0.00  0.00    +0.000 N 
ATOM     23  C   UNL     1      47.634   3.718  17.821  0.00  0.00    +0.000 C 
ATOM     24  O   UNL     1      46.683   3.228  17.227  0.00  0.00    +0.000 OA
ATOM     25  H   UNL     1      47.955   2.082  18.973  0.00  0.00    +0.000 HD
ATOM     26  H   UNL     1      48.936   3.431  19.438  0.00  0.00    +0.000 HD
ENDBRANCH  16  23
ENDBRANCH  15  20
ENDBRANCH   1  15
TORSDOF 5
ENDMDL
MODEL 5
REMARK VINA RESULT:    -6.637      4.527      8.241
REMARK INTER + INTRA:          -9.289
REMARK INTER:                  -9.197
REMARK INTRA:                  -0.093
REMARK UNBOUND:                -0.712
REMARK  Name = 
REMARK  5 active torsions:
REMARK  status: ('A' for Active; 'I' for Inactive)
REMARK    1  A    between atoms: C_2  and  C_4
REMARK    2  A    between atoms: C_8  and  C_9
REMARK    3  A    between atoms: C_9  and  O_10
REMARK    4  A    between atoms: O_10  and  C_11
REMARK    5  A    between atoms: C_15  and  C_16
REMARK                            x       y       z     vdW  Elec       q    Type
REMARK                         _______ _______ _______ _____ _____    ______ ____
ROOT
ATOM      1  O   UNL     1      47.272   3.636  14.936  0.00  0.00    +0.000 OA
ENDROOT
BRANCH   1   2
ATOM      2  C   UNL     1      46.882   4.544  13.993  0.00  0.00    +0.000 A 
ATOM      3  C   UNL     1      47.778   5.574  13.729  0.00  0.00    +0.000 A 
ATOM      4  C   UNL     1      47.427   6.578  12.832  0.00  0.00    +0.000 A 
ATOM      5  C   UNL     1      46.201   6.525  12.163  0.00  0.00    +0.000 A 
ATOM      6  C   UNL     1      45.331   5.441  12.337  0.00  0.00    +0.000 A 
ATOM      7  C   UNL     1      45.679   4.474  13.293  0.00  0.00    +0.000 A 
BRANCH   6   8
ATOM      8  C   UNL     1      44.039   5.235  11.550  0.00  0.00    +0.000 C 
ATOM      9  C   UNL     1      43.039   4.342  12.319  0.00  0.00    +0.000 C 
ATOM     10  C   UNL     1      43.464   2.875  12.294  0.00  0.00    +0.000 C 
ATOM     11  N   UNL     1      43.572   2.371  10.925  0.00  0.00    +0.000 NA
ATOM     12  C   UNL     1      44.516   3.161  10.134  0.00  0.00    +0.000 C 
ATOM     13  C   UNL     1      44.186   4.658  10.132  0.00  0.00    +0.000 C 
ATOM     14  H   UNL     1      42.654   2.407  10.483  0.00  0.00    +0.000 HD
ENDBRANCH   6   8
ENDBRANCH   1   2
BRANCH   1  15
ATOM     15  C   UNL     1      47.096   4.075  16.285  0.00  0.00    +0.000 C 
BRANCH  15  20
ATOM     16  C   UNL     1      50.546   3.209  17.633  0.00  0.00    +0.000 A 
ATOM     17  C   UNL     1      50.935   4.423  18.215  0.00  0.00    +0.000 A 
ATOM     18  C   UNL     1      50.070   5.516  18.195  0.00  0.00    +0.000 A 
ATOM     19  C   UNL     1      48.824   5.407  17.578  0.00  0.00    +0.000 A 
ATOM     20  C   UNL     1      48.440   4.214  16.955  0.00  0.00    +0.000 A 
ATOM     21  C   UNL     1      49.300   3.110  17.005  0.00  0.00    +0.000 A 
BRANCH  16  23
ATOM     22  N   UNL     1      52.517   2.037  18.457  0.00  0.00    +0.000 N 
ATOM     23  C   UNL     1      51.431   2.014  17.626  0.00  0.00    +0.000 C 
ATOM     24  O   UNL     1      51.183   1.032  16.940  0.00  0.00    +0.000 OA
ATOM     25  H   UNL     1      53.052   1.180  18.510  0.00  0.00    +0.000 HD
ATOM     26  H   UNL     1      52.620   2.706  19.206  0.00  0.00    +0.000 HD
ENDBRANCH  16  23
ENDBRANCH  15  20
ENDBRANCH   1  15
TORSDOF 5
ENDMDL
MODEL 6
REMARK VINA RESULT:    -6.489      5.296      8.319
REMARK INTER + INTRA:          -9.098
REMARK INTER:                  -8.459
REMARK INTRA:                  -0.639
REMARK UNBOUND:                -0.712
REMARK  Name = 
REMARK  5 active torsions:
REMARK  status: ('A' for Active; 'I' for Inactive)
REMARK    1  A    between atoms: C_2  and  C_4
REMARK    2  A    between atoms: C_8  and  C_9
REMARK    3  A    between atoms: C_9  and  O_10
REMARK    4  A    between atoms: O_10  and  C_11
REMARK    5  A    between atoms: C_15  and  C_16
REMARK                            x       y       z     vdW  Elec       q    Type
REMARK                         _______ _______ _______ _____ _____    ______ ____
ROOT
ATOM      1  O   UNL     1      47.537   4.510  16.467  0.00  0.00    +0.000 OA
ENDROOT
BRANCH   1   2
ATOM      2  C   UNL     1      47.355   5.014  15.210  0.00  0.00    +0.000 A 
ATOM      3  C   UNL     1      48.196   6.059  14.842  0.00  0.00    +0.000 A 
ATOM      4  C   UNL     1      48.029   6.673  13.605  0.00  0.00    +0.000 A 
ATOM      5  C   UNL     1      47.055   6.210  12.717  0.00  0.00    +0.000 A 
ATOM      6  C   UNL     1      46.270   5.092  13.026  0.00  0.00    +0.000 A 
ATOM      7  C   UNL     1      46.413   4.530  14.304  0.00  0.00    +0.000 A 
BRANCH   6   8
ATOM      8  C   UNL     1      45.280   4.438  12.065  0.00  0.00    +0.000 C 
ATOM      9  C   UNL     1      44.828   5.417  10.958  0.00  0.00    +0.000 C 
ATOM     10  C   UNL     1      43.847   6.458  11.495  0.00  0.00    +0.000 C 
ATOM     11  N   UNL     1      42.657   5.828  12.067  0.00  0.00    +0.000 NA
ATOM     12  C   UNL     1      43.004   4.893  13.137  0.00  0.00    +0.000 C 
ATOM     13  C   UNL     1      44.015   3.829  12.695  0.00  0.00    +0.000 C 
ATOM     14  H   UNL     1      42.161   5.325  11.332  0.00  0.00    +0.000 HD
ENDBRANCH   6   8
ENDBRANCH   1   2
BRANCH   1  15
ATOM     15  C   UNL     1      48.117   3.204  16.500  0.00  0.00    +0.000 C 
BRANCH  15  20
ATOM     16  C   UNL     1      51.576   2.167  17.692  0.00  0.00    +0.000 A 
ATOM     17  C   UNL     1      52.031   3.346  18.299  0.00  0.00    +0.000 A 
ATOM     18  C   UNL     1      51.208   4.470  18.345  0.00  0.00    +0.000 A 
ATOM     19  C   UNL     1      49.938   4.428  17.770  0.00  0.00    +0.000 A 
ATOM     20  C   UNL     1      49.488   3.271  17.124  0.00  0.00    +0.000 A 
ATOM     21  C   UNL     1      50.307   2.135  17.108  0.00  0.00    +0.000 A 
BRANCH  16  23
ATOM     22  N   UNL     1      52.062  -0.107  18.420  0.00  0.00    +0.000 N 
ATOM     23  C   UNL     1      52.414   0.941  17.615  0.00  0.00    +0.000 C 
ATOM     24  O   UNL     1      53.355   0.851  16.838  0.00  0.00    +0.000 OA
ATOM     25  H   UNL     1      52.584  -0.964  18.284  0.00  0.00    +0.000 HD
ATOM     26  H   UNL     1      51.168  -0.166  18.883  0.00  0.00    +0.000 HD
ENDBRANCH  16  23
ENDBRANCH  15  20
ENDBRANCH   1  15
TORSDOF 5
ENDMDL
MODEL 7
REMARK VINA RESULT:    -6.452      4.427      6.015
REMARK INTER + INTRA:          -9.050
REMARK INTER:                  -8.555
REMARK INTRA:                  -0.495
REMARK UNBOUND:                -0.712
REMARK  Name = 
REMARK  5 active torsions:
REMARK  status: ('A' for Active; 'I' for Inactive)
REMARK    1  A    between atoms: C_2  and  C_4
REMARK    2  A    between atoms: C_8  and  C_9
REMARK    3  A    between atoms: C_9  and  O_10
REMARK    4  A    between atoms: O_10  and  C_11
REMARK    5  A    between atoms: C_15  and  C_16
REMARK                            x       y       z     vdW  Elec       q    Type
REMARK                         _______ _______ _______ _____ _____    ______ ____
ROOT
ATOM      1  O   UNL     1      46.603   4.268  15.194  0.00  0.00    +0.000 OA
ENDROOT
BRANCH   1   2
ATOM      2  C   UNL     1      47.575   4.025  16.122  0.00  0.00    +0.000 A 
ATOM      3  C   UNL     1      48.199   2.785  16.045  0.00  0.00    +0.000 A 
ATOM      4  C   UNL     1      49.151   2.433  16.996  0.00  0.00    +0.000 A 
ATOM      5  C   UNL     1      49.514   3.341  17.995  0.00  0.00    +0.000 A 
ATOM      6  C   UNL     1      48.974   4.633  18.027  0.00  0.00    +0.000 A 
ATOM      7  C   UNL     1      47.971   4.942  17.095  0.00  0.00    +0.000 A 
BRANCH   6   8
ATOM      8  C   UNL     1      49.410   5.729  18.996  0.00  0.00    +0.000 C 
ATOM      9  C   UNL     1      49.965   5.140  20.312  0.00  0.00    +0.000 C 
ATOM     10  C   UNL     1      48.846   4.595  21.198  0.00  0.00    +0.000 C 
ATOM     11  N   UNL     1      47.874   5.636  21.534  0.00  0.00    +0.000 NA
ATOM     12  C   UNL     1      47.291   6.235  20.333  0.00  0.00    +0.000 C 
ATOM     13  C   UNL     1      48.348   6.779  19.365  0.00  0.00    +0.000 C 
ATOM     14  H   UNL     1      48.338   6.362  22.078  0.00  0.00    +0.000 HD
ENDBRANCH   6   8
ENDBRANCH   1   2
BRANCH   1  15
ATOM     15  C   UNL     1      47.036   5.051  14.078  0.00  0.00    +0.000 C 
BRANCH  15  20
ATOM     16  C   UNL     1      44.381   4.037  11.550  0.00  0.00    +0.000 A 
ATOM     17  C   UNL     1      43.883   5.283  11.148  0.00  0.00    +0.000 A 
ATOM     18  C   UNL     1      44.423   6.454  11.676  0.00  0.00    +0.000 A 
ATOM     19  C   UNL     1      45.449   6.386  12.620  0.00  0.00    +0.000 A 
ATOM     20  C   UNL     1      45.926   5.147  13.062  0.00  0.00    +0.000 A 
ATOM     21  C   UNL     1      45.400   3.974  12.506  0.00  0.00    +0.000 A 
BRANCH  16  23
ATOM     22  N   UNL     1      44.491   2.197   9.956  0.00  0.00    +0.000 N 
ATOM     23  C   UNL     1      43.839   2.757  11.020  0.00  0.00    +0.000 C 
ATOM     24  O   UNL     1      42.876   2.203  11.532  0.00  0.00    +0.000 OA
ATOM     25  H   UNL     1      44.167   1.281   9.671  0.00  0.00    +0.000 HD
ATOM     26  H   UNL     1      45.415   2.483   9.667  0.00  0.00    +0.000 HD
ENDBRANCH  16  23
ENDBRANCH  15  20
ENDBRANCH   1  15
TORSDOF 5
ENDMDL
MODEL 8
REMARK VINA RESULT:    -6.242      4.470      8.432
REMARK INTER + INTRA:          -8.779
REMARK INTER:                  -8.133
REMARK INTRA:                  -0.645
REMARK UNBOUND:                -0.712
REMARK  Name = 
REMARK  5 active torsions:
REMARK  status: ('A' for Active; 'I' for Inactive)
REMARK    1  A    between atoms: C_2  and  C_4
REMARK    2  A    between atoms: C_8  and  C_9
REMARK    3  A    between atoms: C_9  and  O_10
REMARK    4  A    between atoms: O_10  and  C_11
REMARK    5  A    between atoms: C_15  and  C_16
REMARK                            x       y       z     vdW  Elec       q    Type
REMARK                         _______ _______ _______ _____ _____    ______ ____
ROOT
ATOM      1  O   UNL     1      48.511   5.971  14.222  0.00  0.00    +0.000 OA
ENDROOT
BRANCH   1   2
ATOM      2  C   UNL     1      47.474   6.473  13.489  0.00  0.00    +0.000 A 
ATOM      3  C   UNL     1      47.195   7.823  13.668  0.00  0.00    +0.000 A 
ATOM      4  C   UNL     1      46.110   8.394  13.010  0.00  0.00    +0.000 A 
ATOM      5  C   UNL     1      45.336   7.627  12.135  0.00  0.00    +0.000 A 
ATOM      6  C   UNL     1      45.665   6.293  11.860  0.00  0.00    +0.000 A 
ATOM      7  C   UNL     1      46.724   5.723  12.584  0.00  0.00    +0.000 A 
BRANCH   6   8
ATOM      8  C   UNL     1      44.960   5.424  10.822  0.00  0.00    +0.000 C 
ATOM      9  C   UNL     1      43.435   5.675  10.809  0.00  0.00    +0.000 C 
ATOM     10  C   UNL     1      42.753   5.041  12.021  0.00  0.00    +0.000 C 
ATOM     11  N   UNL     1      42.982   3.597  12.071  0.00  0.00    +0.000 NA
ATOM     12  C   UNL     1      44.410   3.279  12.100  0.00  0.00    +0.000 C 
ATOM     13  C   UNL     1      45.184   3.906  10.934  0.00  0.00    +0.000 C 
ATOM     14  H   UNL     1      42.560   3.164  11.250  0.00  0.00    +0.000 HD
ENDBRANCH   6   8
ENDBRANCH   1   2
BRANCH   1  15
ATOM     15  C   UNL     1      48.572   6.456  15.566  0.00  0.00    +0.000 C 
BRANCH  15  20
ATOM     16  C   UNL     1      48.729   4.354  18.732  0.00  0.00    +0.000 A 
ATOM     17  C   UNL     1      48.037   3.200  18.340  0.00  0.00    +0.000 A 
ATOM     18  C   UNL     1      47.540   3.091  17.042  0.00  0.00    +0.000 A 
ATOM     19  C   UNL     1      47.717   4.138  16.138  0.00  0.00    +0.000 A 
ATOM     20  C   UNL     1      48.368   5.313  16.529  0.00  0.00    +0.000 A 
ATOM     21  C   UNL     1      48.891   5.405  17.825  0.00  0.00    +0.000 A 
BRANCH  16  23
ATOM     22  N   UNL     1      50.638   4.559  20.233  0.00  0.00    +0.000 N 
ATOM     23  C   UNL     1      49.276   4.521  20.104  0.00  0.00    +0.000 C 
ATOM     24  O   UNL     1      48.548   4.661  21.077  0.00  0.00    +0.000 OA
ATOM     25  H   UNL     1      50.989   4.770  21.158  0.00  0.00    +0.000 HD
ATOM     26  H   UNL     1      51.258   4.695  19.449  0.00  0.00    +0.000 HD
ENDBRANCH  16  23
ENDBRANCH  15  20
ENDBRANCH   1  15
TORSDOF 5
ENDMDL
MODEL 9
REMARK VINA RESULT:    -6.076      3.225      5.027
REMARK INTER + INTRA:          -8.564
REMARK INTER:                  -7.897
REMARK INTRA:                  -0.667
REMARK UNBOUND:                -0.712
REMARK  Name = 
REMARK  5 active torsions:
REMARK  status: ('A' for Active; 'I' for Inactive)
REMARK    1  A    between atoms: C_2  and  C_4
REMARK    2  A    between atoms: C_8  and  C_9
REMARK    3  A    between atoms: C_9  and  O_10
REMARK    4  A    between atoms: O_10  and  C_11
REMARK    5  A    between atoms: C_15  and  C_16
REMARK                            x       y       z     vdW  Elec       q    Type
REMARK                         _______ _______ _______ _____ _____    ______ ____
ROOT
ATOM      1  O   UNL     1      47.990   6.555  12.682  0.00  0.00    +0.000 OA
ENDROOT
BRANCH   1   2
ATOM      2  C   UNL     1      48.414   6.695  13.973  0.00  0.00    +0.000 A 
ATOM      3  C   UNL     1      49.225   7.793  14.236  0.00  0.00    +0.000 A 
ATOM      4  C   UNL     1      49.755   7.968  15.510  0.00  0.00    +0.000 A 
ATOM      5  C   UNL     1      49.434   7.071  16.534  0.00  0.00    +0.000 A 
ATOM      6  C   UNL     1      48.535   6.019  16.315  0.00  0.00    +0.000 A 
ATOM      7  C   UNL     1      48.064   5.827  15.007  0.00  0.00    +0.000 A 
BRANCH   6   8
ATOM      8  C   UNL     1      48.025   5.078  17.403  0.00  0.00    +0.000 C 
ATOM      9  C   UNL     1      49.166   4.613  18.337  0.00  0.00    +0.000 C 
ATOM     10  C   UNL     1      50.062   3.581  17.655  0.00  0.00    +0.000 C 
ATOM     11  N   UNL     1      49.301   2.403  17.236  0.00  0.00    +0.000 NA
ATOM     12  C   UNL     1      48.206   2.762  16.335  0.00  0.00    +0.000 C 
ATOM     13  C   UNL     1      47.272   3.824  16.926  0.00  0.00    +0.000 C 
ATOM     14  H   UNL     1      48.918   1.944  18.062  0.00  0.00    +0.000 HD
ENDBRANCH   6   8
ENDBRANCH   1   2
BRANCH   1  15
ATOM     15  C   UNL     1      46.787   7.265  12.377  0.00  0.00    +0.000 C 
BRANCH  15  20
ATOM     16  C   UNL     1      44.772   4.786  10.314  0.00  0.00    +0.000 A 
ATOM     17  C   UNL     1      43.709   4.495  11.179  0.00  0.00    +0.000 A 
ATOM     18  C   UNL     1      43.630   5.121  12.422  0.00  0.00    +0.000 A 
ATOM     19  C   UNL     1      44.619   6.024  12.813  0.00  0.00    +0.000 A 
ATOM     20  C   UNL     1      45.709   6.290  11.975  0.00  0.00    +0.000 A 
ATOM     21  C   UNL     1      45.767   5.682  10.715  0.00  0.00    +0.000 A 
BRANCH  16  23
ATOM     22  N   UNL     1      44.202   2.989   8.769  0.00  0.00    +0.000 N 
ATOM     23  C   UNL     1      44.904   4.144   8.978  0.00  0.00    +0.000 C 
ATOM     24  O   UNL     1      45.577   4.643   8.087  0.00  0.00    +0.000 OA
ATOM     25  H   UNL     1      44.228   2.621   7.827  0.00  0.00    +0.000 HD
ATOM     26  H   UNL     1      43.456   2.683   9.376  0.00  0.00    +0.000 HD
ENDBRANCH  16  23
ENDBRANCH  15  20
ENDBRANCH   1  15
TORSDOF 5
ENDMDL
