MODEL 1
REMARK VINA RESULT:    -8.018      0.000      0.000
REMARK INTER + INTRA:         -12.235
REMARK INTER:                 -11.299
REMARK INTRA:                  -0.936
REMARK UNBOUND:                -0.936
REMARK  Name = 
REMARK  7 active torsions:
REMARK  status: ('A' for Active; 'I' for Inactive)
REMARK    1  A    between atoms: C_2  and  C_20
REMARK    2  A    between atoms: N_3  and  C_4
REMARK    3  A    between atoms: C_4  and  C_5
REMARK    4  A    between atoms: C_8  and  C_9
REMARK    5  A    between atoms: C_9  and  O_10
REMARK    6  A    between atoms: O_10  and  C_11
REMARK    7  A    between atoms: C_11  and  C_12
REMARK                            x       y       z     vdW  Elec       q    Type
REMARK                         _______ _______ _______ _____ _____    ______ ____
ROOT
ATOM      1  C   UNL     1      46.824   6.039  13.037  0.00  0.00    +0.000 A 
ATOM      2  C   UNL     1      45.929   5.085  13.541  0.00  0.00    +0.000 A 
ATOM      3  C   UNL     1      44.848   4.641  12.769  0.00  0.00    +0.000 A 
ATOM      4  C   UNL     1      44.643   5.132  11.471  0.00  0.00    +0.000 A 
ATOM      5  C   UNL     1      45.554   6.065  10.960  0.00  0.00    +0.000 A 
ATOM      6  C   UNL     1      46.635   6.508  11.731  0.00  0.00    +0.000 A 
ENDROOT
BRANCH   1   7
ATOM      7  C   UNL     1      47.943   6.582  13.889  0.00  0.00    +0.000 C 
BRANCH   7  10
ATOM      8  O   UNL     1      50.108   6.465  15.584  0.00  0.00    +0.000 OA
ATOM      9  C   UNL     1      49.025   6.095  16.043  0.00  0.00    +0.000 C 
ATOM     10  N   UNL     1      47.891   6.109  15.250  0.00  0.00    +0.000 N 
ATOM     11  H   UNL     1      47.019   5.766  15.629  0.00  0.00    +0.000 HD
BRANCH   9  12
ATOM     12  C   UNL     1      48.850   5.629  17.420  0.00  0.00    +0.000 A 
ATOM     13  S   UNL     1      49.215   3.980  17.825  0.00  0.00    +0.000 S 
ATOM     14  C   UNL     1      48.754   4.171  19.458  0.00  0.00    +0.000 A 
ATOM     15  C   UNL     1      48.338   5.450  19.704  0.00  0.00    +0.000 A 
ATOM     16  N   UNL     1      47.907   5.862  20.924  0.00  0.00    +0.000 NA
ATOM     17  C   UNL     1      47.544   7.178  20.914  0.00  0.00    +0.000 A 
ATOM     18  C   UNL     1      47.588   8.070  19.823  0.00  0.00    +0.000 A 
ATOM     19  C   UNL     1      48.031   7.660  18.556  0.00  0.00    +0.000 A 
ATOM     20  C   UNL     1      48.400   6.307  18.544  0.00  0.00    +0.000 A 
ENDBRANCH   9  12
ENDBRANCH   7  10
ENDBRANCH   1   7
BRANCH   4  21
ATOM     21  C   UNL     1      43.475   4.661  10.638  0.00  0.00    +0.000 C 
BRANCH  21  22
ATOM     22  O   UNL     1      43.953   4.196   9.379  0.00  0.00    +0.000 OA
BRANCH  22  23
ATOM     23  C   UNL     1      44.468   2.866   9.457  0.00  0.00    +0.000 C 
BRANCH  23  24
ATOM     24  C   UNL     1      45.523   2.650   8.397  0.00  0.00    +0.000 A 
ATOM     25  C   UNL     1      45.948   3.707   7.576  0.00  0.00    +0.000 A 
ATOM     26  C   UNL     1      46.956   3.516   6.630  0.00  0.00    +0.000 A 
ATOM     27  C   UNL     1      47.561   2.269   6.499  0.00  0.00    +0.000 A 
ATOM     28  C   UNL     1      47.155   1.211   7.311  0.00  0.00    +0.000 A 
ATOM     29  C   UNL     1      46.144   1.401   8.257  0.00  0.00    +0.000 A 
ENDBRANCH  23  24
ENDBRANCH  22  23
ENDBRANCH  21  22
ENDBRANCH   4  21
TORSDOF 7
ENDMDL
MODEL 2
REMARK VINA RESULT:    -7.960      1.710      2.346
REMARK INTER + INTRA:         -12.153
REMARK INTER:                 -11.151
REMARK INTRA:                  -1.002
REMARK UNBOUND:                -0.936
REMARK  Name = 
REMARK  7 active torsions:
REMARK  status: ('A' for Active; 'I' for Inactive)
REMARK    1  A    between atoms: C_2  and  C_20
REMARK    2  A    between atoms: N_3  and  C_4
REMARK    3  A    between atoms: C_4  and  C_5
REMARK    4  A    between atoms: C_8  and  C_9
REMARK    5  A    between atoms: C_9  and  O_10
REMARK    6  A    between atoms: O_10  and  C_11
REMARK    7  A    between atoms: C_11  and  C_12
REMARK                            x       y       z     vdW  Elec       q    Type
REMARK                         _______ _______ _______ _____ _____    ______ ____
ROOT
ATOM      1  C   UNL     1      46.142   6.435  12.436  0.00  0.00    +0.000 A 
ATOM      2  C   UNL     1      45.584   5.409  13.213  0.00  0.00    +0.000 A 
ATOM      3  C   UNL     1      44.862   4.370  12.613  0.00  0.00    +0.000 A 
ATOM      4  C   UNL     1      44.690   4.326  11.221  0.00  0.00    +0.000 A 
ATOM      5  C   UNL     1      45.270   5.337  10.445  0.00  0.00    +0.000 A 
ATOM      6  C   UNL     1      45.994   6.375  11.046  0.00  0.00    +0.000 A 
ENDROOT
BRANCH   1   7
ATOM      7  C   UNL     1      46.852   7.599  13.080  0.00  0.00    +0.000 C 
BRANCH   7  10
ATOM      8  O   UNL     1      49.393   6.669  13.578  0.00  0.00    +0.000 OA
ATOM      9  C   UNL     1      48.664   6.836  14.557  0.00  0.00    +0.000 C 
ATOM     10  N   UNL     1      47.367   7.287  14.390  0.00  0.00    +0.000 N 
ATOM     11  H   UNL     1      46.768   7.382  15.199  0.00  0.00    +0.000 HD
BRANCH   9  12
ATOM     12  C   UNL     1      49.093   6.585  15.934  0.00  0.00    +0.000 A 
ATOM     13  S   UNL     1      50.150   7.713  16.726  0.00  0.00    +0.000 S 
ATOM     14  C   UNL     1      50.232   6.788  18.159  0.00  0.00    +0.000 A 
ATOM     15  C   UNL     1      49.475   5.654  18.055  0.00  0.00    +0.000 A 
ATOM     16  N   UNL     1      49.377   4.740  19.054  0.00  0.00    +0.000 NA
ATOM     17  C   UNL     1      48.568   3.697  18.708  0.00  0.00    +0.000 A 
ATOM     18  C   UNL     1      47.876   3.517  17.492  0.00  0.00    +0.000 A 
ATOM     19  C   UNL     1      47.965   4.453  16.450  0.00  0.00    +0.000 A 
ATOM     20  C   UNL     1      48.801   5.528  16.784  0.00  0.00    +0.000 A 
ENDBRANCH   9  12
ENDBRANCH   7  10
ENDBRANCH   1   7
BRANCH   4  21
ATOM     21  C   UNL     1      43.906   3.211  10.571  0.00  0.00    +0.000 C 
BRANCH  21  22
ATOM     22  O   UNL     1      44.377   3.021   9.240  0.00  0.00    +0.000 OA
BRANCH  22  23
ATOM     23  C   UNL     1      45.378   2.006   9.163  0.00  0.00    +0.000 C 
BRANCH  23  24
ATOM     24  C   UNL     1      46.159   2.139   7.876  0.00  0.00    +0.000 A 
ATOM     25  C   UNL     1      46.927   1.072   7.384  0.00  0.00    +0.000 A 
ATOM     26  C   UNL     1      47.609   1.181   6.172  0.00  0.00    +0.000 A 
ATOM     27  C   UNL     1      47.524   2.355   5.428  0.00  0.00    +0.000 A 
ATOM     28  C   UNL     1      46.760   3.422   5.899  0.00  0.00    +0.000 A 
ATOM     29  C   UNL     1      46.079   3.313   7.114  0.00  0.00    +0.000 A 
ENDBRANCH  23  24
ENDBRANCH  22  23
ENDBRANCH  21  22
ENDBRANCH   4  21
TORSDOF 7
ENDMDL
MODEL 3
REMARK VINA RESULT:    -7.375      3.372      5.106
REMARK INTER + INTRA:         -11.329
REMARK INTER:                 -10.268
REMARK INTRA:                  -1.061
REMARK UNBOUND:                -0.936
REMARK  Name = 
REMARK  7 active torsions:
REMARK  status: ('A' for Active; 'I' for Inactive)
REMARK    1  A    between atoms: C_2  and  C_20
REMARK    2  A    between atoms: N_3  and  C_4
REMARK    3  A    between atoms: C_4  and  C_5
REMARK    4  A    between atoms: C_8  and  C_9
REMARK    5  A    between atoms: C_9  and  O_10
REMARK    6  A    between atoms: O_10  and  C_11
REMARK    7  A    between atoms: C_11  and  C_12
REMARK                            x       y       z     vdW  Elec       q    Type
REMARK                         _______ _______ _______ _____ _____    ______ ____
ROOT
ATOM      1  C   UNL     1      46.543   5.124  13.589  0.00  0.00    +0.000 A 
ATOM      2  C   UNL     1      46.555   3.755  13.287  0.00  0.00    +0.000 A 
ATOM      3  C   UNL     1      45.529   3.181  12.524  0.00  0.00    +0.000 A 
ATOM      4  C   UNL     1      44.474   3.966  12.036  0.00  0.00    +0.000 A 
ATOM      5  C   UNL     1      44.477   5.338  12.316  0.00  0.00    +0.000 A 
ATOM      6  C   UNL     1      45.504   5.911  13.077  0.00  0.00    +0.000 A 
ENDROOT
BRANCH   1   7
ATOM      7  C   UNL     1      47.599   5.734  14.474  0.00  0.00    +0.000 C 
BRANCH   7  10
ATOM      8  O   UNL     1      49.206   6.829  12.528  0.00  0.00    +0.000 OA
ATOM      9  C   UNL     1      48.585   7.619  13.241  0.00  0.00    +0.000 C 
ATOM     10  N   UNL     1      47.767   7.149  14.253  0.00  0.00    +0.000 N 
ATOM     11  H   UNL     1      47.294   7.810  14.854  0.00  0.00    +0.000 HD
BRANCH   9  12
ATOM     12  C   UNL     1      48.653   9.074  13.083  0.00  0.00    +0.000 A 
ATOM     13  S   UNL     1      50.086   9.927  13.568  0.00  0.00    +0.000 S 
ATOM     14  C   UNL     1      49.441  11.453  13.154  0.00  0.00    +0.000 A 
ATOM     15  C   UNL     1      48.174  11.331  12.654  0.00  0.00    +0.000 A 
ATOM     16  N   UNL     1      47.433  12.398  12.259  0.00  0.00    +0.000 NA
ATOM     17  C   UNL     1      46.205  12.019  11.801  0.00  0.00    +0.000 A 
ATOM     18  C   UNL     1      45.693  10.708  11.707  0.00  0.00    +0.000 A 
ATOM     19  C   UNL     1      46.447   9.594  12.110  0.00  0.00    +0.000 A 
ATOM     20  C   UNL     1      47.710   9.965  12.593  0.00  0.00    +0.000 A 
ENDBRANCH   9  12
ENDBRANCH   7  10
ENDBRANCH   1   7
BRANCH   4  21
ATOM     21  C   UNL     1      43.362   3.350  11.220  0.00  0.00    +0.000 C 
BRANCH  21  22
ATOM     22  O   UNL     1      43.924   2.666  10.104  0.00  0.00    +0.000 OA
BRANCH  22  23
ATOM     23  C   UNL     1      44.428   3.567   9.118  0.00  0.00    +0.000 C 
BRANCH  23  24
ATOM     24  C   UNL     1      45.530   2.908   8.322  0.00  0.00    +0.000 A 
ATOM     25  C   UNL     1      45.824   1.546   8.487  0.00  0.00    +0.000 A 
ATOM     26  C   UNL     1      46.811   0.929   7.716  0.00  0.00    +0.000 A 
ATOM     27  C   UNL     1      47.509   1.663   6.761  0.00  0.00    +0.000 A 
ATOM     28  C   UNL     1      47.224   3.016   6.580  0.00  0.00    +0.000 A 
ATOM     29  C   UNL     1      46.238   3.634   7.353  0.00  0.00    +0.000 A 
ENDBRANCH  23  24
ENDBRANCH  22  23
ENDBRANCH  21  22
ENDBRANCH   4  21
TORSDOF 7
ENDMDL
MODEL 4
REMARK VINA RESULT:    -7.294      1.494      2.084
REMARK INTER + INTRA:         -11.215
REMARK INTER:                 -10.482
REMARK INTRA:                  -0.734
REMARK UNBOUND:                -0.936
REMARK  Name = 
REMARK  7 active torsions:
REMARK  status: ('A' for Active; 'I' for Inactive)
REMARK    1  A    between atoms: C_2  and  C_20
REMARK    2  A    between atoms: N_3  and  C_4
REMARK    3  A    between atoms: C_4  and  C_5
REMARK    4  A    between atoms: C_8  and  C_9
REMARK    5  A    between atoms: C_9  and  O_10
REMARK    6  A    between atoms: O_10  and  C_11
REMARK    7  A    between atoms: C_11  and  C_12
REMARK                            x       y       z     vdW  Elec       q    Type
REMARK                         _______ _______ _______ _____ _____    ______ ____
ROOT
ATOM      1  C   UNL     1      46.689   6.068  13.005  0.00  0.00    +0.000 A 
ATOM      2  C   UNL     1      45.966   5.042  13.630  0.00  0.00    +0.000 A 
ATOM      3  C   UNL     1      44.857   4.463  13.000  0.00  0.00    +0.000 A 
ATOM      4  C   UNL     1      44.452   4.889  11.726  0.00  0.00    +0.000 A 
ATOM      5  C   UNL     1      45.191   5.895  11.093  0.00  0.00    +0.000 A 
ATOM      6  C   UNL     1      46.302   6.472  11.722  0.00  0.00    +0.000 A 
ENDROOT
BRANCH   1   7
ATOM      7  C   UNL     1      47.836   6.750  13.707  0.00  0.00    +0.000 C 
BRANCH   7  10
ATOM      8  O   UNL     1      50.212   6.912  15.084  0.00  0.00    +0.000 OA
ATOM      9  C   UNL     1      49.262   6.400  15.679  0.00  0.00    +0.000 C 
ATOM     10  N   UNL     1      48.036   6.268  15.051  0.00  0.00    +0.000 N 
ATOM     11  H   UNL     1      47.277   5.812  15.539  0.00  0.00    +0.000 HD
BRANCH   9  12
ATOM     12  C   UNL     1      49.343   5.910  17.057  0.00  0.00    +0.000 A 
ATOM     13  S   UNL     1      47.921   5.905  18.054  0.00  0.00    +0.000 S 
ATOM     14  C   UNL     1      48.752   5.292  19.414  0.00  0.00    +0.000 A 
ATOM     15  C   UNL     1      50.073   5.086  19.130  0.00  0.00    +0.000 A 
ATOM     16  N   UNL     1      50.958   4.613  20.044  0.00  0.00    +0.000 NA
ATOM     17  C   UNL     1      52.213   4.497  19.521  0.00  0.00    +0.000 A 
ATOM     18  C   UNL     1      52.624   4.801  18.207  0.00  0.00    +0.000 A 
ATOM     19  C   UNL     1      51.722   5.289  17.249  0.00  0.00    +0.000 A 
ATOM     20  C   UNL     1      50.427   5.424  17.771  0.00  0.00    +0.000 A 
ENDBRANCH   9  12
ENDBRANCH   7  10
ENDBRANCH   1   7
BRANCH   4  21
ATOM     21  C   UNL     1      43.252   4.273  11.047  0.00  0.00    +0.000 C 
BRANCH  21  22
ATOM     22  O   UNL     1      43.631   3.807   9.755  0.00  0.00    +0.000 OA
BRANCH  22  23
ATOM     23  C   UNL     1      44.430   2.626   9.822  0.00  0.00    +0.000 C 
BRANCH  23  24
ATOM     24  C   UNL     1      45.446   2.618   8.704  0.00  0.00    +0.000 A 
ATOM     25  C   UNL     1      45.818   3.807   8.058  0.00  0.00    +0.000 A 
ATOM     26  C   UNL     1      46.792   3.803   7.058  0.00  0.00    +0.000 A 
ATOM     27  C   UNL     1      47.417   2.612   6.698  0.00  0.00    +0.000 A 
ATOM     28  C   UNL     1      47.064   1.423   7.336  0.00  0.00    +0.000 A 
ATOM     29  C   UNL     1      46.087   1.426   8.335  0.00  0.00    +0.000 A 
ENDBRANCH  23  24
ENDBRANCH  22  23
ENDBRANCH  21  22
ENDBRANCH   4  21
TORSDOF 7
ENDMDL
MODEL 5
REMARK VINA RESULT:    -7.284      2.926      4.438
REMARK INTER + INTRA:         -11.200
REMARK INTER:                 -10.247
REMARK INTRA:                  -0.953
REMARK UNBOUND:                -0.936
REMARK  Name = 
REMARK  7 active torsions:
REMARK  status: ('A' for Active; 'I' for Inactive)
REMARK    1  A    between atoms: C_2  and  C_20
REMARK    2  A    between atoms: N_3  and  C_4
REMARK    3  A    between atoms: C_4  and  C_5
REMARK    4  A    between atoms: C_8  and  C_9
REMARK    5  A    between atoms: C_9  and  O_10
REMARK    6  A    between atoms: O_10  and  C_11
REMARK    7  A    between atoms: C_11  and  C_12
REMARK                            x       y       z     vdW  Elec       q    Type
REMARK                         _______ _______ _______ _____ _____    ______ ____
ROOT
ATOM      1  C   UNL     1      44.770   4.414  11.869  0.00  0.00    +0.000 A 
ATOM      2  C   UNL     1      45.215   5.385  10.960  0.00  0.00    +0.000 A 
ATOM      3  C   UNL     1      45.287   5.103   9.590  0.00  0.00    +0.000 A 
ATOM      4  C   UNL     1      44.903   3.847   9.095  0.00  0.00    +0.000 A 
ATOM      5  C   UNL     1      44.433   2.888  10.001  0.00  0.00    +0.000 A 
ATOM      6  C   UNL     1      44.360   3.172  11.371  0.00  0.00    +0.000 A 
ENDROOT
BRANCH   1   7
ATOM      7  C   UNL     1      44.764   4.682  13.353  0.00  0.00    +0.000 C 
BRANCH   7  10
ATOM      8  O   UNL     1      47.195   3.744  14.237  0.00  0.00    +0.000 OA
ATOM      9  C   UNL     1      47.057   4.968  14.194  0.00  0.00    +0.000 C 
ATOM     10  N   UNL     1      45.860   5.519  13.775  0.00  0.00    +0.000 N 
ATOM     11  H   UNL     1      45.749   6.524  13.782  0.00  0.00    +0.000 HD
BRANCH   9  12
ATOM     12  C   UNL     1      48.113   5.912  14.565  0.00  0.00    +0.000 A 
ATOM     13  S   UNL     1      48.619   6.031  16.222  0.00  0.00    +0.000 S 
ATOM     14  C   UNL     1      49.749   7.268  15.896  0.00  0.00    +0.000 A 
ATOM     15  C   UNL     1      49.757   7.588  14.567  0.00  0.00    +0.000 A 
ATOM     16  N   UNL     1      50.560   8.550  14.046  0.00  0.00    +0.000 NA
ATOM     17  C   UNL     1      50.382   8.684  12.699  0.00  0.00    +0.000 A 
ATOM     18  C   UNL     1      49.504   7.950  11.875  0.00  0.00    +0.000 A 
ATOM     19  C   UNL     1      48.668   6.951  12.398  0.00  0.00    +0.000 A 
ATOM     20  C   UNL     1      48.830   6.805  13.783  0.00  0.00    +0.000 A 
ENDBRANCH   9  12
ENDBRANCH   7  10
ENDBRANCH   1   7
BRANCH   4  21
ATOM     21  C   UNL     1      44.986   3.536   7.620  0.00  0.00    +0.000 C 
BRANCH  21  22
ATOM     22  O   UNL     1      46.100   4.223   7.058  0.00  0.00    +0.000 OA
BRANCH  22  23
ATOM     23  C   UNL     1      47.302   3.454   7.137  0.00  0.00    +0.000 C 
BRANCH  23  24
ATOM     24  C   UNL     1      47.218   2.257   6.219  0.00  0.00    +0.000 A 
ATOM     25  C   UNL     1      47.251   0.951   6.731  0.00  0.00    +0.000 A 
ATOM     26  C   UNL     1      47.126  -0.152   5.885  0.00  0.00    +0.000 A 
ATOM     27  C   UNL     1      46.954   0.036   4.517  0.00  0.00    +0.000 A 
ATOM     28  C   UNL     1      46.912   1.328   3.992  0.00  0.00    +0.000 A 
ATOM     29  C   UNL     1      47.040   2.432   4.839  0.00  0.00    +0.000 A 
ENDBRANCH  23  24
ENDBRANCH  22  23
ENDBRANCH  21  22
ENDBRANCH   4  21
TORSDOF 7
ENDMDL
MODEL 6
REMARK VINA RESULT:    -7.249      2.761      4.346
REMARK INTER + INTRA:         -11.151
REMARK INTER:                 -10.676
REMARK INTRA:                  -0.475
REMARK UNBOUND:                -0.936
REMARK  Name = 
REMARK  7 active torsions:
REMARK  status: ('A' for Active; 'I' for Inactive)
REMARK    1  A    between atoms: C_2  and  C_20
REMARK    2  A    between atoms: N_3  and  C_4
REMARK    3  A    between atoms: C_4  and  C_5
REMARK    4  A    between atoms: C_8  and  C_9
REMARK    5  A    between atoms: C_9  and  O_10
REMARK    6  A    between atoms: O_10  and  C_11
REMARK    7  A    between atoms: C_11  and  C_12
REMARK                            x       y       z     vdW  Elec       q    Type
REMARK                         _______ _______ _______ _____ _____    ______ ____
ROOT
ATOM      1  C   UNL     1      44.664   4.052  10.784  0.00  0.00    +0.000 A 
ATOM      2  C   UNL     1      44.496   2.783  10.213  0.00  0.00    +0.000 A 
ATOM      3  C   UNL     1      44.936   2.522   8.908  0.00  0.00    +0.000 A 
ATOM      4  C   UNL     1      45.565   3.520   8.150  0.00  0.00    +0.000 A 
ATOM      5  C   UNL     1      45.756   4.779   8.732  0.00  0.00    +0.000 A 
ATOM      6  C   UNL     1      45.318   5.040  10.037  0.00  0.00    +0.000 A 
ENDROOT
BRANCH   1   7
ATOM      7  C   UNL     1      44.124   4.365  12.156  0.00  0.00    +0.000 C 
BRANCH   7  10
ATOM      8  O   UNL     1      46.285   3.090  13.283  0.00  0.00    +0.000 OA
ATOM      9  C   UNL     1      46.164   4.292  13.526  0.00  0.00    +0.000 C 
ATOM     10  N   UNL     1      45.095   5.003  13.009  0.00  0.00    +0.000 N 
ATOM     11  H   UNL     1      44.988   5.979  13.249  0.00  0.00    +0.000 HD
BRANCH   9  12
ATOM     12  C   UNL     1      47.110   5.048  14.350  0.00  0.00    +0.000 A 
ATOM     13  S   UNL     1      47.865   6.473  13.707  0.00  0.00    +0.000 S 
ATOM     14  C   UNL     1      48.788   6.745  15.116  0.00  0.00    +0.000 A 
ATOM     15  C   UNL     1      48.534   5.791  16.062  0.00  0.00    +0.000 A 
ATOM     16  N   UNL     1      49.147   5.772  17.273  0.00  0.00    +0.000 NA
ATOM     17  C   UNL     1      48.728   4.720  18.036  0.00  0.00    +0.000 A 
ATOM     18  C   UNL     1      47.777   3.738  17.691  0.00  0.00    +0.000 A 
ATOM     19  C   UNL     1      47.134   3.744  16.444  0.00  0.00    +0.000 A 
ATOM     20  C   UNL     1      47.559   4.813  15.641  0.00  0.00    +0.000 A 
ENDBRANCH   9  12
ENDBRANCH   7  10
ENDBRANCH   1   7
BRANCH   4  21
ATOM     21  C   UNL     1      46.034   3.245   6.741  0.00  0.00    +0.000 C 
BRANCH  21  22
ATOM     22  O   UNL     1      46.785   2.035   6.725  0.00  0.00    +0.000 OA
BRANCH  22  23
ATOM     23  C   UNL     1      47.615   1.931   5.568  0.00  0.00    +0.000 C 
BRANCH  23  24
ATOM     24  C   UNL     1      46.989   0.999   4.557  0.00  0.00    +0.000 A 
ATOM     25  C   UNL     1      46.235   1.499   3.484  0.00  0.00    +0.000 A 
ATOM     26  C   UNL     1      45.698   0.638   2.525  0.00  0.00    +0.000 A 
ATOM     27  C   UNL     1      45.917  -0.733   2.619  0.00  0.00    +0.000 A 
ATOM     28  C   UNL     1      46.670  -1.246   3.676  0.00  0.00    +0.000 A 
ATOM     29  C   UNL     1      47.206  -0.384   4.637  0.00  0.00    +0.000 A 
ENDBRANCH  23  24
ENDBRANCH  22  23
ENDBRANCH  21  22
ENDBRANCH   4  21
TORSDOF 7
ENDMDL
MODEL 7
REMARK VINA RESULT:    -7.157      1.590      2.276
REMARK INTER + INTRA:         -11.021
REMARK INTER:                 -10.000
REMARK INTRA:                  -1.021
REMARK UNBOUND:                -0.936
REMARK  Name = 
REMARK  7 active torsions:
REMARK  status: ('A' for Active; 'I' for Inactive)
REMARK    1  A    between atoms: C_2  and  C_20
REMARK    2  A    between atoms: N_3  and  C_4
REMARK    3  A    between atoms: C_4  and  C_5
REMARK    4  A    between atoms: C_8  and  C_9
REMARK    5  A    between atoms: C_9  and  O_10
REMARK    6  A    between atoms: O_10  and  C_11
REMARK    7  A    between atoms: C_11  and  C_12
REMARK                            x       y       z     vdW  Elec       q    Type
REMARK                         _______ _______ _______ _____ _____    ______ ____
ROOT
ATOM      1  C   UNL     1      47.248   6.578  13.189  0.00  0.00    +0.000 A 
ATOM      2  C   UNL     1      46.523   6.679  11.993  0.00  0.00    +0.000 A 
ATOM      3  C   UNL     1      45.750   5.605  11.534  0.00  0.00    +0.000 A 
ATOM      4  C   UNL     1      45.675   4.410  12.265  0.00  0.00    +0.000 A 
ATOM      5  C   UNL     1      46.379   4.321  13.472  0.00  0.00    +0.000 A 
ATOM      6  C   UNL     1      47.150   5.396  13.932  0.00  0.00    +0.000 A 
ENDROOT
BRANCH   1   7
ATOM      7  C   UNL     1      48.145   7.699  13.651  0.00  0.00    +0.000 C 
BRANCH   7  10
ATOM      8  O   UNL     1      49.976   7.404  15.683  0.00  0.00    +0.000 OA
ATOM      9  C   UNL     1      48.891   7.905  15.985  0.00  0.00    +0.000 C 
ATOM     10  N   UNL     1      47.911   8.074  15.023  0.00  0.00    +0.000 N 
ATOM     11  H   UNL     1      47.013   8.451  15.294  0.00  0.00    +0.000 HD
BRANCH   9  12
ATOM     12  C   UNL     1      48.559   8.355  17.338  0.00  0.00    +0.000 A 
ATOM     13  S   UNL     1      48.643  10.045  17.729  0.00  0.00    +0.000 S 
ATOM     14  C   UNL     1      48.200   9.796  19.359  0.00  0.00    +0.000 A 
ATOM     15  C   UNL     1      47.985   8.469  19.611  0.00  0.00    +0.000 A 
ATOM     16  N   UNL     1      47.630   8.001  20.835  0.00  0.00    +0.000 NA
ATOM     17  C   UNL     1      47.477   6.644  20.833  0.00  0.00    +0.000 A 
ATOM     18  C   UNL     1      47.638   5.766  19.741  0.00  0.00    +0.000 A 
ATOM     19  C   UNL     1      48.002   6.235  18.469  0.00  0.00    +0.000 A 
ATOM     20  C   UNL     1      48.173   7.627  18.454  0.00  0.00    +0.000 A 
ENDBRANCH   9  12
ENDBRANCH   7  10
ENDBRANCH   1   7
BRANCH   4  21
ATOM     21  C   UNL     1      44.849   3.247  11.769  0.00  0.00    +0.000 C 
BRANCH  21  22
ATOM     22  O   UNL     1      44.341   3.551  10.473  0.00  0.00    +0.000 OA
BRANCH  22  23
ATOM     23  C   UNL     1      44.304   2.402   9.626  0.00  0.00    +0.000 C 
BRANCH  23  24
ATOM     24  C   UNL     1      45.399   2.481   8.589  0.00  0.00    +0.000 A 
ATOM     25  C   UNL     1      45.748   3.706   7.998  0.00  0.00    +0.000 A 
ATOM     26  C   UNL     1      46.792   3.783   7.076  0.00  0.00    +0.000 A 
ATOM     27  C   UNL     1      47.510   2.639   6.738  0.00  0.00    +0.000 A 
ATOM     28  C   UNL     1      47.181   1.415   7.321  0.00  0.00    +0.000 A 
ATOM     29  C   UNL     1      46.134   1.337   8.243  0.00  0.00    +0.000 A 
ENDBRANCH  23  24
ENDBRANCH  22  23
ENDBRANCH  21  22
ENDBRANCH   4  21
TORSDOF 7
ENDMDL
MODEL 8
REMARK VINA RESULT:    -7.079      3.875      6.155
REMARK INTER + INTRA:         -10.912
REMARK INTER:                 -10.156
REMARK INTRA:                  -0.757
REMARK UNBOUND:                -0.936
REMARK  Name = 
REMARK  7 active torsions:
REMARK  status: ('A' for Active; 'I' for Inactive)
REMARK    1  A    between atoms: C_2  and  C_20
REMARK    2  A    between atoms: N_3  and  C_4
REMARK    3  A    between atoms: C_4  and  C_5
REMARK    4  A    between atoms: C_8  and  C_9
REMARK    5  A    between atoms: C_9  and  O_10
REMARK    6  A    between atoms: O_10  and  C_11
REMARK    7  A    between atoms: C_11  and  C_12
REMARK                            x       y       z     vdW  Elec       q    Type
REMARK                         _______ _______ _______ _____ _____    ______ ____
ROOT
ATOM      1  C   UNL     1      47.020   6.000  12.845  0.00  0.00    +0.000 A 
ATOM      2  C   UNL     1      46.555   4.745  13.261  0.00  0.00    +0.000 A 
ATOM      3  C   UNL     1      45.469   4.136  12.618  0.00  0.00    +0.000 A 
ATOM      4  C   UNL     1      44.831   4.763  11.537  0.00  0.00    +0.000 A 
ATOM      5  C   UNL     1      45.315   6.004  11.106  0.00  0.00    +0.000 A 
ATOM      6  C   UNL     1      46.402   6.612  11.747  0.00  0.00    +0.000 A 
ENDROOT
BRANCH   1   7
ATOM      7  C   UNL     1      48.136   6.699  13.580  0.00  0.00    +0.000 C 
BRANCH   7  10
ATOM      8  O   UNL     1      50.625   7.699  14.193  0.00  0.00    +0.000 OA
ATOM      9  C   UNL     1      50.141   8.043  13.113  0.00  0.00    +0.000 C 
ATOM     10  N   UNL     1      48.887   7.595  12.737  0.00  0.00    +0.000 N 
ATOM     11  H   UNL     1      48.488   7.917  11.866  0.00  0.00    +0.000 HD
BRANCH   9  12
ATOM     12  C   UNL     1      50.830   8.921  12.164  0.00  0.00    +0.000 A 
ATOM     13  S   UNL     1      50.806  10.640  12.408  0.00  0.00    +0.000 S 
ATOM     14  C   UNL     1      51.702  10.957  10.990  0.00  0.00    +0.000 A 
ATOM     15  C   UNL     1      52.023   9.797  10.342  0.00  0.00    +0.000 A 
ATOM     16  N   UNL     1      52.725   9.772   9.181  0.00  0.00    +0.000 NA
ATOM     17  C   UNL     1      52.915   8.497   8.732  0.00  0.00    +0.000 A 
ATOM     18  C   UNL     1      52.479   7.301   9.339  0.00  0.00    +0.000 A 
ATOM     19  C   UNL     1      51.753   7.309  10.541  0.00  0.00    +0.000 A 
ATOM     20  C   UNL     1      51.540   8.613  11.013  0.00  0.00    +0.000 A 
ENDBRANCH   9  12
ENDBRANCH   7  10
ENDBRANCH   1   7
BRANCH   4  21
ATOM     21  C   UNL     1      43.656   4.114  10.846  0.00  0.00    +0.000 C 
BRANCH  21  22
ATOM     22  O   UNL     1      44.136   3.169   9.894  0.00  0.00    +0.000 OA
BRANCH  22  23
ATOM     23  C   UNL     1      44.536   3.791   8.672  0.00  0.00    +0.000 C 
BRANCH  23  24
ATOM     24  C   UNL     1      45.615   2.976   7.999  0.00  0.00    +0.000 A 
ATOM     25  C   UNL     1      45.869   1.652   8.390  0.00  0.00    +0.000 A 
ATOM     26  C   UNL     1      46.834   0.885   7.735  0.00  0.00    +0.000 A 
ATOM     27  C   UNL     1      47.551   1.428   6.671  0.00  0.00    +0.000 A 
ATOM     28  C   UNL     1      47.305   2.740   6.266  0.00  0.00    +0.000 A 
ATOM     29  C   UNL     1      46.341   3.508   6.924  0.00  0.00    +0.000 A 
ENDBRANCH  23  24
ENDBRANCH  22  23
ENDBRANCH  21  22
ENDBRANCH   4  21
TORSDOF 7
ENDMDL
MODEL 9
REMARK VINA RESULT:    -6.668      2.977      4.587
REMARK INTER + INTRA:         -10.333
REMARK INTER:                  -9.837
REMARK INTRA:                  -0.496
REMARK UNBOUND:                -0.936
REMARK  Name = 
REMARK  7 active torsions:
REMARK  status: ('A' for Active; 'I' for Inactive)
REMARK    1  A    between atoms: C_2  and  C_20
REMARK    2  A    between atoms: N_3  and  C_4
REMARK    3  A    between atoms: C_4  and  C_5
REMARK    4  A    between atoms: C_8  and  C_9
REMARK    5  A    between atoms: C_9  and  O_10
REMARK    6  A    between atoms: O_10  and  C_11
REMARK    7  A    between atoms: C_11  and  C_12
REMARK                            x       y       z     vdW  Elec       q    Type
REMARK                         _______ _______ _______ _____ _____    ______ ____
ROOT
ATOM      1  C   UNL     1      46.452   5.162  13.535  0.00  0.00    +0.000 A 
ATOM      2  C   UNL     1      45.851   6.173  12.771  0.00  0.00    +0.000 A 
ATOM      3  C   UNL     1      44.924   5.857  11.769  0.00  0.00    +0.000 A 
ATOM      4  C   UNL     1      44.569   4.523  11.515  0.00  0.00    +0.000 A 
ATOM      5  C   UNL     1      45.151   3.518  12.297  0.00  0.00    +0.000 A 
ATOM      6  C   UNL     1      46.075   3.835  13.300  0.00  0.00    +0.000 A 
ENDROOT
BRANCH   1   7
ATOM      7  C   UNL     1      47.508   5.487  14.561  0.00  0.00    +0.000 C 
BRANCH   7  10
ATOM      8  O   UNL     1      49.919   6.359  15.559  0.00  0.00    +0.000 OA
ATOM      9  C   UNL     1      49.229   7.194  14.972  0.00  0.00    +0.000 C 
ATOM     10  N   UNL     1      47.996   6.839  14.454  0.00  0.00    +0.000 N 
ATOM     11  H   UNL     1      47.425   7.545  14.009  0.00  0.00    +0.000 HD
BRANCH   9  12
ATOM     12  C   UNL     1      49.641   8.586  14.775  0.00  0.00    +0.000 A 
ATOM     13  S   UNL     1      49.804   9.639  16.146  0.00  0.00    +0.000 S 
ATOM     14  C   UNL     1      50.230  10.987  15.190  0.00  0.00    +0.000 A 
ATOM     15  C   UNL     1      50.258  10.659  13.863  0.00  0.00    +0.000 A 
ATOM     16  N   UNL     1      50.559  11.555  12.889  0.00  0.00    +0.000 NA
ATOM     17  C   UNL     1      50.517  10.987  11.648  0.00  0.00    +0.000 A 
ATOM     18  C   UNL     1      50.217   9.647  11.330  0.00  0.00    +0.000 A 
ATOM     19  C   UNL     1      49.905   8.707  12.325  0.00  0.00    +0.000 A 
ATOM     20  C   UNL     1      49.934   9.275  13.607  0.00  0.00    +0.000 A 
ENDBRANCH   9  12
ENDBRANCH   7  10
ENDBRANCH   1   7
BRANCH   4  21
ATOM     21  C   UNL     1      43.577   4.178  10.430  0.00  0.00    +0.000 C 
BRANCH  21  22
ATOM     22  O   UNL     1      44.281   3.892   9.225  0.00  0.00    +0.000 OA
BRANCH  22  23
ATOM     23  C   UNL     1      44.797   2.560   9.206  0.00  0.00    +0.000 C 
BRANCH  23  24
ATOM     24  C   UNL     1      45.762   2.390   8.056  0.00  0.00    +0.000 A 
ATOM     25  C   UNL     1      45.970   3.424   7.129  0.00  0.00    +0.000 A 
ATOM     26  C   UNL     1      46.898   3.282   6.096  0.00  0.00    +0.000 A 
ATOM     27  C   UNL     1      47.639   2.109   5.981  0.00  0.00    +0.000 A 
ATOM     28  C   UNL     1      47.449   1.075   6.898  0.00  0.00    +0.000 A 
ATOM     29  C   UNL     1      46.519   1.216   7.931  0.00  0.00    +0.000 A 
ENDBRANCH  23  24
ENDBRANCH  22  23
ENDBRANCH  21  22
ENDBRANCH   4  21
TORSDOF 7
ENDMDL
