MODEL 1
REMARK VINA RESULT:    -8.974      0.000      0.000
REMARK INTER + INTRA:         -12.605
REMARK INTER:                 -11.598
REMARK INTRA:                  -1.008
REMARK UNBOUND:                -1.008
REMARK  Name = 
REMARK  6 active torsions:
REMARK  status: ('A' for Active; 'I' for Inactive)
REMARK    1  A    between atoms: C_1  and  C_2
REMARK    2  A    between atoms: C_5  and  C_6
REMARK    3  A    between atoms: C_6  and  N_7
REMARK    4  A    between atoms: C_8  and  C_10
REMARK    5  A    between atoms: C_21  and  C_22
REMARK    6  A    between atoms: C_22  and  N_23
REMARK                            x       y       z     vdW  Elec       q    Type
REMARK                         _______ _______ _______ _____ _____    ______ ____
ROOT
ATOM      1  C   UNL     1      44.711   7.985  11.424  0.00  0.00    +0.000 C 
ATOM      2  C   UNL     1      45.268   6.776  12.125  0.00  0.00    +0.000 A 
ATOM      3  C   UNL     1      46.426   6.928  12.905  0.00  0.00    +0.000 A 
ATOM      4  C   UNL     1      46.983   5.846  13.593  0.00  0.00    +0.000 A 
ATOM      5  C   UNL     1      46.387   4.585  13.531  0.00  0.00    +0.000 A 
ATOM      6  C   UNL     1      45.235   4.426  12.743  0.00  0.00    +0.000 A 
ATOM      7  C   UNL     1      44.675   5.500  12.016  0.00  0.00    +0.000 A 
ENDROOT
BRANCH   5   8
ATOM      8  C   UNL     1      46.949   3.434  14.330  0.00  0.00    +0.000 C 
BRANCH   8   9
ATOM      9  N   UNL     1      47.862   3.883  15.355  0.00  0.00    +0.000 N 
ATOM     10  C   UNL     1      47.594   3.747  16.692  0.00  0.00    +0.000 C 
ATOM     11  O   UNL     1      46.567   3.217  17.105  0.00  0.00    +0.000 OA
ATOM     12  H   UNL     1      48.659   4.430  15.050  0.00  0.00    +0.000 HD
BRANCH  10  13
ATOM     13  C   UNL     1      48.627   4.218  17.623  0.00  0.00    +0.000 A 
ATOM     14  C   UNL     1      48.374   5.332  18.414  0.00  0.00    +0.000 A 
ATOM     15  S   UNL     1      49.649   5.728  19.472  0.00  0.00    +0.000 S 
ATOM     16  C   UNL     1      50.610   4.458  18.873  0.00  0.00    +0.000 A 
ATOM     17  N   UNL     1      51.868   4.254  19.349  0.00  0.00    +0.000 NA
ATOM     18  C   UNL     1      52.503   3.284  18.777  0.00  0.00    +0.000 A 
ATOM     19  N   UNL     1      51.989   2.496  17.780  0.00  0.00    +0.000 N 
ATOM     20  C   UNL     1      50.706   2.632  17.305  0.00  0.00    +0.000 A 
ATOM     21  O   UNL     1      50.248   1.857  16.470  0.00  0.00    +0.000 OA
ATOM     22  C   UNL     1      49.958   3.728  17.894  0.00  0.00    +0.000 A 
ATOM     23  H   UNL     1      52.534   1.742  17.388  0.00  0.00    +0.000 HD
ENDBRANCH  10  13
ENDBRANCH   8   9
ENDBRANCH   5   8
BRANCH   7  24
ATOM     24  C   UNL     1      43.451   5.233  11.153  0.00  0.00    +0.000 C 
BRANCH  24  25
ATOM     25  N   UNL     1      43.831   5.130   9.762  0.00  0.00    +0.000 N 
ATOM     26  C   UNL     1      44.524   4.040   9.266  0.00  0.00    +0.000 A 
ATOM     27  C   UNL     1      44.364   2.739   9.747  0.00  0.00    +0.000 A 
ATOM     28  C   UNL     1      45.031   1.680   9.129  0.00  0.00    +0.000 A 
ATOM     29  C   UNL     1      45.833   1.940   8.033  0.00  0.00    +0.000 A 
ATOM     30  C   UNL     1      45.935   3.256   7.620  0.00  0.00    +0.000 A 
ATOM     31 CL   UNL     1      46.884   3.669   6.250  0.00  0.00    +0.000 Cl
ATOM     32  N   UNL     1      45.315   4.303   8.209  0.00  0.00    +0.000 NA
ATOM     33  H   UNL     1      44.208   5.975   9.343  0.00  0.00    +0.000 HD
ENDBRANCH  24  25
ENDBRANCH   7  24
TORSDOF 5
ENDMDL
MODEL 2
REMARK VINA RESULT:    -8.315      1.909      2.309
REMARK INTER + INTRA:         -11.753
REMARK INTER:                 -10.722
REMARK INTRA:                  -1.032
REMARK UNBOUND:                -1.008
REMARK  Name = 
REMARK  6 active torsions:
REMARK  status: ('A' for Active; 'I' for Inactive)
REMARK    1  A    between atoms: C_1  and  C_2
REMARK    2  A    between atoms: C_5  and  C_6
REMARK    3  A    between atoms: C_6  and  N_7
REMARK    4  A    between atoms: C_8  and  C_10
REMARK    5  A    between atoms: C_21  and  C_22
REMARK    6  A    between atoms: C_22  and  N_23
REMARK                            x       y       z     vdW  Elec       q    Type
REMARK                         _______ _______ _______ _____ _____    ______ ____
ROOT
ATOM      1  C   UNL     1      44.307   8.644  11.223  0.00  0.00    +0.000 C 
ATOM      2  C   UNL     1      45.097   7.623  11.996  0.00  0.00    +0.000 A 
ATOM      3  C   UNL     1      46.270   8.037  12.647  0.00  0.00    +0.000 A 
ATOM      4  C   UNL     1      47.040   7.140  13.393  0.00  0.00    +0.000 A 
ATOM      5  C   UNL     1      46.648   5.806  13.520  0.00  0.00    +0.000 A 
ATOM      6  C   UNL     1      45.481   5.385  12.861  0.00  0.00    +0.000 A 
ATOM      7  C   UNL     1      44.707   6.269  12.077  0.00  0.00    +0.000 A 
ENDROOT
BRANCH   5   8
ATOM      8  C   UNL     1      47.441   4.855  14.384  0.00  0.00    +0.000 C 
BRANCH   8   9
ATOM      9  N   UNL     1      47.540   5.318  15.748  0.00  0.00    +0.000 N 
ATOM     10  C   UNL     1      48.647   5.965  16.229  0.00  0.00    +0.000 C 
ATOM     11  O   UNL     1      49.621   6.210  15.524  0.00  0.00    +0.000 OA
ATOM     12  H   UNL     1      46.806   5.025  16.384  0.00  0.00    +0.000 HD
BRANCH  10  13
ATOM     13  C   UNL     1      48.597   6.407  17.628  0.00  0.00    +0.000 A 
ATOM     14  C   UNL     1      48.617   7.767  17.914  0.00  0.00    +0.000 A 
ATOM     15  S   UNL     1      48.509   8.121  19.576  0.00  0.00    +0.000 S 
ATOM     16  C   UNL     1      48.487   6.469  19.982  0.00  0.00    +0.000 A 
ATOM     17  N   UNL     1      48.431   6.072  21.281  0.00  0.00    +0.000 NA
ATOM     18  C   UNL     1      48.465   4.792  21.449  0.00  0.00    +0.000 A 
ATOM     19  N   UNL     1      48.540   3.874  20.433  0.00  0.00    +0.000 N 
ATOM     20  C   UNL     1      48.547   4.227  19.105  0.00  0.00    +0.000 A 
ATOM     21  O   UNL     1      48.532   3.378  18.218  0.00  0.00    +0.000 OA
ATOM     22  C   UNL     1      48.540   5.658  18.861  0.00  0.00    +0.000 A 
ATOM     23  H   UNL     1      48.546   2.885  20.634  0.00  0.00    +0.000 HD
ENDBRANCH  10  13
ENDBRANCH   8   9
ENDBRANCH   5   8
BRANCH   7  24
ATOM     24  C   UNL     1      43.480   5.723  11.362  0.00  0.00    +0.000 C 
BRANCH  24  25
ATOM     25  N   UNL     1      43.780   5.478   9.969  0.00  0.00    +0.000 N 
ATOM     26  C   UNL     1      44.373   4.305   9.538  0.00  0.00    +0.000 A 
ATOM     27  C   UNL     1      44.154   3.063  10.137  0.00  0.00    +0.000 A 
ATOM     28  C   UNL     1      44.718   1.912   9.583  0.00  0.00    +0.000 A 
ATOM     29  C   UNL     1      45.476   2.023   8.432  0.00  0.00    +0.000 A 
ATOM     30  C   UNL     1      45.642   3.291   7.902  0.00  0.00    +0.000 A 
ATOM     31 CL   UNL     1      46.544   3.521   6.459  0.00  0.00    +0.000 Cl
ATOM     32  N   UNL     1      45.124   4.423   8.427  0.00  0.00    +0.000 NA
ATOM     33  H   UNL     1      44.189   6.257   9.462  0.00  0.00    +0.000 HD
ENDBRANCH  24  25
ENDBRANCH   7  24
TORSDOF 5
ENDMDL
MODEL 3
REMARK VINA RESULT:    -8.174      1.457      2.348
REMARK INTER + INTRA:         -11.572
REMARK INTER:                 -10.679
REMARK INTRA:                  -0.893
REMARK UNBOUND:                -1.008
REMARK  Name = 
REMARK  6 active torsions:
REMARK  status: ('A' for Active; 'I' for Inactive)
REMARK    1  A    between atoms: C_1  and  C_2
REMARK    2  A    between atoms: C_5  and  C_6
REMARK    3  A    between atoms: C_6  and  N_7
REMARK    4  A    between atoms: C_8  and  C_10
REMARK    5  A    between atoms: C_21  and  C_22
REMARK    6  A    between atoms: C_22  and  N_23
REMARK                            x       y       z     vdW  Elec       q    Type
REMARK                         _______ _______ _______ _____ _____    ______ ____
ROOT
ATOM      1  C   UNL     1      44.873   7.997  11.375  0.00  0.00    +0.000 C 
ATOM      2  C   UNL     1      45.391   6.810  12.141  0.00  0.00    +0.000 A 
ATOM      3  C   UNL     1      46.560   6.963  12.903  0.00  0.00    +0.000 A 
ATOM      4  C   UNL     1      47.084   5.902  13.648  0.00  0.00    +0.000 A 
ATOM      5  C   UNL     1      46.441   4.662  13.662  0.00  0.00    +0.000 A 
ATOM      6  C   UNL     1      45.277   4.502  12.892  0.00  0.00    +0.000 A 
ATOM      7  C   UNL     1      44.750   5.552  12.108  0.00  0.00    +0.000 A 
ENDROOT
BRANCH   5   8
ATOM      8  C   UNL     1      46.967   3.539  14.522  0.00  0.00    +0.000 C 
BRANCH   8   9
ATOM      9  N   UNL     1      47.832   4.021  15.573  0.00  0.00    +0.000 N 
ATOM     10  C   UNL     1      47.684   3.644  16.882  0.00  0.00    +0.000 C 
ATOM     11  O   UNL     1      46.816   2.855  17.243  0.00  0.00    +0.000 OA
ATOM     12  H   UNL     1      48.478   4.763  15.328  0.00  0.00    +0.000 HD
BRANCH  10  13
ATOM     13  C   UNL     1      48.655   4.188  17.839  0.00  0.00    +0.000 A 
ATOM     14  C   UNL     1      49.980   3.774  17.774  0.00  0.00    +0.000 A 
ATOM     15  S   UNL     1      50.991   4.526  18.920  0.00  0.00    +0.000 S 
ATOM     16  C   UNL     1      49.685   5.392  19.583  0.00  0.00    +0.000 A 
ATOM     17  N   UNL     1      49.868   6.223  20.644  0.00  0.00    +0.000 NA
ATOM     18  C   UNL     1      48.787   6.784  21.074  0.00  0.00    +0.000 A 
ATOM     19  N   UNL     1      47.541   6.595  20.533  0.00  0.00    +0.000 N 
ATOM     20  C   UNL     1      47.317   5.805  19.430  0.00  0.00    +0.000 A 
ATOM     21  O   UNL     1      46.204   5.721  18.920  0.00  0.00    +0.000 OA
ATOM     22  C   UNL     1      48.497   5.127  18.924  0.00  0.00    +0.000 A 
ATOM     23  H   UNL     1      46.738   7.077  20.908  0.00  0.00    +0.000 HD
ENDBRANCH  10  13
ENDBRANCH   8   9
ENDBRANCH   5   8
BRANCH   7  24
ATOM     24  C   UNL     1      43.509   5.283  11.270  0.00  0.00    +0.000 C 
BRANCH  24  25
ATOM     25  N   UNL     1      43.861   5.189   9.871  0.00  0.00    +0.000 N 
ATOM     26  C   UNL     1      44.552   4.107   9.356  0.00  0.00    +0.000 A 
ATOM     27  C   UNL     1      44.415   2.803   9.835  0.00  0.00    +0.000 A 
ATOM     28  C   UNL     1      45.078   1.752   9.199  0.00  0.00    +0.000 A 
ATOM     29  C   UNL     1      45.854   2.023   8.086  0.00  0.00    +0.000 A 
ATOM     30  C   UNL     1      45.935   3.343   7.677  0.00  0.00    +0.000 A 
ATOM     31 CL   UNL     1      46.851   3.769   6.288  0.00  0.00    +0.000 Cl
ATOM     32  N   UNL     1      45.319   4.381   8.283  0.00  0.00    +0.000 NA
ATOM     33  H   UNL     1      44.221   6.039   9.448  0.00  0.00    +0.000 HD
ENDBRANCH  24  25
ENDBRANCH   7  24
TORSDOF 5
ENDMDL
MODEL 4
REMARK VINA RESULT:    -8.097      2.267      3.250
REMARK INTER + INTRA:         -11.472
REMARK INTER:                 -10.298
REMARK INTRA:                  -1.174
REMARK UNBOUND:                -1.008
REMARK  Name = 
REMARK  6 active torsions:
REMARK  status: ('A' for Active; 'I' for Inactive)
REMARK    1  A    between atoms: C_1  and  C_2
REMARK    2  A    between atoms: C_5  and  C_6
REMARK    3  A    between atoms: C_6  and  N_7
REMARK    4  A    between atoms: C_8  and  C_10
REMARK    5  A    between atoms: C_21  and  C_22
REMARK    6  A    between atoms: C_22  and  N_23
REMARK                            x       y       z     vdW  Elec       q    Type
REMARK                         _______ _______ _______ _____ _____    ______ ____
ROOT
ATOM      1  C   UNL     1      44.331   9.414  11.468  0.00  0.00    +0.000 C 
ATOM      2  C   UNL     1      45.724   8.948  11.792  0.00  0.00    +0.000 A 
ATOM      3  C   UNL     1      46.714   9.914  12.030  0.00  0.00    +0.000 A 
ATOM      4  C   UNL     1      48.025   9.545  12.351  0.00  0.00    +0.000 A 
ATOM      5  C   UNL     1      48.375   8.197  12.454  0.00  0.00    +0.000 A 
ATOM      6  C   UNL     1      47.389   7.228  12.206  0.00  0.00    +0.000 A 
ATOM      7  C   UNL     1      46.068   7.580  11.850  0.00  0.00    +0.000 A 
ENDROOT
BRANCH   5   8
ATOM      8  C   UNL     1      49.771   7.801  12.869  0.00  0.00    +0.000 C 
BRANCH   8   9
ATOM      9  N   UNL     1      49.767   6.932  14.022  0.00  0.00    +0.000 N 
ATOM     10  C   UNL     1      49.499   7.386  15.287  0.00  0.00    +0.000 C 
ATOM     11  O   UNL     1      49.226   8.560  15.518  0.00  0.00    +0.000 OA
ATOM     12  H   UNL     1      50.104   5.986  13.884  0.00  0.00    +0.000 HD
BRANCH  10  13
ATOM     13  C   UNL     1      49.498   6.386  16.361  0.00  0.00    +0.000 A 
ATOM     14  C   UNL     1      50.431   6.484  17.386  0.00  0.00    +0.000 A 
ATOM     15  S   UNL     1      50.274   5.278  18.577  0.00  0.00    +0.000 S 
ATOM     16  C   UNL     1      48.986   4.544  17.741  0.00  0.00    +0.000 A 
ATOM     17  N   UNL     1      48.397   3.417  18.221  0.00  0.00    +0.000 NA
ATOM     18  C   UNL     1      47.463   2.941  17.466  0.00  0.00    +0.000 A 
ATOM     19  N   UNL     1      47.060   3.497  16.279  0.00  0.00    +0.000 N 
ATOM     20  C   UNL     1      47.591   4.663  15.782  0.00  0.00    +0.000 A 
ATOM     21  O   UNL     1      47.151   5.180  14.758  0.00  0.00    +0.000 OA
ATOM     22  C   UNL     1      48.667   5.224  16.578  0.00  0.00    +0.000 A 
ATOM     23  H   UNL     1      46.310   3.083  15.746  0.00  0.00    +0.000 HD
ENDBRANCH  10  13
ENDBRANCH   8   9
ENDBRANCH   5   8
BRANCH   7  24
ATOM     24  C   UNL     1      45.073   6.469  11.556  0.00  0.00    +0.000 C 
BRANCH  24  25
ATOM     25  N   UNL     1      45.085   6.145  10.146  0.00  0.00    +0.000 N 
ATOM     26  C   UNL     1      45.225   4.847   9.689  0.00  0.00    +0.000 A 
ATOM     27  C   UNL     1      44.721   3.732  10.363  0.00  0.00    +0.000 A 
ATOM     28  C   UNL     1      44.823   2.465   9.787  0.00  0.00    +0.000 A 
ATOM     29  C   UNL     1      45.410   2.338   8.542  0.00  0.00    +0.000 A 
ATOM     30  C   UNL     1      45.880   3.493   7.942  0.00  0.00    +0.000 A 
ATOM     31 CL   UNL     1      46.598   3.436   6.383  0.00  0.00    +0.000 Cl
ATOM     32  N   UNL     1      45.812   4.730   8.483  0.00  0.00    +0.000 NA
ATOM     33  H   UNL     1      45.638   6.761   9.557  0.00  0.00    +0.000 HD
ENDBRANCH  24  25
ENDBRANCH   7  24
TORSDOF 5
ENDMDL
MODEL 5
REMARK VINA RESULT:    -8.019      3.398      8.290
REMARK INTER + INTRA:         -11.371
REMARK INTER:                  -9.920
REMARK INTRA:                  -1.451
REMARK UNBOUND:                -1.008
REMARK  Name = 
REMARK  6 active torsions:
REMARK  status: ('A' for Active; 'I' for Inactive)
REMARK    1  A    between atoms: C_1  and  C_2
REMARK    2  A    between atoms: C_5  and  C_6
REMARK    3  A    between atoms: C_6  and  N_7
REMARK    4  A    between atoms: C_8  and  C_10
REMARK    5  A    between atoms: C_21  and  C_22
REMARK    6  A    between atoms: C_22  and  N_23
REMARK                            x       y       z     vdW  Elec       q    Type
REMARK                         _______ _______ _______ _____ _____    ______ ____
ROOT
ATOM      1  C   UNL     1      52.874   4.012  17.987  0.00  0.00    +0.000 C 
ATOM      2  C   UNL     1      51.413   3.918  17.644  0.00  0.00    +0.000 A 
ATOM      3  C   UNL     1      50.830   2.645  17.535  0.00  0.00    +0.000 A 
ATOM      4  C   UNL     1      49.473   2.492  17.233  0.00  0.00    +0.000 A 
ATOM      5  C   UNL     1      48.660   3.612  17.046  0.00  0.00    +0.000 A 
ATOM      6  C   UNL     1      49.241   4.887  17.143  0.00  0.00    +0.000 A 
ATOM      7  C   UNL     1      50.616   5.061  17.416  0.00  0.00    +0.000 A 
ENDROOT
BRANCH   5   8
ATOM      8  C   UNL     1      47.181   3.447  16.791  0.00  0.00    +0.000 C 
BRANCH   8   9
ATOM      9  N   UNL     1      46.694   4.385  15.807  0.00  0.00    +0.000 N 
ATOM     10  C   UNL     1      46.744   4.135  14.461  0.00  0.00    +0.000 C 
ATOM     11  O   UNL     1      47.191   3.087  14.005  0.00  0.00    +0.000 OA
ATOM     12  H   UNL     1      46.431   5.305  16.143  0.00  0.00    +0.000 HD
BRANCH  10  13
ATOM     13  C   UNL     1      46.183   5.165  13.577  0.00  0.00    +0.000 A 
ATOM     14  C   UNL     1      46.903   6.330  13.346  0.00  0.00    +0.000 A 
ATOM     15  S   UNL     1      46.142   7.406  12.267  0.00  0.00    +0.000 S 
ATOM     16  C   UNL     1      44.795   6.378  12.110  0.00  0.00    +0.000 A 
ATOM     17  N   UNL     1      43.739   6.730  11.329  0.00  0.00    +0.000 NA
ATOM     18  C   UNL     1      42.766   5.880  11.333  0.00  0.00    +0.000 A 
ATOM     19  N   UNL     1      42.759   4.706  12.042  0.00  0.00    +0.000 N 
ATOM     20  C   UNL     1      43.824   4.286  12.802  0.00  0.00    +0.000 A 
ATOM     21  O   UNL     1      43.820   3.191  13.358  0.00  0.00    +0.000 OA
ATOM     22  C   UNL     1      44.934   5.220  12.855  0.00  0.00    +0.000 A 
ATOM     23  H   UNL     1      41.971   4.078  11.988  0.00  0.00    +0.000 HD
ENDBRANCH  10  13
ENDBRANCH   8   9
ENDBRANCH   5   8
BRANCH   7  24
ATOM     24  C   UNL     1      51.175   6.475  17.462  0.00  0.00    +0.000 C 
BRANCH  24  25
ATOM     25  N   UNL     1      51.392   6.972  16.122  0.00  0.00    +0.000 N 
ATOM     26  C   UNL     1      50.497   7.821  15.496  0.00  0.00    +0.000 A 
ATOM     27  C   UNL     1      49.738   8.779  16.172  0.00  0.00    +0.000 A 
ATOM     28  C   UNL     1      48.927   9.660  15.455  0.00  0.00    +0.000 A 
ATOM     29  C   UNL     1      48.902   9.577  14.075  0.00  0.00    +0.000 A 
ATOM     30  C   UNL     1      49.686   8.601  13.484  0.00  0.00    +0.000 A 
ATOM     31 CL   UNL     1      49.740   8.443  11.775  0.00  0.00    +0.000 Cl
ATOM     32  N   UNL     1      50.466   7.724  14.153  0.00  0.00    +0.000 NA
ATOM     33  H   UNL     1      51.723   6.289  15.446  0.00  0.00    +0.000 HD
ENDBRANCH  24  25
ENDBRANCH   7  24
TORSDOF 5
ENDMDL
MODEL 6
REMARK VINA RESULT:    -7.678      4.830      6.056
REMARK INTER + INTRA:         -10.930
REMARK INTER:                  -9.723
REMARK INTRA:                  -1.207
REMARK UNBOUND:                -1.008
REMARK  Name = 
REMARK  6 active torsions:
REMARK  status: ('A' for Active; 'I' for Inactive)
REMARK    1  A    between atoms: C_1  and  C_2
REMARK    2  A    between atoms: C_5  and  C_6
REMARK    3  A    between atoms: C_6  and  N_7
REMARK    4  A    between atoms: C_8  and  C_10
REMARK    5  A    between atoms: C_21  and  C_22
REMARK    6  A    between atoms: C_22  and  N_23
REMARK                            x       y       z     vdW  Elec       q    Type
REMARK                         _______ _______ _______ _____ _____    ______ ____
ROOT
ATOM      1  C   UNL     1      45.437   3.287  12.609  0.00  0.00    +0.000 C 
ATOM      2  C   UNL     1      45.506   4.788  12.533  0.00  0.00    +0.000 A 
ATOM      3  C   UNL     1      46.471   5.454  13.304  0.00  0.00    +0.000 A 
ATOM      4  C   UNL     1      46.595   6.846  13.265  0.00  0.00    +0.000 A 
ATOM      5  C   UNL     1      45.763   7.608  12.442  0.00  0.00    +0.000 A 
ATOM      6  C   UNL     1      44.788   6.946  11.677  0.00  0.00    +0.000 A 
ATOM      7  C   UNL     1      44.627   5.543  11.726  0.00  0.00    +0.000 A 
ENDROOT
BRANCH   5   8
ATOM      8  C   UNL     1      45.943   9.104  12.347  0.00  0.00    +0.000 C 
BRANCH   8   9
ATOM      9  N   UNL     1      47.213   9.459  11.757  0.00  0.00    +0.000 N 
ATOM     10  C   UNL     1      48.266   9.926  12.499  0.00  0.00    +0.000 C 
ATOM     11  O   UNL     1      48.204  10.054  13.718  0.00  0.00    +0.000 OA
ATOM     12  H   UNL     1      47.257   9.479  10.745  0.00  0.00    +0.000 HD
BRANCH  10  13
ATOM     13  C   UNL     1      49.507  10.218  11.772  0.00  0.00    +0.000 A 
ATOM     14  C   UNL     1      49.800  11.531  11.425  0.00  0.00    +0.000 A 
ATOM     15  S   UNL     1      51.293  11.713  10.625  0.00  0.00    +0.000 S 
ATOM     16  C   UNL     1      51.579  10.036  10.664  0.00  0.00    +0.000 A 
ATOM     17  N   UNL     1      52.702   9.509  10.107  0.00  0.00    +0.000 NA
ATOM     18  C   UNL     1      52.773   8.221  10.168  0.00  0.00    +0.000 A 
ATOM     19  N   UNL     1      51.826   7.414  10.745  0.00  0.00    +0.000 N 
ATOM     20  C   UNL     1      50.701   7.906  11.364  0.00  0.00    +0.000 A 
ATOM     21  O   UNL     1      49.914   7.163  11.943  0.00  0.00    +0.000 OA
ATOM     22  C   UNL     1      50.558   9.349  11.298  0.00  0.00    +0.000 A 
ATOM     23  H   UNL     1      51.951   6.413  10.773  0.00  0.00    +0.000 HD
ENDBRANCH  10  13
ENDBRANCH   8   9
ENDBRANCH   5   8
BRANCH   7  24
ATOM     24  C   UNL     1      43.519   4.909  10.899  0.00  0.00    +0.000 C 
BRANCH  24  25
ATOM     25  N   UNL     1      43.896   4.867   9.504  0.00  0.00    +0.000 N 
ATOM     26  C   UNL     1      44.679   3.853   8.982  0.00  0.00    +0.000 A 
ATOM     27  C   UNL     1      44.639   2.534   9.437  0.00  0.00    +0.000 A 
ATOM     28  C   UNL     1      45.393   1.551   8.795  0.00  0.00    +0.000 A 
ATOM     29  C   UNL     1      46.159   1.902   7.699  0.00  0.00    +0.000 A 
ATOM     30  C   UNL     1      46.141   3.231   7.312  0.00  0.00    +0.000 A 
ATOM     31 CL   UNL     1      47.040   3.753   5.945  0.00  0.00    +0.000 Cl
ATOM     32  N   UNL     1      45.436   4.206   7.926  0.00  0.00    +0.000 NA
ATOM     33  H   UNL     1      44.194   5.751   9.101  0.00  0.00    +0.000 HD
ENDBRANCH  24  25
ENDBRANCH   7  24
TORSDOF 5
ENDMDL
MODEL 7
REMARK VINA RESULT:    -7.547      4.117      8.377
REMARK INTER + INTRA:         -10.761
REMARK INTER:                  -9.388
REMARK INTRA:                  -1.373
REMARK UNBOUND:                -1.008
REMARK  Name = 
REMARK  6 active torsions:
REMARK  status: ('A' for Active; 'I' for Inactive)
REMARK    1  A    between atoms: C_1  and  C_2
REMARK    2  A    between atoms: C_5  and  C_6
REMARK    3  A    between atoms: C_6  and  N_7
REMARK    4  A    between atoms: C_8  and  C_10
REMARK    5  A    between atoms: C_21  and  C_22
REMARK    6  A    between atoms: C_22  and  N_23
REMARK                            x       y       z     vdW  Elec       q    Type
REMARK                         _______ _______ _______ _____ _____    ______ ____
ROOT
ATOM      1  C   UNL     1      47.599   9.136  21.345  0.00  0.00    +0.000 C 
ATOM      2  C   UNL     1      47.788   9.191  19.853  0.00  0.00    +0.000 A 
ATOM      3  C   UNL     1      47.534  10.402  19.190  0.00  0.00    +0.000 A 
ATOM      4  C   UNL     1      47.705  10.521  17.807  0.00  0.00    +0.000 A 
ATOM      5  C   UNL     1      48.149   9.432  17.053  0.00  0.00    +0.000 A 
ATOM      6  C   UNL     1      48.393   8.215  17.712  0.00  0.00    +0.000 A 
ATOM      7  C   UNL     1      48.197   8.067  19.102  0.00  0.00    +0.000 A 
ENDROOT
BRANCH   5   8
ATOM      8  C   UNL     1      48.401   9.581  15.572  0.00  0.00    +0.000 C 
BRANCH   8   9
ATOM      9  N   UNL     1      47.421   8.873  14.782  0.00  0.00    +0.000 N 
ATOM     10  C   UNL     1      47.749   8.186  13.643  0.00  0.00    +0.000 C 
ATOM     11  O   UNL     1      48.902   8.112  13.231  0.00  0.00    +0.000 OA
ATOM     12  H   UNL     1      46.447   9.014  15.028  0.00  0.00    +0.000 HD
BRANCH  10  13
ATOM     13  C   UNL     1      46.656   7.486  12.957  0.00  0.00    +0.000 A 
ATOM     14  C   UNL     1      45.756   8.214  12.190  0.00  0.00    +0.000 A 
ATOM     15  S   UNL     1      44.574   7.257  11.424  0.00  0.00    +0.000 S 
ATOM     16  C   UNL     1      45.187   5.837  12.133  0.00  0.00    +0.000 A 
ATOM     17  N   UNL     1      44.598   4.634  11.903  0.00  0.00    +0.000 NA
ATOM     18  C   UNL     1      45.138   3.646  12.537  0.00  0.00    +0.000 A 
ATOM     19  N   UNL     1      46.220   3.753  13.372  0.00  0.00    +0.000 N 
ATOM     20  C   UNL     1      46.878   4.940  13.594  0.00  0.00    +0.000 A 
ATOM     21  O   UNL     1      47.894   4.987  14.283  0.00  0.00    +0.000 OA
ATOM     22  C   UNL     1      46.293   6.088  12.927  0.00  0.00    +0.000 A 
ATOM     23  H   UNL     1      46.603   2.937  13.825  0.00  0.00    +0.000 HD
ENDBRANCH  10  13
ENDBRANCH   8   9
ENDBRANCH   5   8
BRANCH   7  24
ATOM     24  C   UNL     1      48.444   6.704  19.731  0.00  0.00    +0.000 C 
BRANCH  24  25
ATOM     25  N   UNL     1      49.338   5.925  18.903  0.00  0.00    +0.000 N 
ATOM     26  C   UNL     1      48.940   4.750  18.291  0.00  0.00    +0.000 A 
ATOM     27  C   UNL     1      47.644   4.522  17.825  0.00  0.00    +0.000 A 
ATOM     28  C   UNL     1      47.347   3.345  17.135  0.00  0.00    +0.000 A 
ATOM     29  C   UNL     1      48.356   2.427  16.910  0.00  0.00    +0.000 A 
ATOM     30  C   UNL     1      49.613   2.732  17.404  0.00  0.00    +0.000 A 
ATOM     31 CL   UNL     1      50.933   1.664  17.146  0.00  0.00    +0.000 Cl
ATOM     32  N   UNL     1      49.924   3.853  18.090  0.00  0.00    +0.000 NA
ATOM     33  H   UNL     1      50.280   5.804  19.263  0.00  0.00    +0.000 HD
ENDBRANCH  24  25
ENDBRANCH   7  24
TORSDOF 5
ENDMDL
MODEL 8
REMARK VINA RESULT:    -7.504      4.295      9.923
REMARK INTER + INTRA:         -10.705
REMARK INTER:                  -9.684
REMARK INTRA:                  -1.022
REMARK UNBOUND:                -1.008
REMARK  Name = 
REMARK  6 active torsions:
REMARK  status: ('A' for Active; 'I' for Inactive)
REMARK    1  A    between atoms: C_1  and  C_2
REMARK    2  A    between atoms: C_5  and  C_6
REMARK    3  A    between atoms: C_6  and  N_7
REMARK    4  A    between atoms: C_8  and  C_10
REMARK    5  A    between atoms: C_21  and  C_22
REMARK    6  A    between atoms: C_22  and  N_23
REMARK                            x       y       z     vdW  Elec       q    Type
REMARK                         _______ _______ _______ _____ _____    ______ ____
ROOT
ATOM      1  C   UNL     1      52.915   3.851  18.073  0.00  0.00    +0.000 C 
ATOM      2  C   UNL     1      51.453   3.815  17.717  0.00  0.00    +0.000 A 
ATOM      3  C   UNL     1      50.872   2.578  17.399  0.00  0.00    +0.000 A 
ATOM      4  C   UNL     1      49.516   2.476  17.074  0.00  0.00    +0.000 A 
ATOM      5  C   UNL     1      48.702   3.611  17.073  0.00  0.00    +0.000 A 
ATOM      6  C   UNL     1      49.282   4.853  17.380  0.00  0.00    +0.000 A 
ATOM      7  C   UNL     1      50.656   4.980  17.680  0.00  0.00    +0.000 A 
ENDROOT
BRANCH   5   8
ATOM      8  C   UNL     1      47.224   3.491  16.791  0.00  0.00    +0.000 C 
BRANCH   8   9
ATOM      9  N   UNL     1      46.781   4.446  15.803  0.00  0.00    +0.000 N 
ATOM     10  C   UNL     1      46.838   4.196  14.457  0.00  0.00    +0.000 C 
ATOM     11  O   UNL     1      47.252   3.133  14.005  0.00  0.00    +0.000 OA
ATOM     12  H   UNL     1      46.547   5.375  16.138  0.00  0.00    +0.000 HD
BRANCH  10  13
ATOM     13  C   UNL     1      46.324   5.245  13.569  0.00  0.00    +0.000 A 
ATOM     14  C   UNL     1      47.112   6.357  13.301  0.00  0.00    +0.000 A 
ATOM     15  S   UNL     1      46.396   7.462  12.220  0.00  0.00    +0.000 S 
ATOM     16  C   UNL     1      44.982   6.522  12.111  0.00  0.00    +0.000 A 
ATOM     17  N   UNL     1      43.933   6.929  11.348  0.00  0.00    +0.000 NA
ATOM     18  C   UNL     1      42.909   6.143  11.389  0.00  0.00    +0.000 A 
ATOM     19  N   UNL     1      42.843   4.984  12.117  0.00  0.00    +0.000 N 
ATOM     20  C   UNL     1      43.896   4.508  12.861  0.00  0.00    +0.000 A 
ATOM     21  O   UNL     1      43.834   3.424  13.436  0.00  0.00    +0.000 OA
ATOM     22  C   UNL     1      45.064   5.369  12.873  0.00  0.00    +0.000 A 
ATOM     23  H   UNL     1      42.015   4.406  12.092  0.00  0.00    +0.000 HD
ENDBRANCH  10  13
ENDBRANCH   8   9
ENDBRANCH   5   8
BRANCH   7  24
ATOM     24  C   UNL     1      51.215   6.367  17.961  0.00  0.00    +0.000 C 
BRANCH  24  25
ATOM     25  N   UNL     1      50.159   7.252  18.402  0.00  0.00    +0.000 N 
ATOM     26  C   UNL     1      50.020   7.630  19.725  0.00  0.00    +0.000 A 
ATOM     27  C   UNL     1      51.097   7.807  20.596  0.00  0.00    +0.000 A 
ATOM     28  C   UNL     1      50.877   8.280  21.891  0.00  0.00    +0.000 A 
ATOM     29  C   UNL     1      49.586   8.583  22.284  0.00  0.00    +0.000 A 
ATOM     30  C   UNL     1      48.577   8.381  21.359  0.00  0.00    +0.000 A 
ATOM     31 CL   UNL     1      46.948   8.757  21.750  0.00  0.00    +0.000 Cl
ATOM     32  N   UNL     1      48.759   7.908  20.107  0.00  0.00    +0.000 NA
ATOM     33  H   UNL     1      49.238   7.068  18.015  0.00  0.00    +0.000 HD
ENDBRANCH  24  25
ENDBRANCH   7  24
TORSDOF 5
ENDMDL
MODEL 9
REMARK VINA RESULT:    -7.249      4.120      8.895
REMARK INTER + INTRA:         -10.375
REMARK INTER:                  -8.988
REMARK INTRA:                  -1.387
REMARK UNBOUND:                -1.008
REMARK  Name = 
REMARK  6 active torsions:
REMARK  status: ('A' for Active; 'I' for Inactive)
REMARK    1  A    between atoms: C_1  and  C_2
REMARK    2  A    between atoms: C_5  and  C_6
REMARK    3  A    between atoms: C_6  and  N_7
REMARK    4  A    between atoms: C_8  and  C_10
REMARK    5  A    between atoms: C_21  and  C_22
REMARK    6  A    between atoms: C_22  and  N_23
REMARK                            x       y       z     vdW  Elec       q    Type
REMARK                         _______ _______ _______ _____ _____    ______ ____
ROOT
ATOM      1  C   UNL     1      52.886   2.483  18.108  0.00  0.00    +0.000 C 
ATOM      2  C   UNL     1      51.454   2.813  17.787  0.00  0.00    +0.000 A 
ATOM      3  C   UNL     1      50.681   1.856  17.111  0.00  0.00    +0.000 A 
ATOM      4  C   UNL     1      49.340   2.097  16.797  0.00  0.00    +0.000 A 
ATOM      5  C   UNL     1      48.733   3.300  17.165  0.00  0.00    +0.000 A 
ATOM      6  C   UNL     1      49.506   4.265  17.831  0.00  0.00    +0.000 A 
ATOM      7  C   UNL     1      50.870   4.052  18.129  0.00  0.00    +0.000 A 
ENDROOT
BRANCH   5   8
ATOM      8  C   UNL     1      47.267   3.531  16.888  0.00  0.00    +0.000 C 
BRANCH   8   9
ATOM      9  N   UNL     1      47.059   4.552  15.889  0.00  0.00    +0.000 N 
ATOM     10  C   UNL     1      47.068   4.282  14.545  0.00  0.00    +0.000 C 
ATOM     11  O   UNL     1      47.235   3.149  14.105  0.00  0.00    +0.000 OA
ATOM     12  H   UNL     1      47.039   5.513  16.214  0.00  0.00    +0.000 HD
BRANCH  10  13
ATOM     13  C   UNL     1      46.811   5.412  13.643  0.00  0.00    +0.000 A 
ATOM     14  C   UNL     1      45.694   5.384  12.818  0.00  0.00    +0.000 A 
ATOM     15  S   UNL     1      45.509   6.783  11.864  0.00  0.00    +0.000 S 
ATOM     16  C   UNL     1      46.946   7.456  12.478  0.00  0.00    +0.000 A 
ATOM     17  N   UNL     1      47.390   8.665  12.043  0.00  0.00    +0.000 NA
ATOM     18  C   UNL     1      48.514   9.038  12.558  0.00  0.00    +0.000 A 
ATOM     19  N   UNL     1      49.229   8.313  13.477  0.00  0.00    +0.000 N 
ATOM     20  C   UNL     1      48.794   7.112  13.984  0.00  0.00    +0.000 A 
ATOM     21  O   UNL     1      49.416   6.528  14.867  0.00  0.00    +0.000 OA
ATOM     22  C   UNL     1      47.548   6.633  13.415  0.00  0.00    +0.000 A 
ATOM     23  H   UNL     1      50.094   8.671  13.853  0.00  0.00    +0.000 HD
ENDBRANCH  10  13
ENDBRANCH   8   9
ENDBRANCH   5   8
BRANCH   7  24
ATOM     24  C   UNL     1      51.647   5.166  18.815  0.00  0.00    +0.000 C 
BRANCH  24  25
ATOM     25  N   UNL     1      51.278   6.449  18.260  0.00  0.00    +0.000 N 
ATOM     26  C   UNL     1      50.227   7.195  18.763  0.00  0.00    +0.000 A 
ATOM     27  C   UNL     1      49.866   7.211  20.111  0.00  0.00    +0.000 A 
ATOM     28  C   UNL     1      48.852   8.062  20.552  0.00  0.00    +0.000 A 
ATOM     29  C   UNL     1      48.230   8.895  19.639  0.00  0.00    +0.000 A 
ATOM     30  C   UNL     1      48.650   8.818  18.323  0.00  0.00    +0.000 A 
ATOM     31 CL   UNL     1      47.955   9.834  17.126  0.00  0.00    +0.000 Cl
ATOM     32  N   UNL     1      49.615   7.991  17.865  0.00  0.00    +0.000 NA
ATOM     33  H   UNL     1      51.263   6.503  17.246  0.00  0.00    +0.000 HD
ENDBRANCH  24  25
ENDBRANCH   7  24
TORSDOF 5
ENDMDL
