MODEL 1
REMARK VINA RESULT:    -7.788      0.000      0.000
REMARK INTER + INTRA:         -11.915
REMARK INTER:                 -10.975
REMARK INTRA:                  -0.940
REMARK UNBOUND:                -0.940
REMARK  Name = 
REMARK  7 active torsions:
REMARK  status: ('A' for Active; 'I' for Inactive)
REMARK    1  A    between atoms: C_2  and  C_20
REMARK    2  A    between atoms: N_3  and  C_4
REMARK    3  A    between atoms: C_4  and  C_5
REMARK    4  A    between atoms: C_8  and  C_9
REMARK    5  A    between atoms: C_9  and  C_10
REMARK    6  A    between atoms: C_10  and  N_11
REMARK    7  A    between atoms: N_11  and  C_12
REMARK                            x       y       z     vdW  Elec       q    Type
REMARK                         _______ _______ _______ _____ _____    ______ ____
ROOT
ATOM      1  C   UNL     1      46.910   8.082  13.134  0.00  0.00    +0.000 C 
ENDROOT
BRANCH   1   2
ATOM      2  C   UNL     1      46.049   7.098  12.389  0.00  0.00    +0.000 A 
ATOM      3  C   UNL     1      46.391   6.724  11.087  0.00  0.00    +0.000 A 
ATOM      4  C   UNL     1      45.632   5.779  10.398  0.00  0.00    +0.000 A 
ATOM      5  C   UNL     1      44.516   5.181  10.995  0.00  0.00    +0.000 A 
ATOM      6  C   UNL     1      44.137   5.607  12.276  0.00  0.00    +0.000 A 
ATOM      7  C   UNL     1      44.895   6.557  12.967  0.00  0.00    +0.000 A 
BRANCH   5   8
ATOM      8  C   UNL     1      43.684   4.136  10.285  0.00  0.00    +0.000 C 
BRANCH   8   9
ATOM      9  C   UNL     1      44.438   3.102   9.426  0.00  0.00    +0.000 C 
BRANCH   9  10
ATOM     10  N   UNL     1      44.657   3.556   8.049  0.00  0.00    +0.000 NA
ATOM     11  H   UNL     1      45.005   4.514   8.045  0.00  0.00    +0.000 HD
BRANCH  10  12
ATOM     12  C   UNL     1      45.538   2.676   7.271  0.00  0.00    +0.000 C 
ATOM     13  C   UNL     1      46.222   1.598   8.120  0.00  0.00    +0.000 C 
ATOM     14  C   UNL     1      47.224   0.817   7.281  0.00  0.00    +0.000 C 
ATOM     15  O   UNL     1      48.186   1.691   6.697  0.00  0.00    +0.000 OA
ATOM     16  C   UNL     1      47.583   2.636   5.812  0.00  0.00    +0.000 C 
ATOM     17  C   UNL     1      46.601   3.527   6.562  0.00  0.00    +0.000 C 
ENDBRANCH  10  12
ENDBRANCH   9  10
ENDBRANCH   8   9
ENDBRANCH   5   8
ENDBRANCH   1   2
BRANCH   1  20
ATOM     18  O   UNL     1      49.223   6.522  13.586  0.00  0.00    +0.000 OA
ATOM     19  C   UNL     1      48.510   6.828  14.537  0.00  0.00    +0.000 C 
ATOM     20  N   UNL     1      47.349   7.540  14.393  0.00  0.00    +0.000 N 
ATOM     21  H   UNL     1      46.903   7.931  15.215  0.00  0.00    +0.000 HD
BRANCH  19  22
ATOM     22  C   UNL     1      48.829   6.393  15.903  0.00  0.00    +0.000 A 
ATOM     23  C   UNL     1      49.576   7.217  16.733  0.00  0.00    +0.000 A 
ATOM     24  S   UNL     1      49.876   6.546  18.273  0.00  0.00    +0.000 S 
ATOM     25  C   UNL     1      48.978   5.150  17.899  0.00  0.00    +0.000 A 
ATOM     26  N   UNL     1      48.808   4.160  18.818  0.00  0.00    +0.000 NA
ATOM     27  C   UNL     1      48.075   3.178  18.417  0.00  0.00    +0.000 A 
ATOM     28  N   UNL     1      47.506   3.085  17.173  0.00  0.00    +0.000 N 
ATOM     29  C   UNL     1      47.716   4.021  16.188  0.00  0.00    +0.000 A 
ATOM     30  O   UNL     1      47.309   3.835  15.046  0.00  0.00    +0.000 OA
ATOM     31  C   UNL     1      48.486   5.178  16.607  0.00  0.00    +0.000 A 
ATOM     32  H   UNL     1      46.970   2.274  16.907  0.00  0.00    +0.000 HD
ENDBRANCH  19  22
ENDBRANCH   1  20
TORSDOF 7
ENDMDL
MODEL 2
REMARK VINA RESULT:    -7.608      1.556      2.076
REMARK INTER + INTRA:         -11.662
REMARK INTER:                 -10.656
REMARK INTRA:                  -1.006
REMARK UNBOUND:                -0.940
REMARK  Name = 
REMARK  7 active torsions:
REMARK  status: ('A' for Active; 'I' for Inactive)
REMARK    1  A    between atoms: C_2  and  C_20
REMARK    2  A    between atoms: N_3  and  C_4
REMARK    3  A    between atoms: C_4  and  C_5
REMARK    4  A    between atoms: C_8  and  C_9
REMARK    5  A    between atoms: C_9  and  C_10
REMARK    6  A    between atoms: C_10  and  N_11
REMARK    7  A    between atoms: N_11  and  C_12
REMARK                            x       y       z     vdW  Elec       q    Type
REMARK                         _______ _______ _______ _____ _____    ______ ____
ROOT
ATOM      1  C   UNL     1      47.926   7.251  13.452  0.00  0.00    +0.000 C 
ENDROOT
BRANCH   1   2
ATOM      2  C   UNL     1      46.969   6.226  12.907  0.00  0.00    +0.000 A 
ATOM      3  C   UNL     1      46.650   5.099  13.669  0.00  0.00    +0.000 A 
ATOM      4  C   UNL     1      45.730   4.162  13.199  0.00  0.00    +0.000 A 
ATOM      5  C   UNL     1      45.102   4.332  11.960  0.00  0.00    +0.000 A 
ATOM      6  C   UNL     1      45.474   5.428  11.168  0.00  0.00    +0.000 A 
ATOM      7  C   UNL     1      46.399   6.367  11.636  0.00  0.00    +0.000 A 
BRANCH   5   8
ATOM      8  C   UNL     1      44.083   3.347  11.430  0.00  0.00    +0.000 C 
BRANCH   8   9
ATOM      9  C   UNL     1      44.056   3.114   9.907  0.00  0.00    +0.000 C 
BRANCH   9  10
ATOM     10  N   UNL     1      44.837   1.942   9.497  0.00  0.00    +0.000 NA
ATOM     11  H   UNL     1      44.227   1.242   9.076  0.00  0.00    +0.000 HD
BRANCH  10  12
ATOM     12  C   UNL     1      45.958   2.264   8.605  0.00  0.00    +0.000 C 
ATOM     13  C   UNL     1      45.611   3.323   7.552  0.00  0.00    +0.000 C 
ATOM     14  C   UNL     1      46.768   3.503   6.579  0.00  0.00    +0.000 C 
ATOM     15  O   UNL     1      47.108   2.264   5.962  0.00  0.00    +0.000 OA
ATOM     16  C   UNL     1      47.542   1.294   6.914  0.00  0.00    +0.000 C 
ATOM     17  C   UNL     1      46.433   0.980   7.910  0.00  0.00    +0.000 C 
ENDBRANCH  10  12
ENDBRANCH   9  10
ENDBRANCH   8   9
ENDBRANCH   5   8
ENDBRANCH   1   2
BRANCH   1  20
ATOM     18  O   UNL     1      50.140   6.743  15.133  0.00  0.00    +0.000 OA
ATOM     19  C   UNL     1      49.058   7.034  15.636  0.00  0.00    +0.000 C 
ATOM     20  N   UNL     1      47.929   7.246  14.891  0.00  0.00    +0.000 N 
ATOM     21  H   UNL     1      47.119   7.669  15.330  0.00  0.00    +0.000 HD
BRANCH  19  22
ATOM     22  C   UNL     1      48.888   7.114  17.092  0.00  0.00    +0.000 A 
ATOM     23  C   UNL     1      48.620   8.337  17.690  0.00  0.00    +0.000 A 
ATOM     24  S   UNL     1      48.480   8.253  19.388  0.00  0.00    +0.000 S 
ATOM     25  C   UNL     1      48.728   6.569  19.379  0.00  0.00    +0.000 A 
ATOM     26  N   UNL     1      48.697   5.851  20.536  0.00  0.00    +0.000 NA
ATOM     27  C   UNL     1      48.861   4.582  20.382  0.00  0.00    +0.000 A 
ATOM     28  N   UNL     1      49.068   3.961  19.176  0.00  0.00    +0.000 N 
ATOM     29  C   UNL     1      49.185   4.654  17.994  0.00  0.00    +0.000 A 
ATOM     30  O   UNL     1      49.510   4.083  16.959  0.00  0.00    +0.000 OA
ATOM     31  C   UNL     1      48.949   6.083  18.104  0.00  0.00    +0.000 A 
ATOM     32  H   UNL     1      49.223   2.967  19.124  0.00  0.00    +0.000 HD
ENDBRANCH  19  22
ENDBRANCH   1  20
TORSDOF 7
ENDMDL
MODEL 3
REMARK VINA RESULT:    -7.368      2.233      3.918
REMARK INTER + INTRA:         -11.324
REMARK INTER:                 -10.079
REMARK INTRA:                  -1.245
REMARK UNBOUND:                -0.940
REMARK  Name = 
REMARK  7 active torsions:
REMARK  status: ('A' for Active; 'I' for Inactive)
REMARK    1  A    between atoms: C_2  and  C_20
REMARK    2  A    between atoms: N_3  and  C_4
REMARK    3  A    between atoms: C_4  and  C_5
REMARK    4  A    between atoms: C_8  and  C_9
REMARK    5  A    between atoms: C_9  and  C_10
REMARK    6  A    between atoms: C_10  and  N_11
REMARK    7  A    between atoms: N_11  and  C_12
REMARK                            x       y       z     vdW  Elec       q    Type
REMARK                         _______ _______ _______ _____ _____    ______ ____
ROOT
ATOM      1  C   UNL     1      47.064   4.856  14.547  0.00  0.00    +0.000 C 
ENDROOT
BRANCH   1   2
ATOM      2  C   UNL     1      46.327   4.779  13.238  0.00  0.00    +0.000 A 
ATOM      3  C   UNL     1      45.736   3.576  12.844  0.00  0.00    +0.000 A 
ATOM      4  C   UNL     1      45.009   3.498  11.656  0.00  0.00    +0.000 A 
ATOM      5  C   UNL     1      44.853   4.622  10.835  0.00  0.00    +0.000 A 
ATOM      6  C   UNL     1      45.504   5.809  11.200  0.00  0.00    +0.000 A 
ATOM      7  C   UNL     1      46.235   5.888  12.389  0.00  0.00    +0.000 A 
BRANCH   5   8
ATOM      8  C   UNL     1      44.053   4.578   9.552  0.00  0.00    +0.000 C 
BRANCH   8   9
ATOM      9  C   UNL     1      44.615   3.719   8.402  0.00  0.00    +0.000 C 
BRANCH   9  10
ATOM     10  N   UNL     1      45.869   4.249   7.856  0.00  0.00    +0.000 NA
ATOM     11  H   UNL     1      46.339   4.827   8.551  0.00  0.00    +0.000 HD
BRANCH  10  12
ATOM     12  C   UNL     1      46.772   3.212   7.341  0.00  0.00    +0.000 C 
ATOM     13  C   UNL     1      46.777   3.116   5.811  0.00  0.00    +0.000 C 
ATOM     14  C   UNL     1      47.621   1.934   5.355  0.00  0.00    +0.000 C 
ATOM     15  O   UNL     1      47.151   0.722   5.939  0.00  0.00    +0.000 OA
ATOM     16  C   UNL     1      47.242   0.744   7.364  0.00  0.00    +0.000 C 
ATOM     17  C   UNL     1      46.376   1.856   7.943  0.00  0.00    +0.000 C 
ENDBRANCH  10  12
ENDBRANCH   9  10
ENDBRANCH   8   9
ENDBRANCH   5   8
ENDBRANCH   1   2
BRANCH   1  20
ATOM     18  O   UNL     1      49.241   5.453  16.248  0.00  0.00    +0.000 OA
ATOM     19  C   UNL     1      48.781   6.335  15.528  0.00  0.00    +0.000 C 
ATOM     20  N   UNL     1      47.698   6.137  14.713  0.00  0.00    +0.000 N 
ATOM     21  H   UNL     1      47.481   6.826  14.003  0.00  0.00    +0.000 HD
BRANCH  19  22
ATOM     22  C   UNL     1      49.333   7.695  15.538  0.00  0.00    +0.000 A 
ATOM     23  C   UNL     1      49.420   8.396  16.733  0.00  0.00    +0.000 A 
ATOM     24  S   UNL     1      50.059   9.968  16.560  0.00  0.00    +0.000 S 
ATOM     25  C   UNL     1      50.286   9.750  14.887  0.00  0.00    +0.000 A 
ATOM     26  N   UNL     1      50.840  10.731  14.123  0.00  0.00    +0.000 NA
ATOM     27  C   UNL     1      50.989  10.420  12.880  0.00  0.00    +0.000 A 
ATOM     28  N   UNL     1      50.621   9.221  12.325  0.00  0.00    +0.000 N 
ATOM     29  C   UNL     1      49.986   8.234  13.042  0.00  0.00    +0.000 A 
ATOM     30  O   UNL     1      49.545   7.235  12.483  0.00  0.00    +0.000 OA
ATOM     31  C   UNL     1      49.848   8.510  14.461  0.00  0.00    +0.000 A 
ATOM     32  H   UNL     1      50.733   9.050  11.338  0.00  0.00    +0.000 HD
ENDBRANCH  19  22
ENDBRANCH   1  20
TORSDOF 7
ENDMDL
MODEL 4
REMARK VINA RESULT:    -7.288      2.201      2.812
REMARK INTER + INTRA:         -11.211
REMARK INTER:                 -10.137
REMARK INTRA:                  -1.074
REMARK UNBOUND:                -0.940
REMARK  Name = 
REMARK  7 active torsions:
REMARK  status: ('A' for Active; 'I' for Inactive)
REMARK    1  A    between atoms: C_2  and  C_20
REMARK    2  A    between atoms: N_3  and  C_4
REMARK    3  A    between atoms: C_4  and  C_5
REMARK    4  A    between atoms: C_8  and  C_9
REMARK    5  A    between atoms: C_9  and  C_10
REMARK    6  A    between atoms: C_10  and  N_11
REMARK    7  A    between atoms: N_11  and  C_12
REMARK                            x       y       z     vdW  Elec       q    Type
REMARK                         _______ _______ _______ _____ _____    ______ ____
ROOT
ATOM      1  C   UNL     1      48.218   7.380  14.124  0.00  0.00    +0.000 C 
ENDROOT
BRANCH   1   2
ATOM      2  C   UNL     1      47.093   6.828  13.291  0.00  0.00    +0.000 A 
ATOM      3  C   UNL     1      46.729   5.485  13.420  0.00  0.00    +0.000 A 
ATOM      4  C   UNL     1      45.659   4.967  12.691  0.00  0.00    +0.000 A 
ATOM      5  C   UNL     1      44.925   5.780  11.819  0.00  0.00    +0.000 A 
ATOM      6  C   UNL     1      45.335   7.109  11.642  0.00  0.00    +0.000 A 
ATOM      7  C   UNL     1      46.409   7.629  12.369  0.00  0.00    +0.000 A 
BRANCH   5   8
ATOM      8  C   UNL     1      43.745   5.256  11.030  0.00  0.00    +0.000 C 
BRANCH   8   9
ATOM      9  C   UNL     1      43.974   3.993  10.177  0.00  0.00    +0.000 C 
BRANCH   9  10
ATOM     10  N   UNL     1      44.065   4.283   8.742  0.00  0.00    +0.000 NA
ATOM     11  H   UNL     1      44.403   5.233   8.596  0.00  0.00    +0.000 HD
BRANCH  10  12
ATOM     12  C   UNL     1      44.883   3.317   7.997  0.00  0.00    +0.000 C 
ATOM     13  C   UNL     1      45.243   2.070   8.812  0.00  0.00    +0.000 C 
ATOM     14  C   UNL     1      46.204   1.184   8.031  0.00  0.00    +0.000 C 
ATOM     15  O   UNL     1      47.375   1.907   7.665  0.00  0.00    +0.000 OA
ATOM     16  C   UNL     1      47.077   3.012   6.811  0.00  0.00    +0.000 C 
ATOM     17  C   UNL     1      46.167   4.010   7.518  0.00  0.00    +0.000 C 
ENDBRANCH  10  12
ENDBRANCH   9  10
ENDBRANCH   8   9
ENDBRANCH   5   8
ENDBRANCH   1   2
BRANCH   1  20
ATOM     18  O   UNL     1      50.297   6.409  15.774  0.00  0.00    +0.000 OA
ATOM     19  C   UNL     1      49.170   6.545  16.244  0.00  0.00    +0.000 C 
ATOM     20  N   UNL     1      48.102   6.963  15.497  0.00  0.00    +0.000 N 
ATOM     21  H   UNL     1      47.249   7.244  15.968  0.00  0.00    +0.000 HD
BRANCH  19  22
ATOM     22  C   UNL     1      48.880   6.204  17.642  0.00  0.00    +0.000 A 
ATOM     23  C   UNL     1      49.166   4.932  18.117  0.00  0.00    +0.000 A 
ATOM     24  S   UNL     1      48.740   4.700  19.753  0.00  0.00    +0.000 S 
ATOM     25  C   UNL     1      48.201   6.308  19.896  0.00  0.00    +0.000 A 
ATOM     26  N   UNL     1      47.728   6.784  21.081  0.00  0.00    +0.000 NA
ATOM     27  C   UNL     1      47.389   8.028  21.060  0.00  0.00    +0.000 A 
ATOM     28  N   UNL     1      47.465   8.840  19.958  0.00  0.00    +0.000 N 
ATOM     29  C   UNL     1      47.861   8.382  18.723  0.00  0.00    +0.000 A 
ATOM     30  O   UNL     1      47.781   9.098  17.731  0.00  0.00    +0.000 OA
ATOM     31  C   UNL     1      48.310   7.001  18.705  0.00  0.00    +0.000 A 
ATOM     32  H   UNL     1      47.152   9.797  19.996  0.00  0.00    +0.000 HD
ENDBRANCH  19  22
ENDBRANCH   1  20
TORSDOF 7
ENDMDL
MODEL 5
REMARK VINA RESULT:    -7.230      2.835      8.209
REMARK INTER + INTRA:         -11.129
REMARK INTER:                  -9.530
REMARK INTRA:                  -1.599
REMARK UNBOUND:                -0.940
REMARK  Name = 
REMARK  7 active torsions:
REMARK  status: ('A' for Active; 'I' for Inactive)
REMARK    1  A    between atoms: C_2  and  C_20
REMARK    2  A    between atoms: N_3  and  C_4
REMARK    3  A    between atoms: C_4  and  C_5
REMARK    4  A    between atoms: C_8  and  C_9
REMARK    5  A    between atoms: C_9  and  C_10
REMARK    6  A    between atoms: C_10  and  N_11
REMARK    7  A    between atoms: N_11  and  C_12
REMARK                            x       y       z     vdW  Elec       q    Type
REMARK                         _______ _______ _______ _____ _____    ______ ____
ROOT
ATOM      1  C   UNL     1      47.834   7.819  11.885  0.00  0.00    +0.000 C 
ENDROOT
BRANCH   1   2
ATOM      2  C   UNL     1      48.361   7.960  13.286  0.00  0.00    +0.000 A 
ATOM      3  C   UNL     1      47.738   8.838  14.177  0.00  0.00    +0.000 A 
ATOM      4  C   UNL     1      48.184   8.948  15.494  0.00  0.00    +0.000 A 
ATOM      5  C   UNL     1      49.261   8.180  15.954  0.00  0.00    +0.000 A 
ATOM      6  C   UNL     1      49.925   7.349  15.039  0.00  0.00    +0.000 A 
ATOM      7  C   UNL     1      49.482   7.240  13.718  0.00  0.00    +0.000 A 
BRANCH   5   8
ATOM      8  C   UNL     1      49.755   8.257  17.381  0.00  0.00    +0.000 C 
BRANCH   8   9
ATOM      9  C   UNL     1      49.119   7.290  18.399  0.00  0.00    +0.000 C 
BRANCH   9  10
ATOM     10  N   UNL     1      47.972   6.559  17.849  0.00  0.00    +0.000 NA
ATOM     11  H   UNL     1      47.735   6.919  16.926  0.00  0.00    +0.000 HD
BRANCH  10  12
ATOM     12  C   UNL     1      48.166   5.103  17.808  0.00  0.00    +0.000 C 
ATOM     13  C   UNL     1      49.632   4.682  17.968  0.00  0.00    +0.000 C 
ATOM     14  C   UNL     1      49.776   3.178  17.774  0.00  0.00    +0.000 C 
ATOM     15  O   UNL     1      49.268   2.781  16.504  0.00  0.00    +0.000 OA
ATOM     16  C   UNL     1      47.875   3.062  16.373  0.00  0.00    +0.000 C 
ATOM     17  C   UNL     1      47.614   4.559  16.483  0.00  0.00    +0.000 C 
ENDBRANCH  10  12
ENDBRANCH   9  10
ENDBRANCH   8   9
ENDBRANCH   5   8
ENDBRANCH   1   2
BRANCH   1  20
ATOM     18  O   UNL     1      45.028   7.580  12.126  0.00  0.00    +0.000 OA
ATOM     19  C   UNL     1      45.692   6.591  11.829  0.00  0.00    +0.000 C 
ATOM     20  N   UNL     1      47.058   6.615  11.740  0.00  0.00    +0.000 N 
ATOM     21  H   UNL     1      47.539   5.836  11.306  0.00  0.00    +0.000 HD
BRANCH  19  22
ATOM     22  C   UNL     1      45.059   5.285  11.604  0.00  0.00    +0.000 A 
ATOM     23  C   UNL     1      44.368   4.666  12.637  0.00  0.00    +0.000 A 
ATOM     24  S   UNL     1      43.721   3.146  12.212  0.00  0.00    +0.000 S 
ATOM     25  C   UNL     1      44.303   3.283  10.618  0.00  0.00    +0.000 A 
ATOM     26  N   UNL     1      44.059   2.309   9.699  0.00  0.00    +0.000 NA
ATOM     27  C   UNL     1      44.523   2.557   8.521  0.00  0.00    +0.000 A 
ATOM     28  N   UNL     1      45.224   3.686   8.180  0.00  0.00    +0.000 N 
ATOM     29  C   UNL     1      45.560   4.656   9.094  0.00  0.00    +0.000 A 
ATOM     30  O   UNL     1      46.307   5.579   8.785  0.00  0.00    +0.000 OA
ATOM     31  C   UNL     1      45.011   4.454  10.422  0.00  0.00    +0.000 A 
ATOM     32  H   UNL     1      45.590   3.807   7.249  0.00  0.00    +0.000 HD
ENDBRANCH  19  22
ENDBRANCH   1  20
TORSDOF 7
ENDMDL
MODEL 6
REMARK VINA RESULT:    -7.076      3.681      8.252
REMARK INTER + INTRA:         -10.913
REMARK INTER:                  -9.051
REMARK INTRA:                  -1.862
REMARK UNBOUND:                -0.940
REMARK  Name = 
REMARK  7 active torsions:
REMARK  status: ('A' for Active; 'I' for Inactive)
REMARK    1  A    between atoms: C_2  and  C_20
REMARK    2  A    between atoms: N_3  and  C_4
REMARK    3  A    between atoms: C_4  and  C_5
REMARK    4  A    between atoms: C_8  and  C_9
REMARK    5  A    between atoms: C_9  and  C_10
REMARK    6  A    between atoms: C_10  and  N_11
REMARK    7  A    between atoms: N_11  and  C_12
REMARK                            x       y       z     vdW  Elec       q    Type
REMARK                         _______ _______ _______ _____ _____    ______ ____
ROOT
ATOM      1  C   UNL     1      48.438   8.436  14.625  0.00  0.00    +0.000 C 
ENDROOT
BRANCH   1   2
ATOM      2  C   UNL     1      49.030   7.914  15.906  0.00  0.00    +0.000 A 
ATOM      3  C   UNL     1      48.506   8.331  17.133  0.00  0.00    +0.000 A 
ATOM      4  C   UNL     1      49.011   7.822  18.329  0.00  0.00    +0.000 A 
ATOM      5  C   UNL     1      50.048   6.881  18.328  0.00  0.00    +0.000 A 
ATOM      6  C   UNL     1      50.615   6.516  17.099  0.00  0.00    +0.000 A 
ATOM      7  C   UNL     1      50.113   7.027  15.899  0.00  0.00    +0.000 A 
BRANCH   5   8
ATOM      8  C   UNL     1      50.603   6.292  19.606  0.00  0.00    +0.000 C 
BRANCH   8   9
ATOM      9  C   UNL     1      50.483   4.766  19.786  0.00  0.00    +0.000 C 
BRANCH   9  10
ATOM     10  N   UNL     1      49.092   4.315  19.902  0.00  0.00    +0.000 NA
ATOM     11  H   UNL     1      48.473   5.113  20.033  0.00  0.00    +0.000 HD
BRANCH  10  12
ATOM     12  C   UNL     1      48.646   3.485  18.775  0.00  0.00    +0.000 C 
ATOM     13  C   UNL     1      49.798   2.988  17.894  0.00  0.00    +0.000 C 
ATOM     14  C   UNL     1      49.256   2.258  16.673  0.00  0.00    +0.000 C 
ATOM     15  O   UNL     1      48.375   3.098  15.932  0.00  0.00    +0.000 OA
ATOM     16  C   UNL     1      47.234   3.484  16.698  0.00  0.00    +0.000 C 
ATOM     17  C   UNL     1      47.653   4.288  17.923  0.00  0.00    +0.000 C 
ENDBRANCH  10  12
ENDBRANCH   9  10
ENDBRANCH   8   9
ENDBRANCH   5   8
ENDBRANCH   1   2
BRANCH   1  20
ATOM     18  O   UNL     1      48.851   6.257  12.873  0.00  0.00    +0.000 OA
ATOM     19  C   UNL     1      47.721   6.479  13.300  0.00  0.00    +0.000 C 
ATOM     20  N   UNL     1      47.433   7.542  14.114  0.00  0.00    +0.000 N 
ATOM     21  H   UNL     1      46.540   7.570  14.592  0.00  0.00    +0.000 HD
BRANCH  19  22
ATOM     22  C   UNL     1      46.580   5.641  12.913  0.00  0.00    +0.000 A 
ATOM     23  C   UNL     1      46.614   4.274  13.152  0.00  0.00    +0.000 A 
ATOM     24  S   UNL     1      45.219   3.451  12.616  0.00  0.00    +0.000 S 
ATOM     25  C   UNL     1      44.501   4.900  12.086  0.00  0.00    +0.000 A 
ATOM     26  N   UNL     1      43.254   4.904  11.541  0.00  0.00    +0.000 NA
ATOM     27  C   UNL     1      42.815   6.073  11.218  0.00  0.00    +0.000 A 
ATOM     28  N   UNL     1      43.516   7.241  11.376  0.00  0.00    +0.000 N 
ATOM     29  C   UNL     1      44.807   7.276  11.849  0.00  0.00    +0.000 A 
ATOM     30  O   UNL     1      45.451   8.319  11.844  0.00  0.00    +0.000 OA
ATOM     31  C   UNL     1      45.327   5.991  12.283  0.00  0.00    +0.000 A 
ATOM     32  H   UNL     1      43.132   8.122  11.073  0.00  0.00    +0.000 HD
ENDBRANCH  19  22
ENDBRANCH   1  20
TORSDOF 7
ENDMDL
MODEL 7
REMARK VINA RESULT:    -7.053      2.051      2.760
REMARK INTER + INTRA:         -10.879
REMARK INTER:                  -9.565
REMARK INTRA:                  -1.314
REMARK UNBOUND:                -0.940
REMARK  Name = 
REMARK  7 active torsions:
REMARK  status: ('A' for Active; 'I' for Inactive)
REMARK    1  A    between atoms: C_2  and  C_20
REMARK    2  A    between atoms: N_3  and  C_4
REMARK    3  A    between atoms: C_4  and  C_5
REMARK    4  A    between atoms: C_8  and  C_9
REMARK    5  A    between atoms: C_9  and  C_10
REMARK    6  A    between atoms: C_10  and  N_11
REMARK    7  A    between atoms: N_11  and  C_12
REMARK                            x       y       z     vdW  Elec       q    Type
REMARK                         _______ _______ _______ _____ _____    ______ ____
ROOT
ATOM      1  C   UNL     1      48.670   7.459  12.588  0.00  0.00    +0.000 C 
ENDROOT
BRANCH   1   2
ATOM      2  C   UNL     1      47.336   6.774  12.709  0.00  0.00    +0.000 A 
ATOM      3  C   UNL     1      46.171   7.455  12.347  0.00  0.00    +0.000 A 
ATOM      4  C   UNL     1      44.930   6.820  12.408  0.00  0.00    +0.000 A 
ATOM      5  C   UNL     1      44.825   5.488  12.827  0.00  0.00    +0.000 A 
ATOM      6  C   UNL     1      45.988   4.830  13.252  0.00  0.00    +0.000 A 
ATOM      7  C   UNL     1      47.232   5.465  13.196  0.00  0.00    +0.000 A 
BRANCH   5   8
ATOM      8  C   UNL     1      43.499   4.762  12.882  0.00  0.00    +0.000 C 
BRANCH   8   9
ATOM      9  C   UNL     1      42.884   4.319  11.541  0.00  0.00    +0.000 C 
BRANCH   9  10
ATOM     10  N   UNL     1      43.402   3.027  11.076  0.00  0.00    +0.000 NA
ATOM     11  H   UNL     1      42.659   2.488  10.635  0.00  0.00    +0.000 HD
BRANCH  10  12
ATOM     12  C   UNL     1      44.563   3.145  10.184  0.00  0.00    +0.000 C 
ATOM     13  C   UNL     1      44.535   4.407   9.315  0.00  0.00    +0.000 C 
ATOM     14  C   UNL     1      45.687   4.393   8.319  0.00  0.00    +0.000 C 
ATOM     15  O   UNL     1      45.644   3.219   7.513  0.00  0.00    +0.000 OA
ATOM     16  C   UNL     1      45.782   2.030   8.291  0.00  0.00    +0.000 C 
ATOM     17  C   UNL     1      44.635   1.901   9.287  0.00  0.00    +0.000 C 
ENDBRANCH  10  12
ENDBRANCH   9  10
ENDBRANCH   8   9
ENDBRANCH   5   8
ENDBRANCH   1   2
BRANCH   1  20
ATOM     18  O   UNL     1      49.663   8.936  14.784  0.00  0.00    +0.000 OA
ATOM     19  C   UNL     1      49.989   7.759  14.654  0.00  0.00    +0.000 C 
ATOM     20  N   UNL     1      49.588   6.993  13.593  0.00  0.00    +0.000 N 
ATOM     21  H   UNL     1      49.718   5.988  13.632  0.00  0.00    +0.000 HD
BRANCH  19  22
ATOM     22  C   UNL     1      50.890   7.106  15.612  0.00  0.00    +0.000 A 
ATOM     23  C   UNL     1      52.246   7.406  15.599  0.00  0.00    +0.000 A 
ATOM     24  S   UNL     1      53.149   6.538  16.758  0.00  0.00    +0.000 S 
ATOM     25  C   UNL     1      51.752   5.765  17.348  0.00  0.00    +0.000 A 
ATOM     26  N   UNL     1      51.822   4.894  18.391  0.00  0.00    +0.000 NA
ATOM     27  C   UNL     1      50.686   4.410  18.761  0.00  0.00    +0.000 A 
ATOM     28  N   UNL     1      49.482   4.705  18.174  0.00  0.00    +0.000 N 
ATOM     29  C   UNL     1      49.374   5.517  17.070  0.00  0.00    +0.000 A 
ATOM     30  O   UNL     1      48.303   5.646  16.486  0.00  0.00    +0.000 OA
ATOM     31  C   UNL     1      50.618   6.136  16.648  0.00  0.00    +0.000 A 
ATOM     32  H   UNL     1      48.631   4.268  18.488  0.00  0.00    +0.000 HD
ENDBRANCH  19  22
ENDBRANCH   1  20
TORSDOF 7
ENDMDL
MODEL 8
REMARK VINA RESULT:    -6.871      4.004      9.479
REMARK INTER + INTRA:         -10.624
REMARK INTER:                  -9.063
REMARK INTRA:                  -1.561
REMARK UNBOUND:                -0.940
REMARK  Name = 
REMARK  7 active torsions:
REMARK  status: ('A' for Active; 'I' for Inactive)
REMARK    1  A    between atoms: C_2  and  C_20
REMARK    2  A    between atoms: N_3  and  C_4
REMARK    3  A    between atoms: C_4  and  C_5
REMARK    4  A    between atoms: C_8  and  C_9
REMARK    5  A    between atoms: C_9  and  C_10
REMARK    6  A    between atoms: C_10  and  N_11
REMARK    7  A    between atoms: N_11  and  C_12
REMARK                            x       y       z     vdW  Elec       q    Type
REMARK                         _______ _______ _______ _____ _____    ______ ____
ROOT
ATOM      1  C   UNL     1      47.550   3.687  16.610  0.00  0.00    +0.000 C 
ENDROOT
BRANCH   1   2
ATOM      2  C   UNL     1      47.776   4.379  17.927  0.00  0.00    +0.000 A 
ATOM      3  C   UNL     1      48.834   3.981  18.748  0.00  0.00    +0.000 A 
ATOM      4  C   UNL     1      49.088   4.642  19.950  0.00  0.00    +0.000 A 
ATOM      5  C   UNL     1      48.292   5.719  20.358  0.00  0.00    +0.000 A 
ATOM      6  C   UNL     1      47.191   6.072  19.565  0.00  0.00    +0.000 A 
ATOM      7  C   UNL     1      46.933   5.409  18.361  0.00  0.00    +0.000 A 
BRANCH   5   8
ATOM      8  C   UNL     1      48.552   6.472  21.644  0.00  0.00    +0.000 C 
BRANCH   8   9
ATOM      9  C   UNL     1      48.781   7.992  21.533  0.00  0.00    +0.000 C 
BRANCH   9  10
ATOM     10  N   UNL     1      49.906   8.337  20.657  0.00  0.00    +0.000 NA
ATOM     11  H   UNL     1      50.388   7.492  20.354  0.00  0.00    +0.000 HD
BRANCH  10  12
ATOM     12  C   UNL     1      49.523   9.162  19.504  0.00  0.00    +0.000 C 
ATOM     13  C   UNL     1      48.076   9.664  19.571  0.00  0.00    +0.000 C 
ATOM     14  C   UNL     1      47.705  10.389  18.284  0.00  0.00    +0.000 C 
ATOM     15  O   UNL     1      47.899   9.544  17.153  0.00  0.00    +0.000 OA
ATOM     16  C   UNL     1      49.265   9.153  17.005  0.00  0.00    +0.000 C 
ATOM     17  C   UNL     1      49.731   8.354  18.215  0.00  0.00    +0.000 C 
ENDBRANCH  10  12
ENDBRANCH   9  10
ENDBRANCH   8   9
ENDBRANCH   5   8
ENDBRANCH   1   2
BRANCH   1  20
ATOM     18  O   UNL     1      47.176   3.158  13.859  0.00  0.00    +0.000 OA
ATOM     19  C   UNL     1      46.856   4.255  14.310  0.00  0.00    +0.000 C 
ATOM     20  N   UNL     1      47.050   4.603  15.620  0.00  0.00    +0.000 N 
ATOM     21  H   UNL     1      46.598   5.434  15.983  0.00  0.00    +0.000 HD
BRANCH  19  22
ATOM     22  C   UNL     1      46.292   5.301  13.447  0.00  0.00    +0.000 A 
ATOM     23  C   UNL     1      47.053   6.417  13.127  0.00  0.00    +0.000 A 
ATOM     24  S   UNL     1      46.235   7.542  12.138  0.00  0.00    +0.000 S 
ATOM     25  C   UNL     1      44.850   6.554  12.067  0.00  0.00    +0.000 A 
ATOM     26  N   UNL     1      43.763   6.926  11.337  0.00  0.00    +0.000 NA
ATOM     27  C   UNL     1      42.800   6.069  11.338  0.00  0.00    +0.000 A 
ATOM     28  N   UNL     1      42.816   4.876  12.015  0.00  0.00    +0.000 N 
ATOM     29  C   UNL     1      43.859   4.496  12.827  0.00  0.00    +0.000 A 
ATOM     30  O   UNL     1      43.779   3.492  13.526  0.00  0.00    +0.000 OA
ATOM     31  C   UNL     1      44.996   5.400  12.814  0.00  0.00    +0.000 A 
ATOM     32  H   UNL     1      42.017   4.262  12.004  0.00  0.00    +0.000 HD
ENDBRANCH  19  22
ENDBRANCH   1  20
TORSDOF 7
ENDMDL
MODEL 9
REMARK VINA RESULT:    -6.851      3.724      7.935
REMARK INTER + INTRA:         -10.595
REMARK INTER:                  -8.627
REMARK INTRA:                  -1.968
REMARK UNBOUND:                -0.940
REMARK  Name = 
REMARK  7 active torsions:
REMARK  status: ('A' for Active; 'I' for Inactive)
REMARK    1  A    between atoms: C_2  and  C_20
REMARK    2  A    between atoms: N_3  and  C_4
REMARK    3  A    between atoms: C_4  and  C_5
REMARK    4  A    between atoms: C_8  and  C_9
REMARK    5  A    between atoms: C_9  and  C_10
REMARK    6  A    between atoms: C_10  and  N_11
REMARK    7  A    between atoms: N_11  and  C_12
REMARK                            x       y       z     vdW  Elec       q    Type
REMARK                         _______ _______ _______ _____ _____    ______ ____
ROOT
ATOM      1  C   UNL     1      48.387   8.787  14.554  0.00  0.00    +0.000 C 
ENDROOT
BRANCH   1   2
ATOM      2  C   UNL     1      49.028   8.114  15.737  0.00  0.00    +0.000 A 
ATOM      3  C   UNL     1      49.977   7.109  15.532  0.00  0.00    +0.000 A 
ATOM      4  C   UNL     1      50.617   6.506  16.615  0.00  0.00    +0.000 A 
ATOM      5  C   UNL     1      50.326   6.895  17.928  0.00  0.00    +0.000 A 
ATOM      6  C   UNL     1      49.325   7.857  18.132  0.00  0.00    +0.000 A 
ATOM      7  C   UNL     1      48.681   8.460  17.048  0.00  0.00    +0.000 A 
BRANCH   5   8
ATOM      8  C   UNL     1      51.017   6.279  19.124  0.00  0.00    +0.000 C 
BRANCH   8   9
ATOM      9  C   UNL     1      50.846   4.760  19.328  0.00  0.00    +0.000 C 
BRANCH   9  10
ATOM     10  N   UNL     1      49.472   4.383  19.674  0.00  0.00    +0.000 NA
ATOM     11  H   UNL     1      48.912   5.216  19.850  0.00  0.00    +0.000 HD
BRANCH  10  12
ATOM     12  C   UNL     1      48.828   3.522  18.674  0.00  0.00    +0.000 C 
ATOM     13  C   UNL     1      49.806   2.963  17.634  0.00  0.00    +0.000 C 
ATOM     14  C   UNL     1      49.054   2.200  16.552  0.00  0.00    +0.000 C 
ATOM     15  O   UNL     1      48.074   3.031  15.935  0.00  0.00    +0.000 OA
ATOM     16  C   UNL     1      47.085   3.473  16.866  0.00  0.00    +0.000 C 
ATOM     17  C   UNL     1      47.718   4.313  17.967  0.00  0.00    +0.000 C 
ENDBRANCH  10  12
ENDBRANCH   9  10
ENDBRANCH   8   9
ENDBRANCH   5   8
ENDBRANCH   1   2
BRANCH   1  20
ATOM     18  O   UNL     1      47.515   8.729  11.866  0.00  0.00    +0.000 OA
ATOM     19  C   UNL     1      46.986   7.983  12.686  0.00  0.00    +0.000 C 
ATOM     20  N   UNL     1      47.320   7.987  14.014  0.00  0.00    +0.000 N 
ATOM     21  H   UNL     1      47.001   7.229  14.606  0.00  0.00    +0.000 HD
BRANCH  19  22
ATOM     22  C   UNL     1      45.904   7.068  12.301  0.00  0.00    +0.000 A 
ATOM     23  C   UNL     1      44.804   7.553  11.607  0.00  0.00    +0.000 A 
ATOM     24  S   UNL     1      43.633   6.361  11.264  0.00  0.00    +0.000 S 
ATOM     25  C   UNL     1      44.577   5.146  11.991  0.00  0.00    +0.000 A 
ATOM     26  N   UNL     1      44.156   3.852  12.011  0.00  0.00    +0.000 NA
ATOM     27  C   UNL     1      44.984   3.029  12.557  0.00  0.00    +0.000 A 
ATOM     28  N   UNL     1      46.192   3.382  13.102  0.00  0.00    +0.000 N 
ATOM     29  C   UNL     1      46.622   4.687  13.174  0.00  0.00    +0.000 A 
ATOM     30  O   UNL     1      47.639   4.981  13.792  0.00  0.00    +0.000 OA
ATOM     31  C   UNL     1      45.752   5.647  12.519  0.00  0.00    +0.000 A 
ATOM     32  H   UNL     1      46.782   2.697  13.546  0.00  0.00    +0.000 HD
ENDBRANCH  19  22
ENDBRANCH   1  20
TORSDOF 7
ENDMDL
