MODEL 1
REMARK VINA RESULT:    -8.520      0.000      0.000
REMARK INTER + INTRA:         -14.209
REMARK INTER:                 -13.252
REMARK INTRA:                  -0.957
REMARK UNBOUND:                -0.957
REMARK  Name = 
REMARK  10 active torsions:
REMARK  status: ('A' for Active; 'I' for Inactive)
REMARK    1  A    between atoms: C_2  and  C_23
REMARK    2  A    between atoms: N_3  and  C_4
REMARK    3  A    between atoms: C_4  and  C_5
REMARK    4  A    between atoms: C_8  and  C_9
REMARK    5  A    between atoms: C_9  and  N_10
REMARK    6  A    between atoms: N_10  and  C_11
REMARK    7  A    between atoms: N_10  and  C_14
REMARK    8  A    between atoms: C_11  and  C_12
REMARK    9  A    between atoms: C_12  and  O_13
REMARK   10  A    between atoms: C_14  and  C_15
REMARK                            x       y       z     vdW  Elec       q    Type
REMARK                         _______ _______ _______ _____ _____    ______ ____
ROOT
ATOM      1  C   UNL     1      47.976   6.422  13.895  0.00  0.00    +0.000 A 
ATOM      2  C   UNL     1      47.078   5.354  14.013  0.00  0.00    +0.000 A 
ATOM      3  C   UNL     1      46.173   5.075  12.989  0.00  0.00    +0.000 A 
ATOM      4  C   UNL     1      46.117   5.893  11.853  0.00  0.00    +0.000 A 
ATOM      5  C   UNL     1      47.085   6.890  11.687  0.00  0.00    +0.000 A 
ATOM      6  C   UNL     1      48.014   7.148  12.698  0.00  0.00    +0.000 A 
ENDROOT
BRANCH   1   7
ATOM      7  C   UNL     1      48.846   6.809  15.058  0.00  0.00    +0.000 C 
BRANCH   7  10
ATOM      8  O   UNL     1      50.647   5.498  16.629  0.00  0.00    +0.000 OA
ATOM      9  C   UNL     1      49.478   5.507  17.006  0.00  0.00    +0.000 C 
ATOM     10  N   UNL     1      48.488   6.134  16.277  0.00  0.00    +0.000 N 
ATOM     11  H   UNL     1      47.570   6.270  16.669  0.00  0.00    +0.000 HD
BRANCH   9  12
ATOM     12  C   UNL     1      49.058   4.858  18.245  0.00  0.00    +0.000 A 
ATOM     13  C   UNL     1      48.741   3.518  18.450  0.00  0.00    +0.000 A 
ATOM     14  N   UNL     1      48.422   3.345  19.774  0.00  0.00    +0.000 N 
ATOM     15  C   UNL     1      48.510   4.538  20.435  0.00  0.00    +0.000 A 
ATOM     16  N   UNL     1      48.250   4.702  21.745  0.00  0.00    +0.000 NA
ATOM     17  C   UNL     1      48.420   5.979  22.158  0.00  0.00    +0.000 A 
ATOM     18  C   UNL     1      48.824   7.042  21.362  0.00  0.00    +0.000 A 
ATOM     19  C   UNL     1      49.082   6.810  20.011  0.00  0.00    +0.000 A 
ATOM     20  C   UNL     1      48.913   5.503  19.521  0.00  0.00    +0.000 A 
ATOM     21  H   UNL     1      48.151   2.482  20.222  0.00  0.00    +0.000 HD
ENDBRANCH   9  12
ENDBRANCH   7  10
ENDBRANCH   1   7
BRANCH   4  22
ATOM     22  C   UNL     1      44.995   5.732  10.849  0.00  0.00    +0.000 C 
BRANCH  22  23
ATOM     23  N   UNL     1      44.516   4.331  10.700  0.00  0.00    +0.000 NA
BRANCH  23  24
ATOM     24  C   UNL     1      43.290   4.085  11.503  0.00  0.00    +0.000 C 
BRANCH  24  25
ATOM     25  C   UNL     1      42.515   5.346  11.949  0.00  0.00    +0.000 C 
BRANCH  25  26
ATOM     26  O   UNL     1      42.675   5.570  13.349  0.00  0.00    +0.000 OA
ATOM     27  H   UNL     1      43.130   4.792  13.717  0.00  0.00    +0.000 HD
ENDBRANCH  25  26
ENDBRANCH  24  25
ENDBRANCH  23  24
BRANCH  23  28
ATOM     28  C   UNL     1      44.252   4.058   9.274  0.00  0.00    +0.000 C 
BRANCH  28  29
ATOM     29  C   UNL     1      45.344   3.279   8.573  0.00  0.00    +0.000 A 
ATOM     30  C   UNL     1      45.478   1.898   8.778  0.00  0.00    +0.000 A 
ATOM     31  C   UNL     1      46.415   1.165   8.048  0.00  0.00    +0.000 A 
ATOM     32  C   UNL     1      47.233   1.808   7.122  0.00  0.00    +0.000 A 
ATOM     33  C   UNL     1      47.139   3.186   6.943  0.00  0.00    +0.000 A 
ATOM     34  C   UNL     1      46.197   3.920   7.665  0.00  0.00    +0.000 A 
ENDBRANCH  28  29
ENDBRANCH  23  28
ENDBRANCH  22  23
ENDBRANCH   4  22
TORSDOF 10
ENDMDL
MODEL 2
REMARK VINA RESULT:    -8.023      1.973      2.791
REMARK INTER + INTRA:         -13.436
REMARK INTER:                 -12.314
REMARK INTRA:                  -1.122
REMARK UNBOUND:                -0.957
REMARK  Name = 
REMARK  10 active torsions:
REMARK  status: ('A' for Active; 'I' for Inactive)
REMARK    1  A    between atoms: C_2  and  C_23
REMARK    2  A    between atoms: N_3  and  C_4
REMARK    3  A    between atoms: C_4  and  C_5
REMARK    4  A    between atoms: C_8  and  C_9
REMARK    5  A    between atoms: C_9  and  N_10
REMARK    6  A    between atoms: N_10  and  C_11
REMARK    7  A    between atoms: N_10  and  C_14
REMARK    8  A    between atoms: C_11  and  C_12
REMARK    9  A    between atoms: C_12  and  O_13
REMARK   10  A    between atoms: C_14  and  C_15
REMARK                            x       y       z     vdW  Elec       q    Type
REMARK                         _______ _______ _______ _____ _____    ______ ____
ROOT
ATOM      1  C   UNL     1      46.942   8.038  13.014  0.00  0.00    +0.000 A 
ATOM      2  C   UNL     1      47.526   7.040  12.224  0.00  0.00    +0.000 A 
ATOM      3  C   UNL     1      46.744   6.276  11.358  0.00  0.00    +0.000 A 
ATOM      4  C   UNL     1      45.357   6.464  11.306  0.00  0.00    +0.000 A 
ATOM      5  C   UNL     1      44.790   7.534  12.011  0.00  0.00    +0.000 A 
ATOM      6  C   UNL     1      45.580   8.321  12.855  0.00  0.00    +0.000 A 
ENDROOT
BRANCH   1   7
ATOM      7  C   UNL     1      47.760   8.757  14.050  0.00  0.00    +0.000 C 
BRANCH   7  10
ATOM      8  O   UNL     1      50.163   7.538  14.467  0.00  0.00    +0.000 OA
ATOM      9  C   UNL     1      49.298   7.379  15.325  0.00  0.00    +0.000 C 
ATOM     10  N   UNL     1      48.046   7.945  15.203  0.00  0.00    +0.000 N 
ATOM     11  H   UNL     1      47.402   7.939  15.978  0.00  0.00    +0.000 HD
BRANCH   9  12
ATOM     12  C   UNL     1      49.536   6.584  16.527  0.00  0.00    +0.000 A 
ATOM     13  C   UNL     1      50.458   6.815  17.544  0.00  0.00    +0.000 A 
ATOM     14  N   UNL     1      50.320   5.827  18.487  0.00  0.00    +0.000 N 
ATOM     15  C   UNL     1      49.343   4.951  18.107  0.00  0.00    +0.000 A 
ATOM     16  N   UNL     1      48.975   3.868  18.814  0.00  0.00    +0.000 NA
ATOM     17  C   UNL     1      47.978   3.169  18.226  0.00  0.00    +0.000 A 
ATOM     18  C   UNL     1      47.360   3.492  17.025  0.00  0.00    +0.000 A 
ATOM     19  C   UNL     1      47.782   4.629  16.338  0.00  0.00    +0.000 A 
ATOM     20  C   UNL     1      48.823   5.392  16.897  0.00  0.00    +0.000 A 
ATOM     21  H   UNL     1      50.851   5.729  19.340  0.00  0.00    +0.000 HD
ENDBRANCH   9  12
ENDBRANCH   7  10
ENDBRANCH   1   7
BRANCH   4  22
ATOM     22  C   UNL     1      44.481   5.495  10.541  0.00  0.00    +0.000 C 
BRANCH  22  23
ATOM     23  N   UNL     1      45.096   4.155  10.342  0.00  0.00    +0.000 NA
BRANCH  23  24
ATOM     24  C   UNL     1      44.856   3.266  11.509  0.00  0.00    +0.000 C 
BRANCH  24  25
ATOM     25  C   UNL     1      43.374   3.032  11.881  0.00  0.00    +0.000 C 
BRANCH  25  26
ATOM     26  O   UNL     1      43.024   1.657  11.724  0.00  0.00    +0.000 OA
ATOM     27  H   UNL     1      43.625   1.279  11.059  0.00  0.00    +0.000 HD
ENDBRANCH  25  26
ENDBRANCH  24  25
ENDBRANCH  23  24
BRANCH  23  28
ATOM     28  C   UNL     1      44.544   3.545   9.117  0.00  0.00    +0.000 C 
BRANCH  28  29
ATOM     29  C   UNL     1      45.566   2.835   8.256  0.00  0.00    +0.000 A 
ATOM     30  C   UNL     1      46.333   3.550   7.324  0.00  0.00    +0.000 A 
ATOM     31  C   UNL     1      47.349   2.912   6.610  0.00  0.00    +0.000 A 
ATOM     32  C   UNL     1      47.595   1.556   6.810  0.00  0.00    +0.000 A 
ATOM     33  C   UNL     1      46.809   0.827   7.700  0.00  0.00    +0.000 A 
ATOM     34  C   UNL     1      45.798   1.463   8.421  0.00  0.00    +0.000 A 
ENDBRANCH  28  29
ENDBRANCH  23  28
ENDBRANCH  22  23
ENDBRANCH   4  22
TORSDOF 10
ENDMDL
MODEL 3
REMARK VINA RESULT:    -7.520      2.112      2.723
REMARK INTER + INTRA:         -12.653
REMARK INTER:                 -11.394
REMARK INTRA:                  -1.259
REMARK UNBOUND:                -0.957
REMARK  Name = 
REMARK  10 active torsions:
REMARK  status: ('A' for Active; 'I' for Inactive)
REMARK    1  A    between atoms: C_2  and  C_23
REMARK    2  A    between atoms: N_3  and  C_4
REMARK    3  A    between atoms: C_4  and  C_5
REMARK    4  A    between atoms: C_8  and  C_9
REMARK    5  A    between atoms: C_9  and  N_10
REMARK    6  A    between atoms: N_10  and  C_11
REMARK    7  A    between atoms: N_10  and  C_14
REMARK    8  A    between atoms: C_11  and  C_12
REMARK    9  A    between atoms: C_12  and  O_13
REMARK   10  A    between atoms: C_14  and  C_15
REMARK                            x       y       z     vdW  Elec       q    Type
REMARK                         _______ _______ _______ _____ _____    ______ ____
ROOT
ATOM      1  C   UNL     1      47.734   7.499  13.899  0.00  0.00    +0.000 A 
ATOM      2  C   UNL     1      47.774   6.291  13.191  0.00  0.00    +0.000 A 
ATOM      3  C   UNL     1      46.805   6.003  12.230  0.00  0.00    +0.000 A 
ATOM      4  C   UNL     1      45.752   6.896  11.998  0.00  0.00    +0.000 A 
ATOM      5  C   UNL     1      45.773   8.148  12.624  0.00  0.00    +0.000 A 
ATOM      6  C   UNL     1      46.763   8.451  13.563  0.00  0.00    +0.000 A 
ENDROOT
BRANCH   1   7
ATOM      7  C   UNL     1      48.689   7.743  15.032  0.00  0.00    +0.000 C 
BRANCH   7  10
ATOM      8  O   UNL     1      48.460   6.909  17.617  0.00  0.00    +0.000 OA
ATOM      9  C   UNL     1      49.106   6.196  16.855  0.00  0.00    +0.000 C 
ATOM     10  N   UNL     1      49.291   6.534  15.530  0.00  0.00    +0.000 N 
ATOM     11  H   UNL     1      49.685   5.871  14.881  0.00  0.00    +0.000 HD
BRANCH   9  12
ATOM     12  C   UNL     1      49.722   4.947  17.297  0.00  0.00    +0.000 A 
ATOM     13  C   UNL     1      49.095   3.754  17.644  0.00  0.00    +0.000 A 
ATOM     14  N   UNL     1      50.061   2.836  17.976  0.00  0.00    +0.000 N 
ATOM     15  C   UNL     1      51.300   3.403  17.867  0.00  0.00    +0.000 A 
ATOM     16  N   UNL     1      52.454   2.765  18.132  0.00  0.00    +0.000 NA
ATOM     17  C   UNL     1      53.542   3.544  17.938  0.00  0.00    +0.000 A 
ATOM     18  C   UNL     1      53.529   4.863  17.506  0.00  0.00    +0.000 A 
ATOM     19  C   UNL     1      52.302   5.471  17.244  0.00  0.00    +0.000 A 
ATOM     20  C   UNL     1      51.133   4.713  17.437  0.00  0.00    +0.000 A 
ATOM     21  H   UNL     1      49.912   1.882  18.269  0.00  0.00    +0.000 HD
ENDBRANCH   9  12
ENDBRANCH   7  10
ENDBRANCH   1   7
BRANCH   4  22
ATOM     22  C   UNL     1      44.583   6.490  11.125  0.00  0.00    +0.000 C 
BRANCH  22  23
ATOM     23  N   UNL     1      44.312   5.026  11.122  0.00  0.00    +0.000 NA
BRANCH  23  24
ATOM     24  C   UNL     1      43.264   4.664  12.110  0.00  0.00    +0.000 C 
BRANCH  24  25
ATOM     25  C   UNL     1      43.647   3.557  13.119  0.00  0.00    +0.000 C 
BRANCH  25  26
ATOM     26  O   UNL     1      43.495   2.264  12.534  0.00  0.00    +0.000 OA
ATOM     27  H   UNL     1      42.837   1.781  13.064  0.00  0.00    +0.000 HD
ENDBRANCH  25  26
ENDBRANCH  24  25
ENDBRANCH  23  24
BRANCH  23  28
ATOM     28  C   UNL     1      43.898   4.613   9.767  0.00  0.00    +0.000 C 
BRANCH  28  29
ATOM     29  C   UNL     1      44.916   3.766   9.032  0.00  0.00    +0.000 A 
ATOM     30  C   UNL     1      44.970   2.380   9.236  0.00  0.00    +0.000 A 
ATOM     31  C   UNL     1      45.834   1.589   8.478  0.00  0.00    +0.000 A 
ATOM     32  C   UNL     1      46.661   2.179   7.524  0.00  0.00    +0.000 A 
ATOM     33  C   UNL     1      46.647   3.560   7.346  0.00  0.00    +0.000 A 
ATOM     34  C   UNL     1      45.778   4.352   8.096  0.00  0.00    +0.000 A 
ENDBRANCH  28  29
ENDBRANCH  23  28
ENDBRANCH  22  23
ENDBRANCH   4  22
TORSDOF 10
ENDMDL
MODEL 4
REMARK VINA RESULT:    -7.286      3.542      5.813
REMARK INTER + INTRA:         -12.290
REMARK INTER:                 -11.184
REMARK INTRA:                  -1.105
REMARK UNBOUND:                -0.957
REMARK  Name = 
REMARK  10 active torsions:
REMARK  status: ('A' for Active; 'I' for Inactive)
REMARK    1  A    between atoms: C_2  and  C_23
REMARK    2  A    between atoms: N_3  and  C_4
REMARK    3  A    between atoms: C_4  and  C_5
REMARK    4  A    between atoms: C_8  and  C_9
REMARK    5  A    between atoms: C_9  and  N_10
REMARK    6  A    between atoms: N_10  and  C_11
REMARK    7  A    between atoms: N_10  and  C_14
REMARK    8  A    between atoms: C_11  and  C_12
REMARK    9  A    between atoms: C_12  and  O_13
REMARK   10  A    between atoms: C_14  and  C_15
REMARK                            x       y       z     vdW  Elec       q    Type
REMARK                         _______ _______ _______ _____ _____    ______ ____
ROOT
ATOM      1  C   UNL     1      48.089   6.574  13.657  0.00  0.00    +0.000 A 
ATOM      2  C   UNL     1      47.191   5.523  13.879  0.00  0.00    +0.000 A 
ATOM      3  C   UNL     1      46.233   5.197  12.919  0.00  0.00    +0.000 A 
ATOM      4  C   UNL     1      46.124   5.951  11.744  0.00  0.00    +0.000 A 
ATOM      5  C   UNL     1      47.091   6.928  11.473  0.00  0.00    +0.000 A 
ATOM      6  C   UNL     1      48.072   7.233  12.421  0.00  0.00    +0.000 A 
ENDROOT
BRANCH   1   7
ATOM      7  C   UNL     1      49.021   7.015  14.750  0.00  0.00    +0.000 C 
BRANCH   7  10
ATOM      8  O   UNL     1      50.036   9.529  14.461  0.00  0.00    +0.000 OA
ATOM      9  C   UNL     1      50.776   8.591  14.177  0.00  0.00    +0.000 C 
ATOM     10  N   UNL     1      50.355   7.281  14.279  0.00  0.00    +0.000 N 
ATOM     11  H   UNL     1      51.012   6.523  14.195  0.00  0.00    +0.000 HD
BRANCH   9  12
ATOM     12  C   UNL     1      52.145   8.798  13.714  0.00  0.00    +0.000 A 
ATOM     13  C   UNL     1      53.252   9.207  14.453  0.00  0.00    +0.000 A 
ATOM     14  N   UNL     1      54.341   9.245  13.619  0.00  0.00    +0.000 N 
ATOM     15  C   UNL     1      53.973   8.885  12.353  0.00  0.00    +0.000 A 
ATOM     16  N   UNL     1      54.812   8.832  11.303  0.00  0.00    +0.000 NA
ATOM     17  C   UNL     1      54.202   8.437  10.163  0.00  0.00    +0.000 A 
ATOM     18  C   UNL     1      52.860   8.104  10.033  0.00  0.00    +0.000 A 
ATOM     19  C   UNL     1      52.039   8.175  11.158  0.00  0.00    +0.000 A 
ATOM     20  C   UNL     1      52.616   8.588  12.372  0.00  0.00    +0.000 A 
ATOM     21  H   UNL     1      55.285   9.504  13.869  0.00  0.00    +0.000 HD
ENDBRANCH   9  12
ENDBRANCH   7  10
ENDBRANCH   1   7
BRANCH   4  22
ATOM     22  C   UNL     1      44.951   5.747  10.809  0.00  0.00    +0.000 C 
BRANCH  22  23
ATOM     23  N   UNL     1      44.507   4.331  10.701  0.00  0.00    +0.000 NA
BRANCH  23  24
ATOM     24  C   UNL     1      43.308   4.070  11.540  0.00  0.00    +0.000 C 
BRANCH  24  25
ATOM     25  C   UNL     1      42.517   5.321  11.988  0.00  0.00    +0.000 C 
BRANCH  25  26
ATOM     26  O   UNL     1      42.553   5.460  13.408  0.00  0.00    +0.000 OA
ATOM     27  H   UNL     1      43.335   4.976  13.727  0.00  0.00    +0.000 HD
ENDBRANCH  25  26
ENDBRANCH  24  25
ENDBRANCH  23  24
BRANCH  23  28
ATOM     28  C   UNL     1      44.215   4.021   9.288  0.00  0.00    +0.000 C 
BRANCH  28  29
ATOM     29  C   UNL     1      45.311   3.257   8.576  0.00  0.00    +0.000 A 
ATOM     30  C   UNL     1      45.460   1.876   8.771  0.00  0.00    +0.000 A 
ATOM     31  C   UNL     1      46.400   1.157   8.031  0.00  0.00    +0.000 A 
ATOM     32  C   UNL     1      47.207   1.815   7.105  0.00  0.00    +0.000 A 
ATOM     33  C   UNL     1      47.099   3.193   6.937  0.00  0.00    +0.000 A 
ATOM     34  C   UNL     1      46.154   3.913   7.669  0.00  0.00    +0.000 A 
ENDBRANCH  28  29
ENDBRANCH  23  28
ENDBRANCH  22  23
ENDBRANCH   4  22
TORSDOF 10
ENDMDL
MODEL 5
REMARK VINA RESULT:    -7.221      2.403      2.858
REMARK INTER + INTRA:         -12.189
REMARK INTER:                 -10.986
REMARK INTRA:                  -1.203
REMARK UNBOUND:                -0.957
REMARK  Name = 
REMARK  10 active torsions:
REMARK  status: ('A' for Active; 'I' for Inactive)
REMARK    1  A    between atoms: C_2  and  C_23
REMARK    2  A    between atoms: N_3  and  C_4
REMARK    3  A    between atoms: C_4  and  C_5
REMARK    4  A    between atoms: C_8  and  C_9
REMARK    5  A    between atoms: C_9  and  N_10
REMARK    6  A    between atoms: N_10  and  C_11
REMARK    7  A    between atoms: N_10  and  C_14
REMARK    8  A    between atoms: C_11  and  C_12
REMARK    9  A    between atoms: C_12  and  O_13
REMARK   10  A    between atoms: C_14  and  C_15
REMARK                            x       y       z     vdW  Elec       q    Type
REMARK                         _______ _______ _______ _____ _____    ______ ____
ROOT
ATOM      1  C   UNL     1      47.138   4.735  14.603  0.00  0.00    +0.000 A 
ATOM      2  C   UNL     1      46.352   3.779  13.948  0.00  0.00    +0.000 A 
ATOM      3  C   UNL     1      45.916   3.997  12.641  0.00  0.00    +0.000 A 
ATOM      4  C   UNL     1      46.217   5.198  11.987  0.00  0.00    +0.000 A 
ATOM      5  C   UNL     1      47.093   6.103  12.598  0.00  0.00    +0.000 A 
ATOM      6  C   UNL     1      47.557   5.869  13.896  0.00  0.00    +0.000 A 
ENDROOT
BRANCH   1   7
ATOM      7  C   UNL     1      47.482   4.564  16.056  0.00  0.00    +0.000 C 
BRANCH   7  10
ATOM      8  O   UNL     1      48.498   4.006  18.522  0.00  0.00    +0.000 OA
ATOM      9  C   UNL     1      49.174   3.675  17.551  0.00  0.00    +0.000 C 
ATOM     10  N   UNL     1      48.753   3.922  16.261  0.00  0.00    +0.000 N 
ATOM     11  H   UNL     1      49.235   3.512  15.477  0.00  0.00    +0.000 HD
BRANCH   9  12
ATOM     12  C   UNL     1      50.462   3.003  17.696  0.00  0.00    +0.000 A 
ATOM     13  C   UNL     1      50.818   1.725  17.275  0.00  0.00    +0.000 A 
ATOM     14  N   UNL     1      52.136   1.513  17.597  0.00  0.00    +0.000 N 
ATOM     15  C   UNL     1      52.645   2.613  18.229  0.00  0.00    +0.000 A 
ATOM     16  N   UNL     1      53.908   2.715  18.678  0.00  0.00    +0.000 NA
ATOM     17  C   UNL     1      54.165   3.909  19.258  0.00  0.00    +0.000 A 
ATOM     18  C   UNL     1      53.262   4.955  19.395  0.00  0.00    +0.000 A 
ATOM     19  C   UNL     1      51.967   4.792  18.906  0.00  0.00    +0.000 A 
ATOM     20  C   UNL     1      51.638   3.567  18.301  0.00  0.00    +0.000 A 
ATOM     21  H   UNL     1      52.675   0.678  17.417  0.00  0.00    +0.000 HD
ENDBRANCH   9  12
ENDBRANCH   7  10
ENDBRANCH   1   7
BRANCH   4  22
ATOM     22  C   UNL     1      45.563   5.533  10.662  0.00  0.00    +0.000 C 
BRANCH  22  23
ATOM     23  N   UNL     1      44.270   4.831  10.435  0.00  0.00    +0.000 NA
BRANCH  23  24
ATOM     24  C   UNL     1      43.118   5.652  10.889  0.00  0.00    +0.000 C 
BRANCH  24  25
ATOM     25  C   UNL     1      42.426   5.177  12.188  0.00  0.00    +0.000 C 
BRANCH  25  26
ATOM     26  O   UNL     1      42.943   5.875  13.321  0.00  0.00    +0.000 OA
ATOM     27  H   UNL     1      42.184   6.139  13.869  0.00  0.00    +0.000 HD
ENDBRANCH  25  26
ENDBRANCH  24  25
ENDBRANCH  23  24
BRANCH  23  28
ATOM     28  C   UNL     1      44.136   4.518   8.999  0.00  0.00    +0.000 C 
BRANCH  28  29
ATOM     29  C   UNL     1      45.161   3.535   8.474  0.00  0.00    +0.000 A 
ATOM     30  C   UNL     1      45.169   2.207   8.922  0.00  0.00    +0.000 A 
ATOM     31  C   UNL     1      46.044   1.278   8.357  0.00  0.00    +0.000 A 
ATOM     32  C   UNL     1      46.925   1.673   7.353  0.00  0.00    +0.000 A 
ATOM     33  C   UNL     1      46.956   3.000   6.933  0.00  0.00    +0.000 A 
ATOM     34  C   UNL     1      46.077   3.930   7.490  0.00  0.00    +0.000 A 
ENDBRANCH  28  29
ENDBRANCH  23  28
ENDBRANCH  22  23
ENDBRANCH   4  22
TORSDOF 10
ENDMDL
MODEL 6
REMARK VINA RESULT:    -7.070      1.913      2.502
REMARK INTER + INTRA:         -11.953
REMARK INTER:                 -11.134
REMARK INTRA:                  -0.819
REMARK UNBOUND:                -0.957
REMARK  Name = 
REMARK  10 active torsions:
REMARK  status: ('A' for Active; 'I' for Inactive)
REMARK    1  A    between atoms: C_2  and  C_23
REMARK    2  A    between atoms: N_3  and  C_4
REMARK    3  A    between atoms: C_4  and  C_5
REMARK    4  A    between atoms: C_8  and  C_9
REMARK    5  A    between atoms: C_9  and  N_10
REMARK    6  A    between atoms: N_10  and  C_11
REMARK    7  A    between atoms: N_10  and  C_14
REMARK    8  A    between atoms: C_11  and  C_12
REMARK    9  A    between atoms: C_12  and  O_13
REMARK   10  A    between atoms: C_14  and  C_15
REMARK                            x       y       z     vdW  Elec       q    Type
REMARK                         _______ _______ _______ _____ _____    ______ ____
ROOT
ATOM      1  C   UNL     1      47.541   7.537  13.790  0.00  0.00    +0.000 A 
ATOM      2  C   UNL     1      46.643   8.293  13.026  0.00  0.00    +0.000 A 
ATOM      3  C   UNL     1      45.924   7.700  11.989  0.00  0.00    +0.000 A 
ATOM      4  C   UNL     1      46.130   6.353  11.666  0.00  0.00    +0.000 A 
ATOM      5  C   UNL     1      46.942   5.572  12.498  0.00  0.00    +0.000 A 
ATOM      6  C   UNL     1      47.638   6.159  13.558  0.00  0.00    +0.000 A 
ENDROOT
BRANCH   1   7
ATOM      7  C   UNL     1      48.419   8.209  14.807  0.00  0.00    +0.000 C 
BRANCH   7  10
ATOM      8  O   UNL     1      50.100   8.629  16.912  0.00  0.00    +0.000 OA
ATOM      9  C   UNL     1      49.019   8.098  17.156  0.00  0.00    +0.000 C 
ATOM     10  N   UNL     1      48.103   7.833  16.160  0.00  0.00    +0.000 N 
ATOM     11  H   UNL     1      47.165   7.544  16.389  0.00  0.00    +0.000 HD
BRANCH   9  12
ATOM     12  C   UNL     1      48.634   7.713  18.511  0.00  0.00    +0.000 A 
ATOM     13  C   UNL     1      48.912   6.525  19.180  0.00  0.00    +0.000 A 
ATOM     14  N   UNL     1      48.377   6.602  20.443  0.00  0.00    +0.000 N 
ATOM     15  C   UNL     1      47.746   7.803  20.610  0.00  0.00    +0.000 A 
ATOM     16  N   UNL     1      47.114   8.179  21.736  0.00  0.00    +0.000 NA
ATOM     17  C   UNL     1      46.580   9.418  21.649  0.00  0.00    +0.000 A 
ATOM     18  C   UNL     1      46.651  10.257  20.545  0.00  0.00    +0.000 A 
ATOM     19  C   UNL     1      47.323   9.813  19.407  0.00  0.00    +0.000 A 
ATOM     20  C   UNL     1      47.892   8.528  19.434  0.00  0.00    +0.000 A 
ATOM     21  H   UNL     1      48.418   5.892  21.160  0.00  0.00    +0.000 HD
ENDBRANCH   9  12
ENDBRANCH   7  10
ENDBRANCH   1   7
BRANCH   4  22
ATOM     22  C   UNL     1      45.524   5.766  10.408  0.00  0.00    +0.000 C 
BRANCH  22  23
ATOM     23  N   UNL     1      44.747   4.518  10.640  0.00  0.00    +0.000 NA
BRANCH  23  24
ATOM     24  C   UNL     1      43.628   4.741  11.592  0.00  0.00    +0.000 C 
BRANCH  24  25
ATOM     25  C   UNL     1      43.637   3.854  12.858  0.00  0.00    +0.000 C 
BRANCH  25  26
ATOM     26  O   UNL     1      43.797   2.479  12.511  0.00  0.00    +0.000 OA
ATOM     27  H   UNL     1      44.412   2.440  11.758  0.00  0.00    +0.000 HD
ENDBRANCH  25  26
ENDBRANCH  24  25
ENDBRANCH  23  24
BRANCH  23  28
ATOM     28  C   UNL     1      44.225   4.026   9.350  0.00  0.00    +0.000 C 
BRANCH  28  29
ATOM     29  C   UNL     1      45.225   3.239   8.530  0.00  0.00    +0.000 A 
ATOM     30  C   UNL     1      46.004   3.875   7.553  0.00  0.00    +0.000 A 
ATOM     31  C   UNL     1      47.000   3.170   6.876  0.00  0.00    +0.000 A 
ATOM     32  C   UNL     1      47.213   1.822   7.159  0.00  0.00    +0.000 A 
ATOM     33  C   UNL     1      46.414   1.169   8.094  0.00  0.00    +0.000 A 
ATOM     34  C   UNL     1      45.423   1.874   8.778  0.00  0.00    +0.000 A 
ENDBRANCH  28  29
ENDBRANCH  23  28
ENDBRANCH  22  23
ENDBRANCH   4  22
TORSDOF 10
ENDMDL
MODEL 7
REMARK VINA RESULT:    -6.986      2.734      9.317
REMARK INTER + INTRA:         -11.823
REMARK INTER:                 -10.153
REMARK INTRA:                  -1.669
REMARK UNBOUND:                -0.957
REMARK  Name = 
REMARK  10 active torsions:
REMARK  status: ('A' for Active; 'I' for Inactive)
REMARK    1  A    between atoms: C_2  and  C_23
REMARK    2  A    between atoms: N_3  and  C_4
REMARK    3  A    between atoms: C_4  and  C_5
REMARK    4  A    between atoms: C_8  and  C_9
REMARK    5  A    between atoms: C_9  and  N_10
REMARK    6  A    between atoms: N_10  and  C_11
REMARK    7  A    between atoms: N_10  and  C_14
REMARK    8  A    between atoms: C_11  and  C_12
REMARK    9  A    between atoms: C_12  and  O_13
REMARK   10  A    between atoms: C_14  and  C_15
REMARK                            x       y       z     vdW  Elec       q    Type
REMARK                         _______ _______ _______ _____ _____    ______ ____
ROOT
ATOM      1  C   UNL     1      47.292   7.935  13.013  0.00  0.00    +0.000 A 
ATOM      2  C   UNL     1      47.333   8.745  14.155  0.00  0.00    +0.000 A 
ATOM      3  C   UNL     1      48.504   8.854  14.903  0.00  0.00    +0.000 A 
ATOM      4  C   UNL     1      49.640   8.114  14.550  0.00  0.00    +0.000 A 
ATOM      5  C   UNL     1      49.634   7.393  13.350  0.00  0.00    +0.000 A 
ATOM      6  C   UNL     1      48.469   7.310  12.582  0.00  0.00    +0.000 A 
ENDROOT
BRANCH   1   7
ATOM      7  C   UNL     1      45.992   7.705  12.295  0.00  0.00    +0.000 C 
BRANCH   7  10
ATOM      8  O   UNL     1      43.585   6.680  11.532  0.00  0.00    +0.000 OA
ATOM      9  C   UNL     1      44.548   5.918  11.514  0.00  0.00    +0.000 C 
ATOM     10  N   UNL     1      45.808   6.337  11.892  0.00  0.00    +0.000 N 
ATOM     11  H   UNL     1      46.613   5.755  11.725  0.00  0.00    +0.000 HD
BRANCH   9  12
ATOM     12  C   UNL     1      44.427   4.525  11.094  0.00  0.00    +0.000 A 
ATOM     13  C   UNL     1      43.789   3.479  11.755  0.00  0.00    +0.000 A 
ATOM     14  N   UNL     1      43.901   2.347  10.986  0.00  0.00    +0.000 N 
ATOM     15  C   UNL     1      44.605   2.623   9.848  0.00  0.00    +0.000 A 
ATOM     16  N   UNL     1      44.893   1.720   8.894  0.00  0.00    +0.000 NA
ATOM     17  C   UNL     1      45.593   2.248   7.865  0.00  0.00    +0.000 A 
ATOM     18  C   UNL     1      45.992   3.573   7.750  0.00  0.00    +0.000 A 
ATOM     19  C   UNL     1      45.662   4.464   8.769  0.00  0.00    +0.000 A 
ATOM     20  C   UNL     1      44.942   3.970   9.872  0.00  0.00    +0.000 A 
ATOM     21  H   UNL     1      43.537   1.430  11.204  0.00  0.00    +0.000 HD
ENDBRANCH   9  12
ENDBRANCH   7  10
ENDBRANCH   1   7
BRANCH   4  22
ATOM     22  C   UNL     1      50.834   8.055  15.479  0.00  0.00    +0.000 C 
BRANCH  22  23
ATOM     23  N   UNL     1      51.167   6.681  15.945  0.00  0.00    +0.000 NA
BRANCH  23  24
ATOM     24  C   UNL     1      52.626   6.524  16.181  0.00  0.00    +0.000 C 
BRANCH  24  25
ATOM     25  C   UNL     1      53.543   7.457  15.358  0.00  0.00    +0.000 C 
BRANCH  25  26
ATOM     26  O   UNL     1      54.113   6.759  14.250  0.00  0.00    +0.000 OA
ATOM     27  H   UNL     1      53.766   5.850  14.272  0.00  0.00    +0.000 HD
ENDBRANCH  25  26
ENDBRANCH  24  25
ENDBRANCH  23  24
BRANCH  23  28
ATOM     28  C   UNL     1      50.419   6.395  17.184  0.00  0.00    +0.000 C 
BRANCH  28  29
ATOM     29  C   UNL     1      49.487   5.206  17.092  0.00  0.00    +0.000 A 
ATOM     30  C   UNL     1      48.258   5.313  16.424  0.00  0.00    +0.000 A 
ATOM     31  C   UNL     1      47.451   4.189  16.247  0.00  0.00    +0.000 A 
ATOM     32  C   UNL     1      47.858   2.954  16.748  0.00  0.00    +0.000 A 
ATOM     33  C   UNL     1      49.055   2.845  17.452  0.00  0.00    +0.000 A 
ATOM     34  C   UNL     1      49.868   3.966  17.623  0.00  0.00    +0.000 A 
ENDBRANCH  28  29
ENDBRANCH  23  28
ENDBRANCH  22  23
ENDBRANCH   4  22
TORSDOF 10
ENDMDL
MODEL 8
REMARK VINA RESULT:    -6.773      3.355     10.447
REMARK INTER + INTRA:         -11.491
REMARK INTER:                  -9.444
REMARK INTRA:                  -2.047
REMARK UNBOUND:                -0.957
REMARK  Name = 
REMARK  10 active torsions:
REMARK  status: ('A' for Active; 'I' for Inactive)
REMARK    1  A    between atoms: C_2  and  C_23
REMARK    2  A    between atoms: N_3  and  C_4
REMARK    3  A    between atoms: C_4  and  C_5
REMARK    4  A    between atoms: C_8  and  C_9
REMARK    5  A    between atoms: C_9  and  N_10
REMARK    6  A    between atoms: N_10  and  C_11
REMARK    7  A    between atoms: N_10  and  C_14
REMARK    8  A    between atoms: C_11  and  C_12
REMARK    9  A    between atoms: C_12  and  O_13
REMARK   10  A    between atoms: C_14  and  C_15
REMARK                            x       y       z     vdW  Elec       q    Type
REMARK                         _______ _______ _______ _____ _____    ______ ____
ROOT
ATOM      1  C   UNL     1      48.852   4.054  17.022  0.00  0.00    +0.000 A 
ATOM      2  C   UNL     1      49.405   5.337  16.915  0.00  0.00    +0.000 A 
ATOM      3  C   UNL     1      50.702   5.587  17.361  0.00  0.00    +0.000 A 
ATOM      4  C   UNL     1      51.450   4.570  17.968  0.00  0.00    +0.000 A 
ATOM      5  C   UNL     1      50.941   3.265  17.975  0.00  0.00    +0.000 A 
ATOM      6  C   UNL     1      49.652   3.008  17.498  0.00  0.00    +0.000 A 
ENDROOT
BRANCH   1   7
ATOM      7  C   UNL     1      47.408   3.823  16.678  0.00  0.00    +0.000 C 
BRANCH   7  10
ATOM      8  O   UNL     1      47.282   3.168  14.035  0.00  0.00    +0.000 OA
ATOM      9  C   UNL     1      46.890   4.287  14.353  0.00  0.00    +0.000 C 
ATOM     10  N   UNL     1      46.922   4.719  15.663  0.00  0.00    +0.000 N 
ATOM     11  H   UNL     1      46.457   5.571  15.934  0.00  0.00    +0.000 HD
BRANCH   9  12
ATOM     12  C   UNL     1      46.366   5.233  13.371  0.00  0.00    +0.000 A 
ATOM     13  C   UNL     1      47.040   6.266  12.726  0.00  0.00    +0.000 A 
ATOM     14  N   UNL     1      46.166   6.885  11.867  0.00  0.00    +0.000 N 
ATOM     15  C   UNL     1      44.937   6.293  11.944  0.00  0.00    +0.000 A 
ATOM     16  N   UNL     1      43.862   6.677  11.233  0.00  0.00    +0.000 NA
ATOM     17  C   UNL     1      42.769   5.922  11.485  0.00  0.00    +0.000 A 
ATOM     18  C   UNL     1      42.707   4.852  12.367  0.00  0.00    +0.000 A 
ATOM     19  C   UNL     1      43.855   4.499  13.075  0.00  0.00    +0.000 A 
ATOM     20  C   UNL     1      45.022   5.253  12.861  0.00  0.00    +0.000 A 
ATOM     21  H   UNL     1      46.367   7.669  11.263  0.00  0.00    +0.000 HD
ENDBRANCH   9  12
ENDBRANCH   7  10
ENDBRANCH   1   7
BRANCH   4  22
ATOM     22  C   UNL     1      52.763   4.889  18.652  0.00  0.00    +0.000 C 
BRANCH  22  23
ATOM     23  N   UNL     1      52.712   4.779  20.135  0.00  0.00    +0.000 NA
BRANCH  23  24
ATOM     24  C   UNL     1      54.057   4.518  20.709  0.00  0.00    +0.000 C 
BRANCH  24  25
ATOM     25  C   UNL     1      54.206   3.194  21.494  0.00  0.00    +0.000 C 
BRANCH  25  26
ATOM     26  O   UNL     1      54.463   2.106  20.606  0.00  0.00    +0.000 OA
ATOM     27  H   UNL     1      54.079   1.307  21.008  0.00  0.00    +0.000 HD
ENDBRANCH  25  26
ENDBRANCH  24  25
ENDBRANCH  23  24
BRANCH  23  28
ATOM     28  C   UNL     1      52.155   6.027  20.694  0.00  0.00    +0.000 C 
BRANCH  28  29
ATOM     29  C   UNL     1      50.647   6.037  20.822  0.00  0.00    +0.000 A 
ATOM     30  C   UNL     1      49.910   7.182  20.486  0.00  0.00    +0.000 A 
ATOM     31  C   UNL     1      48.515   7.152  20.502  0.00  0.00    +0.000 A 
ATOM     32  C   UNL     1      47.848   5.985  20.868  0.00  0.00    +0.000 A 
ATOM     33  C   UNL     1      48.570   4.856  21.247  0.00  0.00    +0.000 A 
ATOM     34  C   UNL     1      49.965   4.880  21.224  0.00  0.00    +0.000 A 
ENDBRANCH  28  29
ENDBRANCH  23  28
ENDBRANCH  22  23
ENDBRANCH   4  22
TORSDOF 10
ENDMDL
MODEL 9
REMARK VINA RESULT:    -6.650      2.568      9.156
REMARK INTER + INTRA:         -11.300
REMARK INTER:                  -9.313
REMARK INTRA:                  -1.987
REMARK UNBOUND:                -0.957
REMARK  Name = 
REMARK  10 active torsions:
REMARK  status: ('A' for Active; 'I' for Inactive)
REMARK    1  A    between atoms: C_2  and  C_23
REMARK    2  A    between atoms: N_3  and  C_4
REMARK    3  A    between atoms: C_4  and  C_5
REMARK    4  A    between atoms: C_8  and  C_9
REMARK    5  A    between atoms: C_9  and  N_10
REMARK    6  A    between atoms: N_10  and  C_11
REMARK    7  A    between atoms: N_10  and  C_14
REMARK    8  A    between atoms: C_11  and  C_12
REMARK    9  A    between atoms: C_12  and  O_13
REMARK   10  A    between atoms: C_14  and  C_15
REMARK                            x       y       z     vdW  Elec       q    Type
REMARK                         _______ _______ _______ _____ _____    ______ ____
ROOT
ATOM      1  C   UNL     1      48.913   8.115  15.324  0.00  0.00    +0.000 A 
ATOM      2  C   UNL     1      48.743   8.730  16.571  0.00  0.00    +0.000 A 
ATOM      3  C   UNL     1      49.596   8.426  17.631  0.00  0.00    +0.000 A 
ATOM      4  C   UNL     1      50.602   7.463  17.476  0.00  0.00    +0.000 A 
ATOM      5  C   UNL     1      50.841   6.931  16.203  0.00  0.00    +0.000 A 
ATOM      6  C   UNL     1      50.006   7.261  15.132  0.00  0.00    +0.000 A 
ENDROOT
BRANCH   1   7
ATOM      7  C   UNL     1      47.906   8.333  14.230  0.00  0.00    +0.000 C 
BRANCH   7  10
ATOM      8  O   UNL     1      47.607   7.130  11.803  0.00  0.00    +0.000 OA
ATOM      9  C   UNL     1      46.982   6.652  12.745  0.00  0.00    +0.000 C 
ATOM     10  N   UNL     1      47.057   7.193  14.012  0.00  0.00    +0.000 N 
ATOM     11  H   UNL     1      46.669   6.704  14.803  0.00  0.00    +0.000 HD
BRANCH   9  12
ATOM     12  C   UNL     1      46.121   5.482  12.590  0.00  0.00    +0.000 A 
ATOM     13  C   UNL     1      45.616   4.647  13.582  0.00  0.00    +0.000 A 
ATOM     14  N   UNL     1      44.833   3.688  12.986  0.00  0.00    +0.000 N 
ATOM     15  C   UNL     1      44.824   3.869  11.631  0.00  0.00    +0.000 A 
ATOM     16  N   UNL     1      44.156   3.087  10.764  0.00  0.00    +0.000 NA
ATOM     17  C   UNL     1      44.302   3.484   9.480  0.00  0.00    +0.000 A 
ATOM     18  C   UNL     1      45.043   4.575   9.046  0.00  0.00    +0.000 A 
ATOM     19  C   UNL     1      45.712   5.350   9.992  0.00  0.00    +0.000 A 
ATOM     20  C   UNL     1      45.605   4.982  11.345  0.00  0.00    +0.000 A 
ATOM     21  H   UNL     1      44.333   2.944  13.449  0.00  0.00    +0.000 HD
ENDBRANCH   9  12
ENDBRANCH   7  10
ENDBRANCH   1   7
BRANCH   4  22
ATOM     22  C   UNL     1      51.380   6.969  18.677  0.00  0.00    +0.000 C 
BRANCH  22  23
ATOM     23  N   UNL     1      51.375   5.488  18.831  0.00  0.00    +0.000 NA
BRANCH  23  24
ATOM     24  C   UNL     1      52.447   5.032  19.754  0.00  0.00    +0.000 C 
BRANCH  24  25
ATOM     25  C   UNL     1      53.410   3.964  19.188  0.00  0.00    +0.000 C 
BRANCH  25  26
ATOM     26  O   UNL     1      53.391   2.787  19.995  0.00  0.00    +0.000 OA
ATOM     27  H   UNL     1      54.121   2.218  19.694  0.00  0.00    +0.000 HD
ENDBRANCH  25  26
ENDBRANCH  24  25
ENDBRANCH  23  24
BRANCH  23  28
ATOM     28  C   UNL     1      50.056   5.057  19.332  0.00  0.00    +0.000 C 
BRANCH  28  29
ATOM     29  C   UNL     1      49.199   4.346  18.307  0.00  0.00    +0.000 A 
ATOM     30  C   UNL     1      47.993   4.914  17.868  0.00  0.00    +0.000 A 
ATOM     31  C   UNL     1      47.261   4.310  16.845  0.00  0.00    +0.000 A 
ATOM     32  C   UNL     1      47.719   3.129  16.265  0.00  0.00    +0.000 A 
ATOM     33  C   UNL     1      48.891   2.533  16.725  0.00  0.00    +0.000 A 
ATOM     34  C   UNL     1      49.630   3.138  17.742  0.00  0.00    +0.000 A 
ENDBRANCH  28  29
ENDBRANCH  23  28
ENDBRANCH  22  23
ENDBRANCH   4  22
TORSDOF 10
ENDMDL
