MODEL 1
REMARK VINA RESULT:    -8.042      0.000      0.000
REMARK INTER + INTRA:         -11.860
REMARK INTER:                 -10.863
REMARK INTRA:                  -0.997
REMARK UNBOUND:                -0.997
REMARK  Name = 
REMARK  6 active torsions:
REMARK  status: ('A' for Active; 'I' for Inactive)
REMARK    1  A    between atoms: C_2  and  C_25
REMARK    2  A    between atoms: N_3  and  C_4
REMARK    3  A    between atoms: C_4  and  C_5
REMARK    4  A    between atoms: C_8  and  C_9
REMARK    5  A    between atoms: C_9  and  N_10
REMARK    6  A    between atoms: C_11  and  C_13
REMARK                            x       y       z     vdW  Elec       q    Type
REMARK                         _______ _______ _______ _____ _____    ______ ____
ROOT
ATOM      1  C   UNL     1      44.860   5.962  11.189  0.00  0.00    +0.000 A 
ATOM      2  C   UNL     1      44.479   7.273  11.509  0.00  0.00    +0.000 A 
ATOM      3  C   UNL     1      45.286   8.073  12.325  0.00  0.00    +0.000 A 
ATOM      4  C   UNL     1      46.502   7.586  12.823  0.00  0.00    +0.000 A 
ATOM      5  C   UNL     1      46.879   6.273  12.508  0.00  0.00    +0.000 A 
ATOM      6  C   UNL     1      46.074   5.474  11.690  0.00  0.00    +0.000 A 
ENDROOT
BRANCH   1   7
ATOM      7  C   UNL     1      43.997   5.110  10.294  0.00  0.00    +0.000 C 
BRANCH   7  10
ATOM      8  O   UNL     1      44.960   2.476  10.212  0.00  0.00    +0.000 OA
ATOM      9  C   UNL     1      45.178   3.220   9.266  0.00  0.00    +0.000 C 
ATOM     10  N   UNL     1      44.770   4.538   9.217  0.00  0.00    +0.000 N 
ATOM     11  H   UNL     1      44.792   5.038   8.341  0.00  0.00    +0.000 HD
BRANCH   9  12
ATOM     12  C   UNL     1      45.873   2.712   8.051  0.00  0.00    +0.000 A 
ATOM     13  C   UNL     1      46.378   1.404   8.057  0.00  0.00    +0.000 A 
ATOM     14  C   UNL     1      46.997   0.886   6.916  0.00  0.00    +0.000 A 
ATOM     15  C   UNL     1      47.122   1.679   5.776  0.00  0.00    +0.000 A 
ATOM     16 CL   UNL     1      47.858   1.036   4.360  0.00  0.00    +0.000 Cl
ATOM     17  C   UNL     1      46.653   2.995   5.772  0.00  0.00    +0.000 A 
ATOM     18  C   UNL     1      46.033   3.513   6.912  0.00  0.00    +0.000 A 
ENDBRANCH   9  12
ENDBRANCH   7  10
ENDBRANCH   1   7
BRANCH   4  19
ATOM     19  C   UNL     1      47.380   8.441  13.700  0.00  0.00    +0.000 C 
BRANCH  19  20
ATOM     20  N   UNL     1      47.758   7.751  14.907  0.00  0.00    +0.000 N 
ATOM     21  C   UNL     1      49.028   7.257  15.072  0.00  0.00    +0.000 C 
ATOM     22  O   UNL     1      49.906   7.425  14.229  0.00  0.00    +0.000 OA
ATOM     23  H   UNL     1      47.008   7.399  15.494  0.00  0.00    +0.000 HD
BRANCH  21  24
ATOM     24  C   UNL     1      49.308   6.571  16.339  0.00  0.00    +0.000 A 
ATOM     25  C   UNL     1      50.258   7.087  17.209  0.00  0.00    +0.000 A 
ATOM     26  S   UNL     1      50.422   6.194  18.654  0.00  0.00    +0.000 S 
ATOM     27  C   UNL     1      49.266   5.055  18.143  0.00  0.00    +0.000 A 
ATOM     28  N   UNL     1      48.945   3.986  18.921  0.00  0.00    +0.000 NA
ATOM     29  C   UNL     1      48.079   3.184  18.395  0.00  0.00    +0.000 A 
ATOM     30  N   UNL     1      47.500   3.358  17.166  0.00  0.00    +0.000 N 
ATOM     31  C   UNL     1      47.770   4.438  16.359  0.00  0.00    +0.000 A 
ATOM     32  O   UNL     1      47.198   4.588  15.284  0.00  0.00    +0.000 OA
ATOM     33  C   UNL     1      48.748   5.363  16.898  0.00  0.00    +0.000 A 
ATOM     34  H   UNL     1      46.820   2.699  16.817  0.00  0.00    +0.000 HD
ENDBRANCH  21  24
ENDBRANCH  19  20
ENDBRANCH   4  19
TORSDOF 6
ENDMDL
MODEL 2
REMARK VINA RESULT:    -8.016      1.548      1.762
REMARK INTER + INTRA:         -11.825
REMARK INTER:                 -10.915
REMARK INTRA:                  -0.910
REMARK UNBOUND:                -0.997
REMARK  Name = 
REMARK  6 active torsions:
REMARK  status: ('A' for Active; 'I' for Inactive)
REMARK    1  A    between atoms: C_2  and  C_25
REMARK    2  A    between atoms: N_3  and  C_4
REMARK    3  A    between atoms: C_4  and  C_5
REMARK    4  A    between atoms: C_8  and  C_9
REMARK    5  A    between atoms: C_9  and  N_10
REMARK    6  A    between atoms: C_11  and  C_13
REMARK                            x       y       z     vdW  Elec       q    Type
REMARK                         _______ _______ _______ _____ _____    ______ ____
ROOT
ATOM      1  C   UNL     1      45.491   4.523  12.513  0.00  0.00    +0.000 A 
ATOM      2  C   UNL     1      45.391   5.847  12.062  0.00  0.00    +0.000 A 
ATOM      3  C   UNL     1      46.219   6.846  12.588  0.00  0.00    +0.000 A 
ATOM      4  C   UNL     1      47.179   6.537  13.561  0.00  0.00    +0.000 A 
ATOM      5  C   UNL     1      47.273   5.215  14.017  0.00  0.00    +0.000 A 
ATOM      6  C   UNL     1      46.448   4.216  13.489  0.00  0.00    +0.000 A 
ENDROOT
BRANCH   1   7
ATOM      7  C   UNL     1      44.610   3.448  11.931  0.00  0.00    +0.000 C 
BRANCH   7  10
ATOM      8  O   UNL     1      44.023   4.240   9.304  0.00  0.00    +0.000 OA
ATOM      9  C   UNL     1      44.855   3.362   9.490  0.00  0.00    +0.000 C 
ATOM     10  N   UNL     1      45.198   2.883  10.738  0.00  0.00    +0.000 N 
ATOM     11  H   UNL     1      46.026   2.317  10.848  0.00  0.00    +0.000 HD
BRANCH   9  12
ATOM     12  C   UNL     1      45.606   2.780   8.344  0.00  0.00    +0.000 A 
ATOM     13  C   UNL     1      46.042   1.449   8.426  0.00  0.00    +0.000 A 
ATOM     14  C   UNL     1      46.712   0.863   7.349  0.00  0.00    +0.000 A 
ATOM     15  C   UNL     1      46.958   1.610   6.197  0.00  0.00    +0.000 A 
ATOM     16 CL   UNL     1      47.757   0.883   4.857  0.00  0.00    +0.000 Cl
ATOM     17  C   UNL     1      46.558   2.946   6.119  0.00  0.00    +0.000 A 
ATOM     18  C   UNL     1      45.886   3.533   7.195  0.00  0.00    +0.000 A 
ENDBRANCH   9  12
ENDBRANCH   7  10
ENDBRANCH   1   7
BRANCH   4  19
ATOM     19  C   UNL     1      48.077   7.604  14.131  0.00  0.00    +0.000 C 
BRANCH  19  20
ATOM     20  N   UNL     1      48.129   7.542  15.570  0.00  0.00    +0.000 N 
ATOM     21  C   UNL     1      49.211   6.999  16.216  0.00  0.00    +0.000 C 
ATOM     22  O   UNL     1      50.196   6.591  15.605  0.00  0.00    +0.000 OA
ATOM     23  H   UNL     1      47.252   7.647  16.070  0.00  0.00    +0.000 HD
BRANCH  21  24
ATOM     24  C   UNL     1      49.162   6.985  17.683  0.00  0.00    +0.000 A 
ATOM     25  C   UNL     1      49.360   8.162  18.392  0.00  0.00    +0.000 A 
ATOM     26  S   UNL     1      49.221   7.976  20.083  0.00  0.00    +0.000 S 
ATOM     27  C   UNL     1      48.946   6.304  19.929  0.00  0.00    +0.000 A 
ATOM     28  N   UNL     1      48.768   5.520  21.027  0.00  0.00    +0.000 NA
ATOM     29  C   UNL     1      48.604   4.266  20.765  0.00  0.00    +0.000 A 
ATOM     30  N   UNL     1      48.592   3.725  19.506  0.00  0.00    +0.000 N 
ATOM     31  C   UNL     1      48.736   4.482  18.368  0.00  0.00    +0.000 A 
ATOM     32  O   UNL     1      48.675   3.972  17.253  0.00  0.00    +0.000 OA
ATOM     33  C   UNL     1      48.939   5.897  18.607  0.00  0.00    +0.000 A 
ATOM     34  H   UNL     1      48.447   2.736  19.370  0.00  0.00    +0.000 HD
ENDBRANCH  21  24
ENDBRANCH  19  20
ENDBRANCH   4  19
TORSDOF 6
ENDMDL
MODEL 3
REMARK VINA RESULT:    -7.921      2.358      2.863
REMARK INTER + INTRA:         -11.696
REMARK INTER:                 -10.691
REMARK INTRA:                  -1.005
REMARK UNBOUND:                -0.997
REMARK  Name = 
REMARK  6 active torsions:
REMARK  status: ('A' for Active; 'I' for Inactive)
REMARK    1  A    between atoms: C_2  and  C_25
REMARK    2  A    between atoms: N_3  and  C_4
REMARK    3  A    between atoms: C_4  and  C_5
REMARK    4  A    between atoms: C_8  and  C_9
REMARK    5  A    between atoms: C_9  and  N_10
REMARK    6  A    between atoms: C_11  and  C_13
REMARK                            x       y       z     vdW  Elec       q    Type
REMARK                         _______ _______ _______ _____ _____    ______ ____
ROOT
ATOM      1  C   UNL     1      45.481   4.155  12.545  0.00  0.00    +0.000 A 
ATOM      2  C   UNL     1      45.694   5.498  12.205  0.00  0.00    +0.000 A 
ATOM      3  C   UNL     1      46.615   6.279  12.913  0.00  0.00    +0.000 A 
ATOM      4  C   UNL     1      47.359   5.725  13.964  0.00  0.00    +0.000 A 
ATOM      5  C   UNL     1      47.141   4.384  14.308  0.00  0.00    +0.000 A 
ATOM      6  C   UNL     1      46.222   3.603  13.598  0.00  0.00    +0.000 A 
ENDROOT
BRANCH   1   7
ATOM      7  C   UNL     1      44.501   3.314  11.768  0.00  0.00    +0.000 C 
BRANCH   7  10
ATOM      8  O   UNL     1      44.189   4.345   9.177  0.00  0.00    +0.000 OA
ATOM      9  C   UNL     1      44.910   3.372   9.348  0.00  0.00    +0.000 C 
ATOM     10  N   UNL     1      45.112   2.773  10.576  0.00  0.00    +0.000 N 
ATOM     11  H   UNL     1      45.867   2.115  10.695  0.00  0.00    +0.000 HD
BRANCH   9  12
ATOM     12  C   UNL     1      45.677   2.791   8.211  0.00  0.00    +0.000 A 
ATOM     13  C   UNL     1      46.160   1.480   8.321  0.00  0.00    +0.000 A 
ATOM     14  C   UNL     1      46.847   0.895   7.253  0.00  0.00    +0.000 A 
ATOM     15  C   UNL     1      47.061   1.625   6.084  0.00  0.00    +0.000 A 
ATOM     16 CL   UNL     1      47.882   0.898   4.757  0.00  0.00    +0.000 Cl
ATOM     17  C   UNL     1      46.614   2.944   5.980  0.00  0.00    +0.000 A 
ATOM     18  C   UNL     1      45.926   3.529   7.046  0.00  0.00    +0.000 A 
ENDBRANCH   9  12
ENDBRANCH   7  10
ENDBRANCH   1   7
BRANCH   4  19
ATOM     19  C   UNL     1      48.356   6.555  14.731  0.00  0.00    +0.000 C 
BRANCH  19  20
ATOM     20  N   UNL     1      48.169   6.430  16.154  0.00  0.00    +0.000 N 
ATOM     21  C   UNL     1      49.126   5.844  16.945  0.00  0.00    +0.000 C 
ATOM     22  O   UNL     1      50.196   5.451  16.487  0.00  0.00    +0.000 OA
ATOM     23  H   UNL     1      47.222   6.524  16.506  0.00  0.00    +0.000 HD
BRANCH  21  24
ATOM     24  C   UNL     1      48.835   5.767  18.381  0.00  0.00    +0.000 A 
ATOM     25  C   UNL     1      49.064   4.584  19.070  0.00  0.00    +0.000 A 
ATOM     26  S   UNL     1      48.719   4.683  20.738  0.00  0.00    +0.000 S 
ATOM     27  C   UNL     1      48.199   6.296  20.588  0.00  0.00    +0.000 A 
ATOM     28  N   UNL     1      47.737   6.985  21.666  0.00  0.00    +0.000 NA
ATOM     29  C   UNL     1      47.343   8.187  21.402  0.00  0.00    +0.000 A 
ATOM     30  N   UNL     1      47.377   8.765  20.160  0.00  0.00    +0.000 N 
ATOM     31  C   UNL     1      47.865   8.119  19.049  0.00  0.00    +0.000 A 
ATOM     32  O   UNL     1      47.924   8.681  17.960  0.00  0.00    +0.000 OA
ATOM     33  C   UNL     1      48.307   6.759  19.289  0.00  0.00    +0.000 A 
ATOM     34  H   UNL     1      47.065   9.714  20.022  0.00  0.00    +0.000 HD
ENDBRANCH  21  24
ENDBRANCH  19  20
ENDBRANCH   4  19
TORSDOF 6
ENDMDL
MODEL 4
REMARK VINA RESULT:    -7.378      2.085      2.789
REMARK INTER + INTRA:         -10.962
REMARK INTER:                 -10.016
REMARK INTRA:                  -0.946
REMARK UNBOUND:                -0.997
REMARK  Name = 
REMARK  6 active torsions:
REMARK  status: ('A' for Active; 'I' for Inactive)
REMARK    1  A    between atoms: C_2  and  C_25
REMARK    2  A    between atoms: N_3  and  C_4
REMARK    3  A    between atoms: C_4  and  C_5
REMARK    4  A    between atoms: C_8  and  C_9
REMARK    5  A    between atoms: C_9  and  N_10
REMARK    6  A    between atoms: C_11  and  C_13
REMARK                            x       y       z     vdW  Elec       q    Type
REMARK                         _______ _______ _______ _____ _____    ______ ____
ROOT
ATOM      1  C   UNL     1      45.776   6.120  11.879  0.00  0.00    +0.000 A 
ATOM      2  C   UNL     1      46.391   5.275  12.813  0.00  0.00    +0.000 A 
ATOM      3  C   UNL     1      47.326   5.777  13.725  0.00  0.00    +0.000 A 
ATOM      4  C   UNL     1      47.651   7.140  13.735  0.00  0.00    +0.000 A 
ATOM      5  C   UNL     1      47.041   7.983  12.796  0.00  0.00    +0.000 A 
ATOM      6  C   UNL     1      46.103   7.482  11.887  0.00  0.00    +0.000 A 
ENDROOT
BRANCH   1   7
ATOM      7  C   UNL     1      44.755   5.578  10.911  0.00  0.00    +0.000 C 
BRANCH   7  10
ATOM      8  O   UNL     1      44.285   2.877  10.316  0.00  0.00    +0.000 OA
ATOM      9  C   UNL     1      45.071   3.511   9.626  0.00  0.00    +0.000 C 
ATOM     10  N   UNL     1      45.391   4.835   9.848  0.00  0.00    +0.000 N 
ATOM     11  H   UNL     1      45.876   5.360   9.136  0.00  0.00    +0.000 HD
BRANCH   9  12
ATOM     12  C   UNL     1      45.707   2.882   8.436  0.00  0.00    +0.000 A 
ATOM     13  C   UNL     1      45.945   3.669   7.300  0.00  0.00    +0.000 A 
ATOM     14  C   UNL     1      46.579   3.117   6.184  0.00  0.00    +0.000 A 
ATOM     15  C   UNL     1      46.962   1.776   6.199  0.00  0.00    +0.000 A 
ATOM     16 CL   UNL     1      47.769   1.099   4.837  0.00  0.00    +0.000 Cl
ATOM     17  C   UNL     1      46.698   0.975   7.312  0.00  0.00    +0.000 A 
ATOM     18  C   UNL     1      46.066   1.527   8.429  0.00  0.00    +0.000 A 
ENDBRANCH   9  12
ENDBRANCH   7  10
ENDBRANCH   1   7
BRANCH   4  19
ATOM     19  C   UNL     1      48.654   7.691  14.715  0.00  0.00    +0.000 C 
BRANCH  19  20
ATOM     20  N   UNL     1      48.399   7.227  16.054  0.00  0.00    +0.000 N 
ATOM     21  C   UNL     1      49.309   6.443  16.718  0.00  0.00    +0.000 C 
ATOM     22  O   UNL     1      50.395   6.147  16.224  0.00  0.00    +0.000 OA
ATOM     23  H   UNL     1      47.437   7.256  16.379  0.00  0.00    +0.000 HD
BRANCH  21  24
ATOM     24  C   UNL     1      48.950   6.025  18.078  0.00  0.00    +0.000 A 
ATOM     25  C   UNL     1      49.155   4.710  18.474  0.00  0.00    +0.000 A 
ATOM     26  S   UNL     1      48.728   4.408  20.098  0.00  0.00    +0.000 S 
ATOM     27  C   UNL     1      48.203   6.012  20.314  0.00  0.00    +0.000 A 
ATOM     28  N   UNL     1      47.683   6.425  21.501  0.00  0.00    +0.000 NA
ATOM     29  C   UNL     1      47.293   7.656  21.513  0.00  0.00    +0.000 A 
ATOM     30  N   UNL     1      47.383   8.515  20.449  0.00  0.00    +0.000 N 
ATOM     31  C   UNL     1      47.929   8.151  19.242  0.00  0.00    +0.000 A 
ATOM     32  O   UNL     1      48.037   8.958  18.323  0.00  0.00    +0.000 OA
ATOM     33  C   UNL     1      48.370   6.772  19.170  0.00  0.00    +0.000 A 
ATOM     34  H   UNL     1      47.070   9.470  20.528  0.00  0.00    +0.000 HD
ENDBRANCH  21  24
ENDBRANCH  19  20
ENDBRANCH   4  19
TORSDOF 6
ENDMDL
MODEL 5
REMARK VINA RESULT:    -7.340      2.536      2.919
REMARK INTER + INTRA:         -10.912
REMARK INTER:                 -10.001
REMARK INTRA:                  -0.911
REMARK UNBOUND:                -0.997
REMARK  Name = 
REMARK  6 active torsions:
REMARK  status: ('A' for Active; 'I' for Inactive)
REMARK    1  A    between atoms: C_2  and  C_25
REMARK    2  A    between atoms: N_3  and  C_4
REMARK    3  A    between atoms: C_4  and  C_5
REMARK    4  A    between atoms: C_8  and  C_9
REMARK    5  A    between atoms: C_9  and  N_10
REMARK    6  A    between atoms: C_11  and  C_13
REMARK                            x       y       z     vdW  Elec       q    Type
REMARK                         _______ _______ _______ _____ _____    ______ ____
ROOT
ATOM      1  C   UNL     1      45.604   6.963  11.894  0.00  0.00    +0.000 A 
ATOM      2  C   UNL     1      45.329   8.194  12.506  0.00  0.00    +0.000 A 
ATOM      3  C   UNL     1      46.255   8.784  13.374  0.00  0.00    +0.000 A 
ATOM      4  C   UNL     1      47.486   8.164  13.632  0.00  0.00    +0.000 A 
ATOM      5  C   UNL     1      47.757   6.930  13.026  0.00  0.00    +0.000 A 
ATOM      6  C   UNL     1      46.832   6.342  12.156  0.00  0.00    +0.000 A 
ENDROOT
BRANCH   1   7
ATOM      7  C   UNL     1      44.612   6.340  10.946  0.00  0.00    +0.000 C 
BRANCH   7  10
ATOM      8  O   UNL     1      43.624   3.803  10.267  0.00  0.00    +0.000 OA
ATOM      9  C   UNL     1      44.676   4.185   9.772  0.00  0.00    +0.000 C 
ATOM     10  N   UNL     1      45.259   5.403  10.058  0.00  0.00    +0.000 N 
ATOM     11  H   UNL     1      46.005   5.752   9.474  0.00  0.00    +0.000 HD
BRANCH   9  12
ATOM     12  C   UNL     1      45.380   3.351   8.759  0.00  0.00    +0.000 A 
ATOM     13  C   UNL     1      45.912   3.974   7.622  0.00  0.00    +0.000 A 
ATOM     14  C   UNL     1      46.616   3.223   6.676  0.00  0.00    +0.000 A 
ATOM     15  C   UNL     1      46.775   1.850   6.861  0.00  0.00    +0.000 A 
ATOM     16 CL   UNL     1      47.665   0.927   5.713  0.00  0.00    +0.000 Cl
ATOM     17  C   UNL     1      46.219   1.215   7.974  0.00  0.00    +0.000 A 
ATOM     18  C   UNL     1      45.517   1.966   8.921  0.00  0.00    +0.000 A 
ENDBRANCH   9  12
ENDBRANCH   7  10
ENDBRANCH   1   7
BRANCH   4  19
ATOM     19  C   UNL     1      48.490   8.793  14.562  0.00  0.00    +0.000 C 
BRANCH  19  20
ATOM     20  N   UNL     1      48.081   8.685  15.939  0.00  0.00    +0.000 N 
ATOM     21  C   UNL     1      48.442   9.633  16.863  0.00  0.00    +0.000 C 
ATOM     22  O   UNL     1      49.082  10.635  16.551  0.00  0.00    +0.000 OA
ATOM     23  H   UNL     1      47.769   7.772  16.258  0.00  0.00    +0.000 HD
BRANCH  21  24
ATOM     24  C   UNL     1      47.972   9.425  18.238  0.00  0.00    +0.000 A 
ATOM     25  C   UNL     1      47.388  10.475  18.934  0.00  0.00    +0.000 A 
ATOM     26  S   UNL     1      46.855  10.048  20.498  0.00  0.00    +0.000 S 
ATOM     27  C   UNL     1      47.435   8.458  20.319  0.00  0.00    +0.000 A 
ATOM     28  N   UNL     1      47.318   7.553  21.328  0.00  0.00    +0.000 NA
ATOM     29  C   UNL     1      47.832   6.396  21.068  0.00  0.00    +0.000 A 
ATOM     30  N   UNL     1      48.444   6.060  19.889  0.00  0.00    +0.000 N 
ATOM     31  C   UNL     1      48.556   6.931  18.832  0.00  0.00    +0.000 A 
ATOM     32  O   UNL     1      49.069   6.583  17.773  0.00  0.00    +0.000 OA
ATOM     33  C   UNL     1      48.008   8.250  19.077  0.00  0.00    +0.000 A 
ATOM     34  H   UNL     1      48.815   5.133  19.745  0.00  0.00    +0.000 HD
ENDBRANCH  21  24
ENDBRANCH  19  20
ENDBRANCH   4  19
TORSDOF 6
ENDMDL
MODEL 6
REMARK VINA RESULT:    -7.270      4.986      7.479
REMARK INTER + INTRA:         -10.817
REMARK INTER:                  -9.759
REMARK INTRA:                  -1.058
REMARK UNBOUND:                -0.997
REMARK  Name = 
REMARK  6 active torsions:
REMARK  status: ('A' for Active; 'I' for Inactive)
REMARK    1  A    between atoms: C_2  and  C_25
REMARK    2  A    between atoms: N_3  and  C_4
REMARK    3  A    between atoms: C_4  and  C_5
REMARK    4  A    between atoms: C_8  and  C_9
REMARK    5  A    between atoms: C_9  and  N_10
REMARK    6  A    between atoms: C_11  and  C_13
REMARK                            x       y       z     vdW  Elec       q    Type
REMARK                         _______ _______ _______ _____ _____    ______ ____
ROOT
ATOM      1  C   UNL     1      44.906   8.981  11.798  0.00  0.00    +0.000 A 
ATOM      2  C   UNL     1      44.239   7.837  11.336  0.00  0.00    +0.000 A 
ATOM      3  C   UNL     1      44.593   6.566  11.802  0.00  0.00    +0.000 A 
ATOM      4  C   UNL     1      45.609   6.414  12.756  0.00  0.00    +0.000 A 
ATOM      5  C   UNL     1      46.280   7.556  13.211  0.00  0.00    +0.000 A 
ATOM      6  C   UNL     1      45.924   8.828  12.748  0.00  0.00    +0.000 A 
ENDROOT
BRANCH   1   7
ATOM      7  C   UNL     1      44.509  10.350  11.307  0.00  0.00    +0.000 C 
BRANCH   7  10
ATOM      8  O   UNL     1      42.132  10.412   9.816  0.00  0.00    +0.000 OA
ATOM      9  C   UNL     1      42.099  10.705  11.003  0.00  0.00    +0.000 C 
ATOM     10  N   UNL     1      43.212  10.729  11.819  0.00  0.00    +0.000 N 
ATOM     11  H   UNL     1      43.100  10.772  12.821  0.00  0.00    +0.000 HD
BRANCH   9  12
ATOM     12  C   UNL     1      40.802  11.010  11.669  0.00  0.00    +0.000 A 
ATOM     13  C   UNL     1      40.741  12.077  12.575  0.00  0.00    +0.000 A 
ATOM     14  C   UNL     1      39.528  12.413  13.183  0.00  0.00    +0.000 A 
ATOM     15  C   UNL     1      38.381  11.674  12.894  0.00  0.00    +0.000 A 
ATOM     16 CL   UNL     1      36.879  12.102  13.618  0.00  0.00    +0.000 Cl
ATOM     17  C   UNL     1      38.440  10.587  12.019  0.00  0.00    +0.000 A 
ATOM     18  C   UNL     1      39.652  10.252  11.410  0.00  0.00    +0.000 A 
ENDBRANCH   9  12
ENDBRANCH   7  10
ENDBRANCH   1   7
BRANCH   4  19
ATOM     19  C   UNL     1      45.995   5.049  13.265  0.00  0.00    +0.000 C 
BRANCH  19  20
ATOM     20  N   UNL     1      46.633   5.125  14.554  0.00  0.00    +0.000 N 
ATOM     21  C   UNL     1      47.313   4.051  15.073  0.00  0.00    +0.000 C 
ATOM     22  O   UNL     1      47.451   3.003  14.444  0.00  0.00    +0.000 OA
ATOM     23  H   UNL     1      46.336   5.872  15.175  0.00  0.00    +0.000 HD
BRANCH  21  24
ATOM     24  C   UNL     1      47.926   4.235  16.394  0.00  0.00    +0.000 A 
ATOM     25  C   UNL     1      47.601   3.372  17.432  0.00  0.00    +0.000 A 
ATOM     26  S   UNL     1      48.439   3.699  18.882  0.00  0.00    +0.000 S 
ATOM     27  C   UNL     1      49.225   5.038  18.188  0.00  0.00    +0.000 A 
ATOM     28  N   UNL     1      50.086   5.800  18.917  0.00  0.00    +0.000 NA
ATOM     29  C   UNL     1      50.584   6.804  18.275  0.00  0.00    +0.000 A 
ATOM     30  N   UNL     1      50.306   7.112  16.969  0.00  0.00    +0.000 N 
ATOM     31  C   UNL     1      49.468   6.355  16.186  0.00  0.00    +0.000 A 
ATOM     32  O   UNL     1      49.276   6.633  15.006  0.00  0.00    +0.000 OA
ATOM     33  C   UNL     1      48.870   5.222  16.864  0.00  0.00    +0.000 A 
ATOM     34  H   UNL     1      50.738   7.907  16.522  0.00  0.00    +0.000 HD
ENDBRANCH  21  24
ENDBRANCH  19  20
ENDBRANCH   4  19
TORSDOF 6
ENDMDL
MODEL 7
REMARK VINA RESULT:    -7.072      1.834      2.332
REMARK INTER + INTRA:         -10.549
REMARK INTER:                  -9.526
REMARK INTRA:                  -1.022
REMARK UNBOUND:                -0.997
REMARK  Name = 
REMARK  6 active torsions:
REMARK  status: ('A' for Active; 'I' for Inactive)
REMARK    1  A    between atoms: C_2  and  C_25
REMARK    2  A    between atoms: N_3  and  C_4
REMARK    3  A    between atoms: C_4  and  C_5
REMARK    4  A    between atoms: C_8  and  C_9
REMARK    5  A    between atoms: C_9  and  N_10
REMARK    6  A    between atoms: C_11  and  C_13
REMARK                            x       y       z     vdW  Elec       q    Type
REMARK                         _______ _______ _______ _____ _____    ______ ____
ROOT
ATOM      1  C   UNL     1      44.994   6.048  11.108  0.00  0.00    +0.000 A 
ATOM      2  C   UNL     1      44.418   6.940  12.024  0.00  0.00    +0.000 A 
ATOM      3  C   UNL     1      45.220   7.775  12.811  0.00  0.00    +0.000 A 
ATOM      4  C   UNL     1      46.615   7.749  12.683  0.00  0.00    +0.000 A 
ATOM      5  C   UNL     1      47.191   6.853  11.773  0.00  0.00    +0.000 A 
ATOM      6  C   UNL     1      46.389   6.020  10.984  0.00  0.00    +0.000 A 
ENDROOT
BRANCH   1   7
ATOM      7  C   UNL     1      44.126   5.164  10.250  0.00  0.00    +0.000 C 
BRANCH   7  10
ATOM      8  O   UNL     1      44.861   2.457  10.164  0.00  0.00    +0.000 OA
ATOM      9  C   UNL     1      45.186   3.193   9.242  0.00  0.00    +0.000 C 
ATOM     10  N   UNL     1      44.897   4.542   9.199  0.00  0.00    +0.000 N 
ATOM     11  H   UNL     1      45.002   5.051   8.334  0.00  0.00    +0.000 HD
BRANCH   9  12
ATOM     12  C   UNL     1      45.890   2.643   8.051  0.00  0.00    +0.000 A 
ATOM     13  C   UNL     1      46.369   1.326   8.095  0.00  0.00    +0.000 A 
ATOM     14  C   UNL     1      46.996   0.770   6.977  0.00  0.00    +0.000 A 
ATOM     15  C   UNL     1      47.156   1.535   5.821  0.00  0.00    +0.000 A 
ATOM     16 CL   UNL     1      47.902   0.844   4.432  0.00  0.00    +0.000 Cl
ATOM     17  C   UNL     1      46.713   2.858   5.779  0.00  0.00    +0.000 A 
ATOM     18  C   UNL     1      46.084   3.415   6.897  0.00  0.00    +0.000 A 
ENDBRANCH   9  12
ENDBRANCH   7  10
ENDBRANCH   1   7
BRANCH   4  19
ATOM     19  C   UNL     1      47.487   8.646  13.524  0.00  0.00    +0.000 C 
BRANCH  19  20
ATOM     20  N   UNL     1      47.631   8.142  14.865  0.00  0.00    +0.000 N 
ATOM     21  C   UNL     1      48.847   7.709  15.332  0.00  0.00    +0.000 C 
ATOM     22  O   UNL     1      49.868   7.780  14.652  0.00  0.00    +0.000 OA
ATOM     23  H   UNL     1      46.783   7.857  15.346  0.00  0.00    +0.000 HD
BRANCH  21  24
ATOM     24  C   UNL     1      48.883   7.214  16.714  0.00  0.00    +0.000 A 
ATOM     25  C   UNL     1      49.348   5.933  16.976  0.00  0.00    +0.000 A 
ATOM     26  S   UNL     1      49.368   5.537  18.636  0.00  0.00    +0.000 S 
ATOM     27  C   UNL     1      48.704   7.046  19.058  0.00  0.00    +0.000 A 
ATOM     28  N   UNL     1      48.436   7.354  20.355  0.00  0.00    +0.000 NA
ATOM     29  C   UNL     1      47.902   8.518  20.527  0.00  0.00    +0.000 A 
ATOM     30  N   UNL     1      47.620   9.405  19.521  0.00  0.00    +0.000 N 
ATOM     31  C   UNL     1      47.902   9.149  18.201  0.00  0.00    +0.000 A 
ATOM     32  O   UNL     1      47.679   9.984  17.329  0.00  0.00    +0.000 OA
ATOM     33  C   UNL     1      48.490   7.848  17.951  0.00  0.00    +0.000 A 
ATOM     34  H   UNL     1      47.213  10.305  19.724  0.00  0.00    +0.000 HD
ENDBRANCH  21  24
ENDBRANCH  19  20
ENDBRANCH   4  19
TORSDOF 6
ENDMDL
MODEL 8
REMARK VINA RESULT:    -6.607      4.394      5.796
REMARK INTER + INTRA:          -9.921
REMARK INTER:                  -8.912
REMARK INTRA:                  -1.009
REMARK UNBOUND:                -0.997
REMARK  Name = 
REMARK  6 active torsions:
REMARK  status: ('A' for Active; 'I' for Inactive)
REMARK    1  A    between atoms: C_2  and  C_25
REMARK    2  A    between atoms: N_3  and  C_4
REMARK    3  A    between atoms: C_4  and  C_5
REMARK    4  A    between atoms: C_8  and  C_9
REMARK    5  A    between atoms: C_9  and  N_10
REMARK    6  A    between atoms: C_11  and  C_13
REMARK                            x       y       z     vdW  Elec       q    Type
REMARK                         _______ _______ _______ _____ _____    ______ ____
ROOT
ATOM      1  C   UNL     1      45.808   6.926  12.420  0.00  0.00    +0.000 A 
ATOM      2  C   UNL     1      45.194   8.170  12.623  0.00  0.00    +0.000 A 
ATOM      3  C   UNL     1      45.940   9.353  12.569  0.00  0.00    +0.000 A 
ATOM      4  C   UNL     1      47.313   9.317  12.291  0.00  0.00    +0.000 A 
ATOM      5  C   UNL     1      47.927   8.073  12.095  0.00  0.00    +0.000 A 
ATOM      6  C   UNL     1      47.181   6.891  12.146  0.00  0.00    +0.000 A 
ENDROOT
BRANCH   1   7
ATOM      7  C   UNL     1      44.996   5.657  12.461  0.00  0.00    +0.000 C 
BRANCH   7  10
ATOM      8  O   UNL     1      43.621   5.104  10.079  0.00  0.00    +0.000 OA
ATOM      9  C   UNL     1      44.688   4.546  10.294  0.00  0.00    +0.000 C 
ATOM     10  N   UNL     1      45.431   4.729  11.442  0.00  0.00    +0.000 N 
ATOM     11  H   UNL     1      46.388   4.413  11.477  0.00  0.00    +0.000 HD
BRANCH   9  12
ATOM     12  C   UNL     1      45.291   3.650   9.269  0.00  0.00    +0.000 A 
ATOM     13  C   UNL     1      45.962   4.222   8.180  0.00  0.00    +0.000 A 
ATOM     14  C   UNL     1      46.575   3.405   7.225  0.00  0.00    +0.000 A 
ATOM     15  C   UNL     1      46.504   2.018   7.354  0.00  0.00    +0.000 A 
ATOM     16 CL   UNL     1      47.280   1.008   6.196  0.00  0.00    +0.000 Cl
ATOM     17  C   UNL     1      45.807   1.439   8.416  0.00  0.00    +0.000 A 
ATOM     18  C   UNL     1      45.196   2.255   9.372  0.00  0.00    +0.000 A 
ENDBRANCH   9  12
ENDBRANCH   7  10
ENDBRANCH   1   7
BRANCH   4  19
ATOM     19  C   UNL     1      48.125  10.585  12.228  0.00  0.00    +0.000 C 
BRANCH  19  20
ATOM     20  N   UNL     1      49.294  10.427  11.402  0.00  0.00    +0.000 N 
ATOM     21  C   UNL     1      50.556  10.545  11.929  0.00  0.00    +0.000 C 
ATOM     22  O   UNL     1      50.744  10.738  13.128  0.00  0.00    +0.000 OA
ATOM     23  H   UNL     1      49.166  10.506  10.397  0.00  0.00    +0.000 HD
BRANCH  21  24
ATOM     24  C   UNL     1      51.677  10.366  11.000  0.00  0.00    +0.000 A 
ATOM     25  C   UNL     1      52.424  11.465  10.597  0.00  0.00    +0.000 A 
ATOM     26  S   UNL     1      53.717  11.072   9.556  0.00  0.00    +0.000 S 
ATOM     27  C   UNL     1      53.292   9.425   9.563  0.00  0.00    +0.000 A 
ATOM     28  N   UNL     1      53.996   8.517   8.834  0.00  0.00    +0.000 NA
ATOM     29  C   UNL     1      53.542   7.310   8.905  0.00  0.00    +0.000 A 
ATOM     30  N   UNL     1      52.454   6.926   9.644  0.00  0.00    +0.000 N 
ATOM     31  C   UNL     1      51.733   7.801  10.420  0.00  0.00    +0.000 A 
ATOM     32  O   UNL     1      50.791   7.416  11.106  0.00  0.00    +0.000 OA
ATOM     33  C   UNL     1      52.192   9.175  10.365  0.00  0.00    +0.000 A 
ATOM     34  H   UNL     1      52.158   5.962   9.665  0.00  0.00    +0.000 HD
ENDBRANCH  21  24
ENDBRANCH  19  20
ENDBRANCH   4  19
TORSDOF 6
ENDMDL
MODEL 9
REMARK VINA RESULT:    -6.525      4.584      9.199
REMARK INTER + INTRA:          -9.811
REMARK INTER:                  -8.749
REMARK INTRA:                  -1.061
REMARK UNBOUND:                -0.997
REMARK  Name = 
REMARK  6 active torsions:
REMARK  status: ('A' for Active; 'I' for Inactive)
REMARK    1  A    between atoms: C_2  and  C_25
REMARK    2  A    between atoms: N_3  and  C_4
REMARK    3  A    between atoms: C_4  and  C_5
REMARK    4  A    between atoms: C_8  and  C_9
REMARK    5  A    between atoms: C_9  and  N_10
REMARK    6  A    between atoms: C_11  and  C_13
REMARK                            x       y       z     vdW  Elec       q    Type
REMARK                         _______ _______ _______ _____ _____    ______ ____
ROOT
ATOM      1  C   UNL     1      49.569   5.979  18.129  0.00  0.00    +0.000 A 
ATOM      2  C   UNL     1      48.934   5.284  17.089  0.00  0.00    +0.000 A 
ATOM      3  C   UNL     1      48.528   5.950  15.927  0.00  0.00    +0.000 A 
ATOM      4  C   UNL     1      48.767   7.323  15.772  0.00  0.00    +0.000 A 
ATOM      5  C   UNL     1      49.395   8.017  16.814  0.00  0.00    +0.000 A 
ATOM      6  C   UNL     1      49.804   7.351  17.975  0.00  0.00    +0.000 A 
ENDROOT
BRANCH   1   7
ATOM      7  C   UNL     1      50.021   5.253  19.370  0.00  0.00    +0.000 C 
BRANCH   7  10
ATOM      8  O   UNL     1      52.784   5.190  18.887  0.00  0.00    +0.000 OA
ATOM      9  C   UNL     1      52.147   4.148  18.837  0.00  0.00    +0.000 C 
ATOM     10  N   UNL     1      50.783   4.073  19.034  0.00  0.00    +0.000 N 
ATOM     11  H   UNL     1      50.346   3.176  19.187  0.00  0.00    +0.000 HD
BRANCH   9  12
ATOM     12  C   UNL     1      52.840   2.850  18.605  0.00  0.00    +0.000 A 
ATOM     13  C   UNL     1      52.237   1.902  17.767  0.00  0.00    +0.000 A 
ATOM     14  C   UNL     1      52.884   0.693  17.497  0.00  0.00    +0.000 A 
ATOM     15  C   UNL     1      54.125   0.428  18.075  0.00  0.00    +0.000 A 
ATOM     16 CL   UNL     1      54.938  -1.048  17.723  0.00  0.00    +0.000 Cl
ATOM     17  C   UNL     1      54.717   1.352  18.939  0.00  0.00    +0.000 A 
ATOM     18  C   UNL     1      54.071   2.562  19.208  0.00  0.00    +0.000 A 
ENDBRANCH   9  12
ENDBRANCH   7  10
ENDBRANCH   1   7
BRANCH   4  19
ATOM     19  C   UNL     1      48.336   8.048  14.524  0.00  0.00    +0.000 C 
BRANCH  19  20
ATOM     20  N   UNL     1      47.108   7.513  13.995  0.00  0.00    +0.000 N 
ATOM     21  C   UNL     1      47.060   6.953  12.743  0.00  0.00    +0.000 C 
ATOM     22  O   UNL     1      48.063   6.837  12.043  0.00  0.00    +0.000 OA
ATOM     23  H   UNL     1      46.245   7.807  14.442  0.00  0.00    +0.000 HD
BRANCH  21  24
ATOM     24  C   UNL     1      45.758   6.438  12.302  0.00  0.00    +0.000 A 
ATOM     25  C   UNL     1      44.824   7.304  11.750  0.00  0.00    +0.000 A 
ATOM     26  S   UNL     1      43.387   6.533  11.247  0.00  0.00    +0.000 S 
ATOM     27  C   UNL     1      43.942   5.023  11.799  0.00  0.00    +0.000 A 
ATOM     28  N   UNL     1      43.165   3.911  11.693  0.00  0.00    +0.000 NA
ATOM     29  C   UNL     1      43.697   2.841  12.184  0.00  0.00    +0.000 A 
ATOM     30  N   UNL     1      44.937   2.779  12.763  0.00  0.00    +0.000 N 
ATOM     31  C   UNL     1      45.768   3.869  12.864  0.00  0.00    +0.000 A 
ATOM     32  O   UNL     1      46.892   3.770  13.347  0.00  0.00    +0.000 OA
ATOM     33  C   UNL     1      45.212   5.101  12.340  0.00  0.00    +0.000 A 
ATOM     34  H   UNL     1      45.300   1.907  13.117  0.00  0.00    +0.000 HD
ENDBRANCH  21  24
ENDBRANCH  19  20
ENDBRANCH   4  19
TORSDOF 6
ENDMDL
