MODEL 1
REMARK VINA RESULT:    -8.252      0.000      0.000
REMARK INTER + INTRA:         -12.732
REMARK INTER:                 -11.629
REMARK INTRA:                  -1.103
REMARK UNBOUND:                -1.103
REMARK  Name = 
REMARK  8 active torsions:
REMARK  status: ('A' for Active; 'I' for Inactive)
REMARK    1  A    between atoms: C_1  and  C_2
REMARK    2  A    between atoms: C_2  and  C_3
REMARK    3  A    between atoms: C_2  and  C_14
REMARK    4  A    between atoms: C_3  and  O_4
REMARK    5  A    between atoms: O_4  and  C_5
REMARK    6  A    between atoms: C_8  and  C_9
REMARK    7  A    between atoms: C_18  and  O_19
REMARK    8  A    between atoms: O_19  and  C_20
REMARK                            x       y       z     vdW  Elec       q    Type
REMARK                         _______ _______ _______ _____ _____    ______ ____
ROOT
ATOM      1  C   UNL     1      42.911   5.471  11.722  0.00  0.00    +0.000 C 
ATOM      2  C   UNL     1      43.830   4.497  12.470  0.00  0.00    +0.000 C 
ENDROOT
BRANCH   2   3
ATOM      3  C   UNL     1      45.204   5.107  12.715  0.00  0.00    +0.000 A 
ATOM      4  C   UNL     1      45.725   6.023  11.791  0.00  0.00    +0.000 A 
ATOM      5  C   UNL     1      46.997   6.571  11.969  0.00  0.00    +0.000 A 
ATOM      6  C   UNL     1      47.772   6.215  13.074  0.00  0.00    +0.000 A 
ATOM      7  C   UNL     1      47.269   5.313  14.008  0.00  0.00    +0.000 A 
ATOM      8  C   UNL     1      45.986   4.775  13.836  0.00  0.00    +0.000 A 
BRANCH   7   9
ATOM      9  O   UNL     1      47.935   4.916  15.142  0.00  0.00    +0.000 OA
BRANCH   9  10
ATOM     10  C   UNL     1      47.221   4.148  16.142  0.00  0.00    +0.000 C 
ATOM     11  C   UNL     1      47.229   4.672  17.591  0.00  0.00    +0.000 C 
ATOM     12  N   UNL     1      47.708   3.371  18.080  0.00  0.00    +0.000 NA
ATOM     13  C   UNL     1      47.990   2.934  16.706  0.00  0.00    +0.000 C 
ATOM     14  H   UNL     1      46.999   2.814  18.558  0.00  0.00    +0.000 HD
ENDBRANCH   9  10
ENDBRANCH   7   9
ENDBRANCH   2   3
BRANCH   2  15
ATOM     15  C   UNL     1      43.911   3.143  11.746  0.00  0.00    +0.000 C 
BRANCH  15  16
ATOM     16  O   UNL     1      43.439   3.298  10.397  0.00  0.00    +0.000 OA
BRANCH  16  17
ATOM     17  C   UNL     1      44.424   3.068   9.460  0.00  0.00    +0.000 A 
ATOM     18  C   UNL     1      44.926   4.166   8.776  0.00  0.00    +0.000 A 
ATOM     19  C   UNL     1      45.935   3.956   7.835  0.00  0.00    +0.000 A 
ATOM     20  C   UNL     1      46.410   2.659   7.604  0.00  0.00    +0.000 A 
ATOM     21  C   UNL     1      45.836   1.634   8.337  0.00  0.00    +0.000 A 
ATOM     22  N   UNL     1      44.857   1.807   9.256  0.00  0.00    +0.000 NA
BRANCH  20  23
ATOM     23  C   UNL     1      47.486   2.438   6.608  0.00  0.00    +0.000 C 
ATOM     24  N   UNL     1      47.425   3.092   5.409  0.00  0.00    +0.000 N 
ATOM     25  O   UNL     1      48.420   1.680   6.845  0.00  0.00    +0.000 OA
ATOM     26  H   UNL     1      46.700   3.725   5.108  0.00  0.00    +0.000 HD
ATOM     27  H   UNL     1      48.174   2.907   4.753  0.00  0.00    +0.000 HD
ENDBRANCH  20  23
ENDBRANCH  16  17
ENDBRANCH  15  16
ENDBRANCH   2  15
TORSDOF 7
ENDMDL
MODEL 2
REMARK VINA RESULT:    -7.339      2.576      3.938
REMARK INTER + INTRA:         -11.446
REMARK INTER:                 -10.647
REMARK INTRA:                  -0.799
REMARK UNBOUND:                -1.103
REMARK  Name = 
REMARK  8 active torsions:
REMARK  status: ('A' for Active; 'I' for Inactive)
REMARK    1  A    between atoms: C_1  and  C_2
REMARK    2  A    between atoms: C_2  and  C_3
REMARK    3  A    between atoms: C_2  and  C_14
REMARK    4  A    between atoms: C_3  and  O_4
REMARK    5  A    between atoms: O_4  and  C_5
REMARK    6  A    between atoms: C_8  and  C_9
REMARK    7  A    between atoms: C_18  and  O_19
REMARK    8  A    between atoms: O_19  and  C_20
REMARK                            x       y       z     vdW  Elec       q    Type
REMARK                         _______ _______ _______ _____ _____    ______ ____
ROOT
ATOM      1  C   UNL     1      42.497   5.269  12.331  0.00  0.00    +0.000 C 
ATOM      2  C   UNL     1      43.648   4.290  12.592  0.00  0.00    +0.000 C 
ENDROOT
BRANCH   2   3
ATOM      3  C   UNL     1      44.974   5.022  12.751  0.00  0.00    +0.000 A 
ATOM      4  C   UNL     1      46.021   4.405  13.449  0.00  0.00    +0.000 A 
ATOM      5  C   UNL     1      47.237   5.064  13.645  0.00  0.00    +0.000 A 
ATOM      6  C   UNL     1      47.429   6.353  13.145  0.00  0.00    +0.000 A 
ATOM      7  C   UNL     1      46.404   6.981  12.441  0.00  0.00    +0.000 A 
ATOM      8  C   UNL     1      45.191   6.312  12.234  0.00  0.00    +0.000 A 
BRANCH   7   9
ATOM      9  O   UNL     1      46.497   8.234  11.885  0.00  0.00    +0.000 OA
BRANCH   9  10
ATOM     10  C   UNL     1      45.463   9.207  12.172  0.00  0.00    +0.000 C 
ATOM     11  C   UNL     1      44.350   9.402  11.124  0.00  0.00    +0.000 C 
ATOM     12  N   UNL     1      44.599  10.851  11.102  0.00  0.00    +0.000 NA
ATOM     13  C   UNL     1      45.840  10.672  11.866  0.00  0.00    +0.000 C 
ATOM     14  H   UNL     1      43.890  11.407  11.581  0.00  0.00    +0.000 HD
ENDBRANCH   9  10
ENDBRANCH   7   9
ENDBRANCH   2   3
BRANCH   2  15
ATOM     15  C   UNL     1      43.707   3.200  11.509  0.00  0.00    +0.000 C 
BRANCH  15  16
ATOM     16  O   UNL     1      43.640   3.818  10.212  0.00  0.00    +0.000 OA
BRANCH  16  17
ATOM     17  C   UNL     1      44.580   3.318   9.337  0.00  0.00    +0.000 A 
ATOM     18  C   UNL     1      45.232   4.223   8.512  0.00  0.00    +0.000 A 
ATOM     19  C   UNL     1      46.199   3.739   7.629  0.00  0.00    +0.000 A 
ATOM     20  C   UNL     1      46.484   2.368   7.596  0.00  0.00    +0.000 A 
ATOM     21  C   UNL     1      45.772   1.551   8.457  0.00  0.00    +0.000 A 
ATOM     22  N   UNL     1      44.829   1.992   9.323  0.00  0.00    +0.000 NA
BRANCH  20  23
ATOM     23  C   UNL     1      47.516   1.857   6.662  0.00  0.00    +0.000 C 
ATOM     24  N   UNL     1      48.609   2.632   6.392  0.00  0.00    +0.000 N 
ATOM     25  O   UNL     1      47.399   0.757   6.133  0.00  0.00    +0.000 OA
ATOM     26  H   UNL     1      48.798   3.551   6.761  0.00  0.00    +0.000 HD
ATOM     27  H   UNL     1      49.286   2.250   5.742  0.00  0.00    +0.000 HD
ENDBRANCH  20  23
ENDBRANCH  16  17
ENDBRANCH  15  16
ENDBRANCH   2  15
TORSDOF 7
ENDMDL
MODEL 3
REMARK VINA RESULT:    -7.273      1.546      1.671
REMARK INTER + INTRA:         -11.353
REMARK INTER:                 -10.357
REMARK INTRA:                  -0.996
REMARK UNBOUND:                -1.103
REMARK  Name = 
REMARK  8 active torsions:
REMARK  status: ('A' for Active; 'I' for Inactive)
REMARK    1  A    between atoms: C_1  and  C_2
REMARK    2  A    between atoms: C_2  and  C_3
REMARK    3  A    between atoms: C_2  and  C_14
REMARK    4  A    between atoms: C_3  and  O_4
REMARK    5  A    between atoms: O_4  and  C_5
REMARK    6  A    between atoms: C_8  and  C_9
REMARK    7  A    between atoms: C_18  and  O_19
REMARK    8  A    between atoms: O_19  and  C_20
REMARK                            x       y       z     vdW  Elec       q    Type
REMARK                         _______ _______ _______ _____ _____    ______ ____
ROOT
ATOM      1  C   UNL     1      42.942   5.066  12.742  0.00  0.00    +0.000 C 
ATOM      2  C   UNL     1      44.323   4.424  12.924  0.00  0.00    +0.000 C 
ENDROOT
BRANCH   2   3
ATOM      3  C   UNL     1      45.436   5.454  12.791  0.00  0.00    +0.000 A 
ATOM      4  C   UNL     1      45.279   6.527  11.903  0.00  0.00    +0.000 A 
ATOM      5  C   UNL     1      46.297   7.468  11.731  0.00  0.00    +0.000 A 
ATOM      6  C   UNL     1      47.491   7.354  12.444  0.00  0.00    +0.000 A 
ATOM      7  C   UNL     1      47.665   6.300  13.337  0.00  0.00    +0.000 A 
ATOM      8  C   UNL     1      46.636   5.365  13.519  0.00  0.00    +0.000 A 
BRANCH   7   9
ATOM      9  O   UNL     1      48.787   6.109  14.107  0.00  0.00    +0.000 OA
BRANCH   9  10
ATOM     10  C   UNL     1      48.814   6.647  15.452  0.00  0.00    +0.000 C 
ATOM     11  C   UNL     1      50.190   6.855  16.114  0.00  0.00    +0.000 C 
ATOM     12  N   UNL     1      49.765   6.076  17.286  0.00  0.00    +0.000 NA
ATOM     13  C   UNL     1      48.566   5.616  16.573  0.00  0.00    +0.000 C 
ATOM     14  H   UNL     1      49.568   6.637  18.116  0.00  0.00    +0.000 HD
ENDBRANCH   9  10
ENDBRANCH   7   9
ENDBRANCH   2   3
BRANCH   2  15
ATOM     15  C   UNL     1      44.511   3.232  11.971  0.00  0.00    +0.000 C 
BRANCH  15  16
ATOM     16  O   UNL     1      43.888   3.531  10.711  0.00  0.00    +0.000 OA
BRANCH  16  17
ATOM     17  C   UNL     1      44.713   3.275   9.636  0.00  0.00    +0.000 A 
ATOM     18  C   UNL     1      45.174   4.364   8.910  0.00  0.00    +0.000 A 
ATOM     19  C   UNL     1      46.023   4.127   7.828  0.00  0.00    +0.000 A 
ATOM     20  C   UNL     1      46.385   2.814   7.503  0.00  0.00    +0.000 A 
ATOM     21  C   UNL     1      45.864   1.800   8.289  0.00  0.00    +0.000 A 
ATOM     22  N   UNL     1      45.039   1.999   9.344  0.00  0.00    +0.000 NA
BRANCH  20  23
ATOM     23  C   UNL     1      47.293   2.565   6.358  0.00  0.00    +0.000 C 
ATOM     24  N   UNL     1      48.541   2.060   6.597  0.00  0.00    +0.000 N 
ATOM     25  O   UNL     1      46.942   2.810   5.209  0.00  0.00    +0.000 OA
ATOM     26  H   UNL     1      48.933   1.836   7.499  0.00  0.00    +0.000 HD
ATOM     27  H   UNL     1      49.133   1.913   5.789  0.00  0.00    +0.000 HD
ENDBRANCH  20  23
ENDBRANCH  16  17
ENDBRANCH  15  16
ENDBRANCH   2  15
TORSDOF 7
ENDMDL
MODEL 4
REMARK VINA RESULT:    -7.092      3.257      5.078
REMARK INTER + INTRA:         -11.097
REMARK INTER:                 -10.420
REMARK INTRA:                  -0.677
REMARK UNBOUND:                -1.103
REMARK  Name = 
REMARK  8 active torsions:
REMARK  status: ('A' for Active; 'I' for Inactive)
REMARK    1  A    between atoms: C_1  and  C_2
REMARK    2  A    between atoms: C_2  and  C_3
REMARK    3  A    between atoms: C_2  and  C_14
REMARK    4  A    between atoms: C_3  and  O_4
REMARK    5  A    between atoms: O_4  and  C_5
REMARK    6  A    between atoms: C_8  and  C_9
REMARK    7  A    between atoms: C_18  and  O_19
REMARK    8  A    between atoms: O_19  and  C_20
REMARK                            x       y       z     vdW  Elec       q    Type
REMARK                         _______ _______ _______ _____ _____    ______ ____
ROOT
ATOM      1  C   UNL     1      45.594   3.852  12.558  0.00  0.00    +0.000 C 
ATOM      2  C   UNL     1      45.233   4.912  11.510  0.00  0.00    +0.000 C 
ENDROOT
BRANCH   2   3
ATOM      3  C   UNL     1      45.614   6.310  11.980  0.00  0.00    +0.000 A 
ATOM      4  C   UNL     1      46.764   6.483  12.763  0.00  0.00    +0.000 A 
ATOM      5  C   UNL     1      47.120   7.746  13.240  0.00  0.00    +0.000 A 
ATOM      6  C   UNL     1      46.335   8.861  12.942  0.00  0.00    +0.000 A 
ATOM      7  C   UNL     1      45.193   8.711  12.158  0.00  0.00    +0.000 A 
ATOM      8  C   UNL     1      44.845   7.445  11.669  0.00  0.00    +0.000 A 
BRANCH   7   9
ATOM      9  O   UNL     1      44.366   9.743  11.785  0.00  0.00    +0.000 OA
BRANCH   9  10
ATOM     10  C   UNL     1      43.557   9.596  10.592  0.00  0.00    +0.000 C 
ATOM     11  C   UNL     1      43.721  10.648   9.478  0.00  0.00    +0.000 C 
ATOM     12  N   UNL     1      42.272  10.896   9.471  0.00  0.00    +0.000 NA
ATOM     13  C   UNL     1      42.113  10.128  10.713  0.00  0.00    +0.000 C 
ATOM     14  H   UNL     1      41.782  10.499   8.669  0.00  0.00    +0.000 HD
ENDBRANCH   9  10
ENDBRANCH   7   9
ENDBRANCH   2   3
BRANCH   2  15
ATOM     15  C   UNL     1      43.752   4.813  11.108  0.00  0.00    +0.000 C 
BRANCH  15  16
ATOM     16  O   UNL     1      43.648   4.849   9.674  0.00  0.00    +0.000 OA
BRANCH  16  17
ATOM     17  C   UNL     1      44.558   4.018   9.055  0.00  0.00    +0.000 A 
ATOM     18  C   UNL     1      44.450   2.657   9.297  0.00  0.00    +0.000 A 
ATOM     19  C   UNL     1      45.352   1.798   8.668  0.00  0.00    +0.000 A 
ATOM     20  C   UNL     1      46.333   2.323   7.818  0.00  0.00    +0.000 A 
ATOM     21  C   UNL     1      46.357   3.697   7.650  0.00  0.00    +0.000 A 
ATOM     22  N   UNL     1      45.497   4.555   8.248  0.00  0.00    +0.000 NA
BRANCH  20  23
ATOM     23  C   UNL     1      47.286   1.408   7.145  0.00  0.00    +0.000 C 
ATOM     24  N   UNL     1      48.395   1.933   6.540  0.00  0.00    +0.000 N 
ATOM     25  O   UNL     1      47.091   0.198   7.121  0.00  0.00    +0.000 OA
ATOM     26  H   UNL     1      48.644   2.908   6.489  0.00  0.00    +0.000 HD
ATOM     27  H   UNL     1      49.015   1.275   6.083  0.00  0.00    +0.000 HD
ENDBRANCH  20  23
ENDBRANCH  16  17
ENDBRANCH  15  16
ENDBRANCH   2  15
TORSDOF 7
ENDMDL
MODEL 5
REMARK VINA RESULT:    -6.863      2.606      3.703
REMARK INTER + INTRA:         -10.775
REMARK INTER:                  -9.933
REMARK INTRA:                  -0.842
REMARK UNBOUND:                -1.103
REMARK  Name = 
REMARK  8 active torsions:
REMARK  status: ('A' for Active; 'I' for Inactive)
REMARK    1  A    between atoms: C_1  and  C_2
REMARK    2  A    between atoms: C_2  and  C_3
REMARK    3  A    between atoms: C_2  and  C_14
REMARK    4  A    between atoms: C_3  and  O_4
REMARK    5  A    between atoms: O_4  and  C_5
REMARK    6  A    between atoms: C_8  and  C_9
REMARK    7  A    between atoms: C_18  and  O_19
REMARK    8  A    between atoms: O_19  and  C_20
REMARK                            x       y       z     vdW  Elec       q    Type
REMARK                         _______ _______ _______ _____ _____    ______ ____
ROOT
ATOM      1  C   UNL     1      43.376   5.564  11.390  0.00  0.00    +0.000 C 
ATOM      2  C   UNL     1      44.178   4.596  12.268  0.00  0.00    +0.000 C 
ENDROOT
BRANCH   2   3
ATOM      3  C   UNL     1      45.522   5.193  12.667  0.00  0.00    +0.000 A 
ATOM      4  C   UNL     1      46.147   4.755  13.843  0.00  0.00    +0.000 A 
ATOM      5  C   UNL     1      47.361   5.308  14.256  0.00  0.00    +0.000 A 
ATOM      6  C   UNL     1      47.973   6.310  13.501  0.00  0.00    +0.000 A 
ATOM      7  C   UNL     1      47.373   6.753  12.325  0.00  0.00    +0.000 A 
ATOM      8  C   UNL     1      46.162   6.186  11.905  0.00  0.00    +0.000 A 
BRANCH   7   9
ATOM      9  O   UNL     1      47.902   7.711  11.495  0.00  0.00    +0.000 OA
BRANCH   9  10
ATOM     10  C   UNL     1      48.698   8.776  12.072  0.00  0.00    +0.000 C 
ATOM     11  C   UNL     1      48.626  10.166  11.410  0.00  0.00    +0.000 C 
ATOM     12  N   UNL     1      50.091  10.209  11.296  0.00  0.00    +0.000 NA
ATOM     13  C   UNL     1      50.182   8.785  11.649  0.00  0.00    +0.000 C 
ATOM     14  H   UNL     1      50.547  10.834  11.962  0.00  0.00    +0.000 HD
ENDBRANCH   9  10
ENDBRANCH   7   9
ENDBRANCH   2   3
BRANCH   2  15
ATOM     15  C   UNL     1      44.325   3.223  11.592  0.00  0.00    +0.000 C 
BRANCH  15  16
ATOM     16  O   UNL     1      43.722   3.271  10.288  0.00  0.00    +0.000 OA
BRANCH  16  17
ATOM     17  C   UNL     1      44.629   3.042   9.275  0.00  0.00    +0.000 A 
ATOM     18  C   UNL     1      44.999   4.124   8.490  0.00  0.00    +0.000 A 
ATOM     19  C   UNL     1      45.929   3.915   7.469  0.00  0.00    +0.000 A 
ATOM     20  C   UNL     1      46.458   2.635   7.263  0.00  0.00    +0.000 A 
ATOM     21  C   UNL     1      46.016   1.624   8.099  0.00  0.00    +0.000 A 
ATOM     22  N   UNL     1      45.117   1.796   9.097  0.00  0.00    +0.000 NA
BRANCH  20  23
ATOM     23  C   UNL     1      47.450   2.417   6.182  0.00  0.00    +0.000 C 
ATOM     24  N   UNL     1      48.782   2.443   6.490  0.00  0.00    +0.000 N 
ATOM     25  O   UNL     1      47.092   2.220   5.027  0.00  0.00    +0.000 OA
ATOM     26  H   UNL     1      49.184   2.608   7.399  0.00  0.00    +0.000 HD
ATOM     27  H   UNL     1      49.426   2.299   5.722  0.00  0.00    +0.000 HD
ENDBRANCH  20  23
ENDBRANCH  16  17
ENDBRANCH  15  16
ENDBRANCH   2  15
TORSDOF 7
ENDMDL
MODEL 6
REMARK VINA RESULT:    -6.851      2.628      3.363
REMARK INTER + INTRA:         -10.757
REMARK INTER:                 -10.328
REMARK INTRA:                  -0.429
REMARK UNBOUND:                -1.103
REMARK  Name = 
REMARK  8 active torsions:
REMARK  status: ('A' for Active; 'I' for Inactive)
REMARK    1  A    between atoms: C_1  and  C_2
REMARK    2  A    between atoms: C_2  and  C_3
REMARK    3  A    between atoms: C_2  and  C_14
REMARK    4  A    between atoms: C_3  and  O_4
REMARK    5  A    between atoms: O_4  and  C_5
REMARK    6  A    between atoms: C_8  and  C_9
REMARK    7  A    between atoms: C_18  and  O_19
REMARK    8  A    between atoms: O_19  and  C_20
REMARK                            x       y       z     vdW  Elec       q    Type
REMARK                         _______ _______ _______ _____ _____    ______ ____
ROOT
ATOM      1  C   UNL     1      45.788   3.582  12.776  0.00  0.00    +0.000 C 
ATOM      2  C   UNL     1      45.339   4.485  11.621  0.00  0.00    +0.000 C 
ENDROOT
BRANCH   2   3
ATOM      3  C   UNL     1      45.529   5.957  11.961  0.00  0.00    +0.000 A 
ATOM      4  C   UNL     1      44.651   6.907  11.421  0.00  0.00    +0.000 A 
ATOM      5  C   UNL     1      44.820   8.268  11.684  0.00  0.00    +0.000 A 
ATOM      6  C   UNL     1      45.870   8.706  12.493  0.00  0.00    +0.000 A 
ATOM      7  C   UNL     1      46.748   7.777  13.046  0.00  0.00    +0.000 A 
ATOM      8  C   UNL     1      46.568   6.411  12.793  0.00  0.00    +0.000 A 
BRANCH   7   9
ATOM      9  O   UNL     1      47.796   8.097  13.875  0.00  0.00    +0.000 OA
BRANCH   9  10
ATOM     10  C   UNL     1      49.020   8.609  13.293  0.00  0.00    +0.000 C 
ATOM     11  C   UNL     1      49.500   7.987  11.967  0.00  0.00    +0.000 C 
ATOM     12  N   UNL     1      50.824   7.721  12.548  0.00  0.00    +0.000 NA
ATOM     13  C   UNL     1      50.320   8.033  13.893  0.00  0.00    +0.000 C 
ATOM     14  H   UNL     1      51.560   8.348  12.222  0.00  0.00    +0.000 HD
ENDBRANCH   9  10
ENDBRANCH   7   9
ENDBRANCH   2   3
BRANCH   2  15
ATOM     15  C   UNL     1      43.898   4.164  11.193  0.00  0.00    +0.000 C 
BRANCH  15  16
ATOM     16  O   UNL     1      43.752   4.431   9.787  0.00  0.00    +0.000 OA
BRANCH  16  17
ATOM     17  C   UNL     1      44.698   3.781   9.023  0.00  0.00    +0.000 A 
ATOM     18  C   UNL     1      44.835   2.412   9.200  0.00  0.00    +0.000 A 
ATOM     19  C   UNL     1      45.776   1.734   8.424  0.00  0.00    +0.000 A 
ATOM     20  C   UNL     1      46.551   2.442   7.498  0.00  0.00    +0.000 A 
ATOM     21  C   UNL     1      46.339   3.807   7.404  0.00  0.00    +0.000 A 
ATOM     22  N   UNL     1      45.434   4.491   8.143  0.00  0.00    +0.000 NA
BRANCH  20  23
ATOM     23  C   UNL     1      47.546   1.718   6.669  0.00  0.00    +0.000 C 
ATOM     24  N   UNL     1      48.711   2.349   6.329  0.00  0.00    +0.000 N 
ATOM     25  O   UNL     1      47.336   0.573   6.286  0.00  0.00    +0.000 OA
ATOM     26  H   UNL     1      48.977   3.289   6.578  0.00  0.00    +0.000 HD
ATOM     27  H   UNL     1      49.359   1.824   5.754  0.00  0.00    +0.000 HD
ENDBRANCH  20  23
ENDBRANCH  16  17
ENDBRANCH  15  16
ENDBRANCH   2  15
TORSDOF 7
ENDMDL
MODEL 7
REMARK VINA RESULT:    -6.734      2.039      8.150
REMARK INTER + INTRA:         -10.593
REMARK INTER:                 -10.071
REMARK INTRA:                  -0.522
REMARK UNBOUND:                -1.103
REMARK  Name = 
REMARK  8 active torsions:
REMARK  status: ('A' for Active; 'I' for Inactive)
REMARK    1  A    between atoms: C_1  and  C_2
REMARK    2  A    between atoms: C_2  and  C_3
REMARK    3  A    between atoms: C_2  and  C_14
REMARK    4  A    between atoms: C_3  and  O_4
REMARK    5  A    between atoms: O_4  and  C_5
REMARK    6  A    between atoms: C_8  and  C_9
REMARK    7  A    between atoms: C_18  and  O_19
REMARK    8  A    between atoms: O_19  and  C_20
REMARK                            x       y       z     vdW  Elec       q    Type
REMARK                         _______ _______ _______ _____ _____    ______ ____
ROOT
ATOM      1  C   UNL     1      44.358   6.911  11.854  0.00  0.00    +0.000 C 
ATOM      2  C   UNL     1      45.594   6.435  11.081  0.00  0.00    +0.000 C 
ENDROOT
BRANCH   2   3
ATOM      3  C   UNL     1      45.275   5.225  10.213  0.00  0.00    +0.000 A 
ATOM      4  C   UNL     1      44.398   4.244  10.696  0.00  0.00    +0.000 A 
ATOM      5  C   UNL     1      44.114   3.104   9.940  0.00  0.00    +0.000 A 
ATOM      6  C   UNL     1      44.700   2.924   8.687  0.00  0.00    +0.000 A 
ATOM      7  C   UNL     1      45.568   3.892   8.185  0.00  0.00    +0.000 A 
ATOM      8  C   UNL     1      45.840   5.041   8.939  0.00  0.00    +0.000 A 
BRANCH   7   9
ATOM      9  O   UNL     1      46.177   3.827   6.955  0.00  0.00    +0.000 OA
BRANCH   9  10
ATOM     10  C   UNL     1      46.625   2.540   6.462  0.00  0.00    +0.000 C 
ATOM     11  C   UNL     1      48.041   2.074   6.853  0.00  0.00    +0.000 C 
ATOM     12  N   UNL     1      48.376   1.842   5.441  0.00  0.00    +0.000 NA
ATOM     13  C   UNL     1      47.160   2.546   5.014  0.00  0.00    +0.000 C 
ATOM     14  H   UNL     1      48.406   0.859   5.172  0.00  0.00    +0.000 HD
ENDBRANCH   9  10
ENDBRANCH   7   9
ENDBRANCH   2   3
BRANCH   2  15
ATOM     15  C   UNL     1      46.778   6.180  12.029  0.00  0.00    +0.000 C 
BRANCH  15  16
ATOM     16  O   UNL     1      46.526   4.986  12.789  0.00  0.00    +0.000 OA
BRANCH  16  17
ATOM     17  C   UNL     1      47.089   5.028  14.047  0.00  0.00    +0.000 A 
ATOM     18  C   UNL     1      47.906   6.108  14.346  0.00  0.00    +0.000 A 
ATOM     19  C   UNL     1      48.473   6.178  15.620  0.00  0.00    +0.000 A 
ATOM     20  C   UNL     1      48.209   5.168  16.553  0.00  0.00    +0.000 A 
ATOM     21  C   UNL     1      47.385   4.132  16.150  0.00  0.00    +0.000 A 
ATOM     22  N   UNL     1      46.821   4.037  14.923  0.00  0.00    +0.000 NA
BRANCH  20  23
ATOM     23  C   UNL     1      48.807   5.247  17.908  0.00  0.00    +0.000 C 
ATOM     24  N   UNL     1      48.017   5.617  18.962  0.00  0.00    +0.000 N 
ATOM     25  O   UNL     1      49.991   4.991  18.092  0.00  0.00    +0.000 OA
ATOM     26  H   UNL     1      47.039   5.859  18.921  0.00  0.00    +0.000 HD
ATOM     27  H   UNL     1      48.466   5.667  19.868  0.00  0.00    +0.000 HD
ENDBRANCH  20  23
ENDBRANCH  16  17
ENDBRANCH  15  16
ENDBRANCH   2  15
TORSDOF 7
ENDMDL
MODEL 8
REMARK VINA RESULT:    -6.317      3.280      7.422
REMARK INTER + INTRA:         -10.005
REMARK INTER:                  -8.931
REMARK INTRA:                  -1.075
REMARK UNBOUND:                -1.103
REMARK  Name = 
REMARK  8 active torsions:
REMARK  status: ('A' for Active; 'I' for Inactive)
REMARK    1  A    between atoms: C_1  and  C_2
REMARK    2  A    between atoms: C_2  and  C_3
REMARK    3  A    between atoms: C_2  and  C_14
REMARK    4  A    between atoms: C_3  and  O_4
REMARK    5  A    between atoms: O_4  and  C_5
REMARK    6  A    between atoms: C_8  and  C_9
REMARK    7  A    between atoms: C_18  and  O_19
REMARK    8  A    between atoms: O_19  and  C_20
REMARK                            x       y       z     vdW  Elec       q    Type
REMARK                         _______ _______ _______ _____ _____    ______ ____
ROOT
ATOM      1  C   UNL     1      49.205   9.348  11.951  0.00  0.00    +0.000 C 
ATOM      2  C   UNL     1      48.769   7.884  11.819  0.00  0.00    +0.000 C 
ENDROOT
BRANCH   2   3
ATOM      3  C   UNL     1      47.253   7.761  11.745  0.00  0.00    +0.000 A 
ATOM      4  C   UNL     1      46.454   8.832  12.167  0.00  0.00    +0.000 A 
ATOM      5  C   UNL     1      45.061   8.737  12.146  0.00  0.00    +0.000 A 
ATOM      6  C   UNL     1      44.440   7.568  11.704  0.00  0.00    +0.000 A 
ATOM      7  C   UNL     1      45.215   6.494  11.273  0.00  0.00    +0.000 A 
ATOM      8  C   UNL     1      46.613   6.598  11.281  0.00  0.00    +0.000 A 
BRANCH   7   9
ATOM      9  O   UNL     1      44.707   5.311  10.794  0.00  0.00    +0.000 OA
BRANCH   9  10
ATOM     10  C   UNL     1      43.789   4.556  11.623  0.00  0.00    +0.000 C 
ATOM     11  C   UNL     1      44.323   3.986  12.952  0.00  0.00    +0.000 C 
ATOM     12  N   UNL     1      43.851   2.642  12.587  0.00  0.00    +0.000 NA
ATOM     13  C   UNL     1      43.596   3.082  11.209  0.00  0.00    +0.000 C 
ATOM     14  H   UNL     1      43.016   2.339  13.090  0.00  0.00    +0.000 HD
ENDBRANCH   9  10
ENDBRANCH   7   9
ENDBRANCH   2   3
BRANCH   2  15
ATOM     15  C   UNL     1      49.373   7.021  12.939  0.00  0.00    +0.000 C 
BRANCH  15  16
ATOM     16  O   UNL     1      48.899   7.497  14.210  0.00  0.00    +0.000 OA
BRANCH  16  17
ATOM     17  C   UNL     1      48.555   6.472  15.066  0.00  0.00    +0.000 A 
ATOM     18  C   UNL     1      49.003   6.554  16.376  0.00  0.00    +0.000 A 
ATOM     19  C   UNL     1      48.652   5.535  17.263  0.00  0.00    +0.000 A 
ATOM     20  C   UNL     1      47.866   4.466  16.815  0.00  0.00    +0.000 A 
ATOM     21  C   UNL     1      47.476   4.479  15.486  0.00  0.00    +0.000 A 
ATOM     22  N   UNL     1      47.802   5.453  14.604  0.00  0.00    +0.000 NA
BRANCH  20  23
ATOM     23  C   UNL     1      47.488   3.387  17.759  0.00  0.00    +0.000 C 
ATOM     24  N   UNL     1      48.303   3.122  18.825  0.00  0.00    +0.000 N 
ATOM     25  O   UNL     1      46.464   2.734  17.594  0.00  0.00    +0.000 OA
ATOM     26  H   UNL     1      49.169   3.588  19.046  0.00  0.00    +0.000 HD
ATOM     27  H   UNL     1      48.014   2.372  19.440  0.00  0.00    +0.000 HD
ENDBRANCH  20  23
ENDBRANCH  16  17
ENDBRANCH  15  16
ENDBRANCH   2  15
TORSDOF 7
ENDMDL
MODEL 9
REMARK VINA RESULT:    -6.159      2.762      4.676
REMARK INTER + INTRA:          -9.782
REMARK INTER:                  -8.863
REMARK INTRA:                  -0.919
REMARK UNBOUND:                -1.103
REMARK  Name = 
REMARK  8 active torsions:
REMARK  status: ('A' for Active; 'I' for Inactive)
REMARK    1  A    between atoms: C_1  and  C_2
REMARK    2  A    between atoms: C_2  and  C_3
REMARK    3  A    between atoms: C_2  and  C_14
REMARK    4  A    between atoms: C_3  and  O_4
REMARK    5  A    between atoms: O_4  and  C_5
REMARK    6  A    between atoms: C_8  and  C_9
REMARK    7  A    between atoms: C_18  and  O_19
REMARK    8  A    between atoms: O_19  and  C_20
REMARK                            x       y       z     vdW  Elec       q    Type
REMARK                         _______ _______ _______ _____ _____    ______ ____
ROOT
ATOM      1  C   UNL     1      49.460   7.293  11.969  0.00  0.00    +0.000 C 
ATOM      2  C   UNL     1      48.657   8.330  12.764  0.00  0.00    +0.000 C 
ENDROOT
BRANCH   2   3
ATOM      3  C   UNL     1      48.712   8.047  14.259  0.00  0.00    +0.000 A 
ATOM      4  C   UNL     1      48.654   9.116  15.164  0.00  0.00    +0.000 A 
ATOM      5  C   UNL     1      48.738   8.893  16.540  0.00  0.00    +0.000 A 
ATOM      6  C   UNL     1      48.883   7.597  17.038  0.00  0.00    +0.000 A 
ATOM      7  C   UNL     1      48.934   6.520  16.156  0.00  0.00    +0.000 A 
ATOM      8  C   UNL     1      48.834   6.745  14.776  0.00  0.00    +0.000 A 
BRANCH   7   9
ATOM      9  O   UNL     1      49.047   5.205  16.539  0.00  0.00    +0.000 OA
BRANCH   9  10
ATOM     10  C   UNL     1      47.885   4.345  16.444  0.00  0.00    +0.000 C 
ATOM     11  C   UNL     1      46.907   4.324  17.634  0.00  0.00    +0.000 C 
ATOM     12  N   UNL     1      47.000   2.858  17.710  0.00  0.00    +0.000 NA
ATOM     13  C   UNL     1      48.141   2.861  16.784  0.00  0.00    +0.000 C 
ATOM     14  H   UNL     1      46.178   2.366  17.358  0.00  0.00    +0.000 HD
ENDBRANCH   9  10
ENDBRANCH   7   9
ENDBRANCH   2   3
BRANCH   2  15
ATOM     15  C   UNL     1      47.215   8.437  12.240  0.00  0.00    +0.000 C 
BRANCH  15  16
ATOM     16  O   UNL     1      46.329   7.772  13.156  0.00  0.00    +0.000 OA
BRANCH  16  17
ATOM     17  C   UNL     1      45.796   6.613  12.632  0.00  0.00    +0.000 A 
ATOM     18  C   UNL     1      45.426   6.627  11.296  0.00  0.00    +0.000 A 
ATOM     19  C   UNL     1      44.899   5.458  10.742  0.00  0.00    +0.000 A 
ATOM     20  C   UNL     1      44.756   4.316  11.539  0.00  0.00    +0.000 A 
ATOM     21  C   UNL     1      45.151   4.412  12.862  0.00  0.00    +0.000 A 
ATOM     22  N   UNL     1      45.665   5.531  13.426  0.00  0.00    +0.000 NA
BRANCH  20  23
ATOM     23  C   UNL     1      44.202   3.074  10.947  0.00  0.00    +0.000 C 
ATOM     24  N   UNL     1      44.957   2.373  10.048  0.00  0.00    +0.000 N 
ATOM     25  O   UNL     1      43.083   2.675  11.250  0.00  0.00    +0.000 OA
ATOM     26  H   UNL     1      45.878   2.617   9.721  0.00  0.00    +0.000 HD
ATOM     27  H   UNL     1      44.538   1.536   9.660  0.00  0.00    +0.000 HD
ENDBRANCH  20  23
ENDBRANCH  16  17
ENDBRANCH  15  16
ENDBRANCH   2  15
TORSDOF 7
ENDMDL
