MODEL 1
REMARK VINA RESULT:    -7.950      0.000      0.000
REMARK INTER + INTRA:         -12.244
REMARK INTER:                 -10.971
REMARK INTRA:                  -1.273
REMARK UNBOUND:                -1.273
REMARK  Name = 
REMARK  7 active torsions:
REMARK  status: ('A' for Active; 'I' for Inactive)
REMARK    1  A    between atoms: C_2  and  C_4
REMARK    2  A    between atoms: C_8  and  O_9
REMARK    3  A    between atoms: O_9  and  C_10
REMARK    4  A    between atoms: C_10  and  C_11
REMARK    5  A    between atoms: C_11  and  C_12
REMARK    6  A    between atoms: C_14  and  C_15
REMARK    7  A    between atoms: C_25  and  N_26
REMARK                            x       y       z     vdW  Elec       q    Type
REMARK                         _______ _______ _______ _____ _____    ______ ____
ROOT
ATOM      1  C   UNL     1      44.807   5.232  12.017  0.00  0.00    +0.000 A 
ATOM      2  C   UNL     1      45.473   6.473  11.883  0.00  0.00    +0.000 A 
ATOM      3  C   UNL     1      46.771   6.719  12.392  0.00  0.00    +0.000 A 
ATOM      4  C   UNL     1      47.385   5.651  13.054  0.00  0.00    +0.000 A 
ATOM      5  C   UNL     1      46.712   4.444  13.250  0.00  0.00    +0.000 A 
ATOM      6  F   UNL     1      47.336   3.469  13.933  0.00  0.00    +0.000 F 
ATOM      7  C   UNL     1      45.410   4.222  12.778  0.00  0.00    +0.000 A 
ENDROOT
BRANCH   3   8
ATOM      8  C   UNL     1      47.443   8.035  12.174  0.00  0.00    +0.000 A 
ATOM      9  C   UNL     1      48.819   8.045  11.837  0.00  0.00    +0.000 A 
ATOM     10  C   UNL     1      49.519   9.223  11.560  0.00  0.00    +0.000 A 
ATOM     11  C   UNL     1      48.875  10.448  11.645  0.00  0.00    +0.000 A 
ATOM     12  C   UNL     1      47.532  10.487  12.003  0.00  0.00    +0.000 A 
ATOM     13  C   UNL     1      46.816   9.302  12.252  0.00  0.00    +0.000 A 
ATOM     14 CL   UNL     1      45.128   9.524  12.584  0.00  0.00    +0.000 Cl
ENDBRANCH   3   8
BRANCH   7  15
ATOM     15  N   UNL     1      44.849   2.937  12.890  0.00  0.00    +0.000 N 
ATOM     16  H   UNL     1      44.367   2.654  12.037  0.00  0.00    +0.000 HD
ATOM     17  H   UNL     1      45.473   2.219  13.238  0.00  0.00    +0.000 HD
ENDBRANCH   7  15
BRANCH   1  18
ATOM     18  C   UNL     1      43.447   5.064  11.367  0.00  0.00    +0.000 C 
BRANCH  18  19
ATOM     19  C   UNL     1      43.587   4.609   9.918  0.00  0.00    +0.000 C 
BRANCH  19  20
ATOM     20  O   UNL     1      44.102   3.269   9.846  0.00  0.00    +0.000 OA
BRANCH  20  25
ATOM     21  C   UNL     1      46.499   1.883   7.588  0.00  0.00    +0.000 A 
ATOM     22  C   UNL     1      47.123   2.997   7.049  0.00  0.00    +0.000 A 
ATOM     23  C   UNL     1      46.695   4.252   7.476  0.00  0.00    +0.000 A 
ATOM     24  C   UNL     1      45.673   4.345   8.422  0.00  0.00    +0.000 A 
ATOM     25  C   UNL     1      45.112   3.171   8.904  0.00  0.00    +0.000 A 
ATOM     26  N   UNL     1      45.499   1.945   8.502  0.00  0.00    +0.000 NA
BRANCH  21  28
ATOM     27  N   UNL     1      47.299   0.379   5.874  0.00  0.00    +0.000 N 
ATOM     28  C   UNL     1      46.907   0.504   7.181  0.00  0.00    +0.000 C 
ATOM     29  O   UNL     1      46.898  -0.448   7.955  0.00  0.00    +0.000 OA
ATOM     30  H   UNL     1      47.591  -0.521   5.522  0.00  0.00    +0.000 HD
ATOM     31  H   UNL     1      47.304   1.193   5.271  0.00  0.00    +0.000 HD
ENDBRANCH  21  28
ENDBRANCH  20  25
ENDBRANCH  19  20
ENDBRANCH  18  19
ENDBRANCH   1  18
TORSDOF 7
ENDMDL
MODEL 2
REMARK VINA RESULT:    -7.792      1.642      2.219
REMARK INTER + INTRA:         -12.026
REMARK INTER:                 -11.224
REMARK INTRA:                  -0.802
REMARK UNBOUND:                -1.273
REMARK  Name = 
REMARK  7 active torsions:
REMARK  status: ('A' for Active; 'I' for Inactive)
REMARK    1  A    between atoms: C_2  and  C_4
REMARK    2  A    between atoms: C_8  and  O_9
REMARK    3  A    between atoms: O_9  and  C_10
REMARK    4  A    between atoms: C_10  and  C_11
REMARK    5  A    between atoms: C_11  and  C_12
REMARK    6  A    between atoms: C_14  and  C_15
REMARK    7  A    between atoms: C_25  and  N_26
REMARK                            x       y       z     vdW  Elec       q    Type
REMARK                         _______ _______ _______ _____ _____    ______ ____
ROOT
ATOM      1  C   UNL     1      44.897   5.005  12.691  0.00  0.00    +0.000 A 
ATOM      2  C   UNL     1      44.590   6.311  12.240  0.00  0.00    +0.000 A 
ATOM      3  C   UNL     1      45.493   7.397  12.328  0.00  0.00    +0.000 A 
ATOM      4  C   UNL     1      46.740   7.116  12.899  0.00  0.00    +0.000 A 
ATOM      5  C   UNL     1      47.028   5.849  13.407  0.00  0.00    +0.000 A 
ATOM      6  F   UNL     1      48.225   5.651  13.985  0.00  0.00    +0.000 F 
ATOM      7  C   UNL     1      46.112   4.788  13.353  0.00  0.00    +0.000 A 
ENDROOT
BRANCH   3   8
ATOM      8  C   UNL     1      45.131   8.741  11.787  0.00  0.00    +0.000 A 
ATOM      9  C   UNL     1      43.895   8.887  11.110  0.00  0.00    +0.000 A 
ATOM     10  C   UNL     1      43.445  10.117  10.619  0.00  0.00    +0.000 A 
ATOM     11  C   UNL     1      44.237  11.247  10.754  0.00  0.00    +0.000 A 
ATOM     12  C   UNL     1      45.472  11.143  11.383  0.00  0.00    +0.000 A 
ATOM     13  C   UNL     1      45.914   9.914  11.906  0.00  0.00    +0.000 A 
ATOM     14 CL   UNL     1      47.429   9.981  12.749  0.00  0.00    +0.000 Cl
ENDBRANCH   3   8
BRANCH   7  15
ATOM     15  N   UNL     1      46.522   3.505  13.758  0.00  0.00    +0.000 N 
ATOM     16  H   UNL     1      46.275   2.791  13.075  0.00  0.00    +0.000 HD
ATOM     17  H   UNL     1      47.485   3.433  14.064  0.00  0.00    +0.000 HD
ENDBRANCH   7  15
BRANCH   1  18
ATOM     18  C   UNL     1      43.874   3.905  12.478  0.00  0.00    +0.000 C 
BRANCH  18  19
ATOM     19  C   UNL     1      43.398   3.875  11.030  0.00  0.00    +0.000 C 
BRANCH  19  20
ATOM     20  O   UNL     1      43.770   2.642  10.391  0.00  0.00    +0.000 OA
BRANCH  20  25
ATOM     21  C   UNL     1      46.285   2.026   7.928  0.00  0.00    +0.000 A 
ATOM     22  C   UNL     1      46.639   3.295   7.497  0.00  0.00    +0.000 A 
ATOM     23  C   UNL     1      45.984   4.382   8.071  0.00  0.00    +0.000 A 
ATOM     24  C   UNL     1      45.013   4.162   9.049  0.00  0.00    +0.000 A 
ATOM     25  C   UNL     1      44.730   2.854   9.415  0.00  0.00    +0.000 A 
ATOM     26  N   UNL     1      45.340   1.784   8.871  0.00  0.00    +0.000 NA
BRANCH  21  28
ATOM     27  N   UNL     1      47.616   1.014   6.184  0.00  0.00    +0.000 N 
ATOM     28  C   UNL     1      46.947   0.812   7.362  0.00  0.00    +0.000 C 
ATOM     29  O   UNL     1      46.902  -0.287   7.907  0.00  0.00    +0.000 OA
ATOM     30  H   UNL     1      48.091   0.244   5.737  0.00  0.00    +0.000 HD
ATOM     31  H   UNL     1      47.639   1.941   5.773  0.00  0.00    +0.000 HD
ENDBRANCH  21  28
ENDBRANCH  20  25
ENDBRANCH  19  20
ENDBRANCH  18  19
ENDBRANCH   1  18
TORSDOF 7
ENDMDL
MODEL 3
REMARK VINA RESULT:    -7.462      4.182      7.549
REMARK INTER + INTRA:         -11.571
REMARK INTER:                 -10.195
REMARK INTRA:                  -1.377
REMARK UNBOUND:                -1.273
REMARK  Name = 
REMARK  7 active torsions:
REMARK  status: ('A' for Active; 'I' for Inactive)
REMARK    1  A    between atoms: C_2  and  C_4
REMARK    2  A    between atoms: C_8  and  O_9
REMARK    3  A    between atoms: O_9  and  C_10
REMARK    4  A    between atoms: C_10  and  C_11
REMARK    5  A    between atoms: C_11  and  C_12
REMARK    6  A    between atoms: C_14  and  C_15
REMARK    7  A    between atoms: C_25  and  N_26
REMARK                            x       y       z     vdW  Elec       q    Type
REMARK                         _______ _______ _______ _____ _____    ______ ____
ROOT
ATOM      1  C   UNL     1      47.693   7.852  12.164  0.00  0.00    +0.000 A 
ATOM      2  C   UNL     1      47.141   6.680  11.595  0.00  0.00    +0.000 A 
ATOM      3  C   UNL     1      45.761   6.520  11.328  0.00  0.00    +0.000 A 
ATOM      4  C   UNL     1      44.939   7.602  11.662  0.00  0.00    +0.000 A 
ATOM      5  C   UNL     1      45.463   8.737  12.283  0.00  0.00    +0.000 A 
ATOM      6  F   UNL     1      44.619   9.726  12.622  0.00  0.00    +0.000 F 
ATOM      7  C   UNL     1      46.827   8.871  12.583  0.00  0.00    +0.000 A 
ENDROOT
BRANCH   3   8
ATOM      8  C   UNL     1      45.245   5.278  10.678  0.00  0.00    +0.000 A 
ATOM      9  C   UNL     1      45.516   5.071   9.303  0.00  0.00    +0.000 A 
ATOM     10  C   UNL     1      45.123   3.914   8.623  0.00  0.00    +0.000 A 
ATOM     11  C   UNL     1      44.407   2.930   9.287  0.00  0.00    +0.000 A 
ATOM     12  C   UNL     1      44.091   3.106  10.630  0.00  0.00    +0.000 A 
ATOM     13  C   UNL     1      44.512   4.254  11.325  0.00  0.00    +0.000 A 
ATOM     14 CL   UNL     1      44.124   4.267  13.016  0.00  0.00    +0.000 Cl
ENDBRANCH   3   8
BRANCH   7  15
ATOM     15  N   UNL     1      47.304  10.097  13.082  0.00  0.00    +0.000 N 
ATOM     16  H   UNL     1      46.627  10.849  12.958  0.00  0.00    +0.000 HD
ATOM     17  H   UNL     1      47.682  10.066  14.021  0.00  0.00    +0.000 HD
ENDBRANCH   7  15
BRANCH   1  18
ATOM     18  C   UNL     1      49.198   7.936  12.337  0.00  0.00    +0.000 C 
BRANCH  18  19
ATOM     19  C   UNL     1      49.637   7.264  13.634  0.00  0.00    +0.000 C 
BRANCH  19  20
ATOM     20  O   UNL     1      49.056   7.919  14.775  0.00  0.00    +0.000 OA
BRANCH  20  25
ATOM     21  C   UNL     1      48.175   4.954  16.564  0.00  0.00    +0.000 A 
ATOM     22  C   UNL     1      48.438   5.279  17.886  0.00  0.00    +0.000 A 
ATOM     23  C   UNL     1      48.937   6.552  18.155  0.00  0.00    +0.000 A 
ATOM     24  C   UNL     1      49.147   7.445  17.104  0.00  0.00    +0.000 A 
ATOM     25  C   UNL     1      48.852   7.027  15.814  0.00  0.00    +0.000 A 
ATOM     26  N   UNL     1      48.377   5.800  15.523  0.00  0.00    +0.000 NA
BRANCH  21  28
ATOM     27  N   UNL     1      47.028   2.932  17.223  0.00  0.00    +0.000 N 
ATOM     28  C   UNL     1      47.634   3.610  16.198  0.00  0.00    +0.000 C 
ATOM     29  O   UNL     1      47.719   3.144  15.066  0.00  0.00    +0.000 OA
ATOM     30  H   UNL     1      46.636   2.017  17.057  0.00  0.00    +0.000 HD
ATOM     31  H   UNL     1      46.969   3.358  18.141  0.00  0.00    +0.000 HD
ENDBRANCH  21  28
ENDBRANCH  20  25
ENDBRANCH  19  20
ENDBRANCH  18  19
ENDBRANCH   1  18
TORSDOF 7
ENDMDL
MODEL 4
REMARK VINA RESULT:    -7.099      4.626      7.607
REMARK INTER + INTRA:         -11.070
REMARK INTER:                  -9.580
REMARK INTRA:                  -1.491
REMARK UNBOUND:                -1.273
REMARK  Name = 
REMARK  7 active torsions:
REMARK  status: ('A' for Active; 'I' for Inactive)
REMARK    1  A    between atoms: C_2  and  C_4
REMARK    2  A    between atoms: C_8  and  O_9
REMARK    3  A    between atoms: O_9  and  C_10
REMARK    4  A    between atoms: C_10  and  C_11
REMARK    5  A    between atoms: C_11  and  C_12
REMARK    6  A    between atoms: C_14  and  C_15
REMARK    7  A    between atoms: C_25  and  N_26
REMARK                            x       y       z     vdW  Elec       q    Type
REMARK                         _______ _______ _______ _____ _____    ______ ____
ROOT
ATOM      1  C   UNL     1      47.420   7.961  12.202  0.00  0.00    +0.000 A 
ATOM      2  C   UNL     1      46.944   6.742  11.664  0.00  0.00    +0.000 A 
ATOM      3  C   UNL     1      45.604   6.543  11.253  0.00  0.00    +0.000 A 
ATOM      4  C   UNL     1      44.744   7.637  11.407  0.00  0.00    +0.000 A 
ATOM      5  C   UNL     1      45.187   8.821  11.997  0.00  0.00    +0.000 A 
ATOM      6  F   UNL     1      44.304   9.821  12.159  0.00  0.00    +0.000 F 
ATOM      7  C   UNL     1      46.506   8.996  12.440  0.00  0.00    +0.000 A 
ENDROOT
BRANCH   3   8
ATOM      8  C   UNL     1      45.173   5.249  10.645  0.00  0.00    +0.000 A 
ATOM      9  C   UNL     1      45.533   4.980   9.301  0.00  0.00    +0.000 A 
ATOM     10  C   UNL     1      45.224   3.774   8.665  0.00  0.00    +0.000 A 
ATOM     11  C   UNL     1      44.505   2.799   9.341  0.00  0.00    +0.000 A 
ATOM     12  C   UNL     1      44.104   3.034  10.651  0.00  0.00    +0.000 A 
ATOM     13  C   UNL     1      44.441   4.234  11.304  0.00  0.00    +0.000 A 
ATOM     14 CL   UNL     1      43.953   4.321  12.967  0.00  0.00    +0.000 Cl
ENDBRANCH   3   8
BRANCH   7  15
ATOM     15  N   UNL     1      46.916  10.263  12.895  0.00  0.00    +0.000 N 
ATOM     16  H   UNL     1      46.329  11.010  12.526  0.00  0.00    +0.000 HD
ATOM     17  H   UNL     1      47.058  10.340  13.895  0.00  0.00    +0.000 HD
ENDBRANCH   7  15
BRANCH   1  18
ATOM     18  C   UNL     1      48.894   8.079  12.541  0.00  0.00    +0.000 C 
BRANCH  18  19
ATOM     19  C   UNL     1      49.312   7.007  13.542  0.00  0.00    +0.000 C 
BRANCH  19  20
ATOM     20  O   UNL     1      48.605   7.159  14.784  0.00  0.00    +0.000 OA
BRANCH  20  25
ATOM     21  C   UNL     1      48.595   4.341  16.981  0.00  0.00    +0.000 A 
ATOM     22  C   UNL     1      47.673   3.481  16.405  0.00  0.00    +0.000 A 
ATOM     23  C   UNL     1      47.041   3.894  15.235  0.00  0.00    +0.000 A 
ATOM     24  C   UNL     1      47.354   5.139  14.687  0.00  0.00    +0.000 A 
ATOM     25  C   UNL     1      48.293   5.928  15.336  0.00  0.00    +0.000 A 
ATOM     26  N   UNL     1      48.913   5.558  16.473  0.00  0.00    +0.000 NA
BRANCH  21  28
ATOM     27  N   UNL     1      48.510   3.584  19.274  0.00  0.00    +0.000 N 
ATOM     28  C   UNL     1      49.317   3.964  18.234  0.00  0.00    +0.000 C 
ATOM     29  O   UNL     1      50.540   3.987  18.330  0.00  0.00    +0.000 OA
ATOM     30  H   UNL     1      48.921   3.313  20.155  0.00  0.00    +0.000 HD
ATOM     31  H   UNL     1      47.505   3.567  19.149  0.00  0.00    +0.000 HD
ENDBRANCH  21  28
ENDBRANCH  20  25
ENDBRANCH  19  20
ENDBRANCH  18  19
ENDBRANCH   1  18
TORSDOF 7
ENDMDL
MODEL 5
REMARK VINA RESULT:    -6.836      2.298      3.119
REMARK INTER + INTRA:         -10.707
REMARK INTER:                 -10.060
REMARK INTRA:                  -0.648
REMARK UNBOUND:                -1.273
REMARK  Name = 
REMARK  7 active torsions:
REMARK  status: ('A' for Active; 'I' for Inactive)
REMARK    1  A    between atoms: C_2  and  C_4
REMARK    2  A    between atoms: C_8  and  O_9
REMARK    3  A    between atoms: O_9  and  C_10
REMARK    4  A    between atoms: C_10  and  C_11
REMARK    5  A    between atoms: C_11  and  C_12
REMARK    6  A    between atoms: C_14  and  C_15
REMARK    7  A    between atoms: C_25  and  N_26
REMARK                            x       y       z     vdW  Elec       q    Type
REMARK                         _______ _______ _______ _____ _____    ______ ____
ROOT
ATOM      1  C   UNL     1      44.802   4.461  10.103  0.00  0.00    +0.000 A 
ATOM      2  C   UNL     1      45.336   5.741  10.385  0.00  0.00    +0.000 A 
ATOM      3  C   UNL     1      45.350   6.309  11.681  0.00  0.00    +0.000 A 
ATOM      4  C   UNL     1      44.795   5.529  12.702  0.00  0.00    +0.000 A 
ATOM      5  C   UNL     1      44.207   4.294  12.424  0.00  0.00    +0.000 A 
ATOM      6  F   UNL     1      43.650   3.610  13.437  0.00  0.00    +0.000 F 
ATOM      7  C   UNL     1      44.161   3.756  11.129  0.00  0.00    +0.000 A 
ENDROOT
BRANCH   3   8
ATOM      8  C   UNL     1      45.974   7.644  11.926  0.00  0.00    +0.000 A 
ATOM      9  C   UNL     1      45.180   8.804  11.750  0.00  0.00    +0.000 A 
ATOM     10  C   UNL     1      45.660  10.092  12.010  0.00  0.00    +0.000 A 
ATOM     11  C   UNL     1      46.972  10.272  12.422  0.00  0.00    +0.000 A 
ATOM     12  C   UNL     1      47.796   9.163  12.577  0.00  0.00    +0.000 A 
ATOM     13  C   UNL     1      47.307   7.864  12.347  0.00  0.00    +0.000 A 
ATOM     14 CL   UNL     1      48.434   6.589  12.686  0.00  0.00    +0.000 Cl
ENDBRANCH   3   8
BRANCH   7  15
ATOM     15  N   UNL     1      43.678   2.447  10.946  0.00  0.00    +0.000 N 
ATOM     16  H   UNL     1      44.434   1.771  10.847  0.00  0.00    +0.000 HD
ATOM     17  H   UNL     1      42.974   2.147  11.610  0.00  0.00    +0.000 HD
ENDBRANCH   7  15
BRANCH   1  18
ATOM     18  C   UNL     1      44.909   3.926   8.687  0.00  0.00    +0.000 C 
BRANCH  18  19
ATOM     19  C   UNL     1      46.259   4.279   8.070  0.00  0.00    +0.000 C 
BRANCH  19  20
ATOM     20  O   UNL     1      46.249   4.058   6.649  0.00  0.00    +0.000 OA
BRANCH  20  25
ATOM     21  C   UNL     1      46.884   1.072   4.793  0.00  0.00    +0.000 A 
ATOM     22  C   UNL     1      47.265   0.158   5.763  0.00  0.00    +0.000 A 
ATOM     23  C   UNL     1      47.307   0.594   7.086  0.00  0.00    +0.000 A 
ATOM     24  C   UNL     1      46.964   1.913   7.386  0.00  0.00    +0.000 A 
ATOM     25  C   UNL     1      46.594   2.752   6.345  0.00  0.00    +0.000 A 
ATOM     26  N   UNL     1      46.553   2.361   5.057  0.00  0.00    +0.000 NA
BRANCH  21  28
ATOM     27  N   UNL     1      45.693   1.108   2.691  0.00  0.00    +0.000 N 
ATOM     28  C   UNL     1      46.812   0.676   3.354  0.00  0.00    +0.000 C 
ATOM     29  O   UNL     1      47.686   0.017   2.799  0.00  0.00    +0.000 OA
ATOM     30  H   UNL     1      45.569   0.882   1.715  0.00  0.00    +0.000 HD
ATOM     31  H   UNL     1      45.000   1.660   3.183  0.00  0.00    +0.000 HD
ENDBRANCH  21  28
ENDBRANCH  20  25
ENDBRANCH  19  20
ENDBRANCH  18  19
ENDBRANCH   1  18
TORSDOF 7
ENDMDL
MODEL 6
REMARK VINA RESULT:    -6.745      2.332      2.904
REMARK INTER + INTRA:         -10.581
REMARK INTER:                 -11.084
REMARK INTRA:                   0.503
REMARK UNBOUND:                -1.273
REMARK  Name = 
REMARK  7 active torsions:
REMARK  status: ('A' for Active; 'I' for Inactive)
REMARK    1  A    between atoms: C_2  and  C_4
REMARK    2  A    between atoms: C_8  and  O_9
REMARK    3  A    between atoms: O_9  and  C_10
REMARK    4  A    between atoms: C_10  and  C_11
REMARK    5  A    between atoms: C_11  and  C_12
REMARK    6  A    between atoms: C_14  and  C_15
REMARK    7  A    between atoms: C_25  and  N_26
REMARK                            x       y       z     vdW  Elec       q    Type
REMARK                         _______ _______ _______ _____ _____    ______ ____
ROOT
ATOM      1  C   UNL     1      45.431   5.265  12.176  0.00  0.00    +0.000 A 
ATOM      2  C   UNL     1      46.652   5.533  12.840  0.00  0.00    +0.000 A 
ATOM      3  C   UNL     1      47.114   6.840  13.121  0.00  0.00    +0.000 A 
ATOM      4  C   UNL     1      46.288   7.889  12.701  0.00  0.00    +0.000 A 
ATOM      5  C   UNL     1      45.115   7.639  11.989  0.00  0.00    +0.000 A 
ATOM      6  F   UNL     1      44.385   8.687  11.573  0.00  0.00    +0.000 F 
ATOM      7  C   UNL     1      44.684   6.340  11.678  0.00  0.00    +0.000 A 
ENDROOT
BRANCH   3   8
ATOM      8  C   UNL     1      48.387   7.059  13.870  0.00  0.00    +0.000 A 
ATOM      9  C   UNL     1      48.474   6.596  15.207  0.00  0.00    +0.000 A 
ATOM     10  C   UNL     1      49.642   6.705  15.968  0.00  0.00    +0.000 A 
ATOM     11  C   UNL     1      50.764   7.317  15.431  0.00  0.00    +0.000 A 
ATOM     12  C   UNL     1      50.713   7.814  14.134  0.00  0.00    +0.000 A 
ATOM     13  C   UNL     1      49.550   7.679  13.354  0.00  0.00    +0.000 A 
ATOM     14 CL   UNL     1      49.691   8.260  11.726  0.00  0.00    +0.000 Cl
ENDBRANCH   3   8
BRANCH   7  15
ATOM     15  N   UNL     1      43.424   6.159  11.080  0.00  0.00    +0.000 N 
ATOM     16  H   UNL     1      43.421   5.383  10.420  0.00  0.00    +0.000 HD
ATOM     17  H   UNL     1      42.640   6.126  11.721  0.00  0.00    +0.000 HD
ENDBRANCH   7  15
BRANCH   1  18
ATOM     18  C   UNL     1      45.005   3.820  11.994  0.00  0.00    +0.000 C 
BRANCH  18  19
ATOM     19  C   UNL     1      43.711   3.729  11.192  0.00  0.00    +0.000 C 
BRANCH  19  20
ATOM     20  O   UNL     1      43.746   2.615  10.283  0.00  0.00    +0.000 OA
BRANCH  20  25
ATOM     21  C   UNL     1      46.291   1.956   7.863  0.00  0.00    +0.000 A 
ATOM     22  C   UNL     1      46.584   3.209   7.348  0.00  0.00    +0.000 A 
ATOM     23  C   UNL     1      45.878   4.300   7.849  0.00  0.00    +0.000 A 
ATOM     24  C   UNL     1      44.917   4.100   8.841  0.00  0.00    +0.000 A 
ATOM     25  C   UNL     1      44.696   2.807   9.294  0.00  0.00    +0.000 A 
ATOM     26  N   UNL     1      45.357   1.733   8.822  0.00  0.00    +0.000 NA
BRANCH  21  28
ATOM     27  N   UNL     1      47.811   0.940   6.284  0.00  0.00    +0.000 N 
ATOM     28  C   UNL     1      47.010   0.740   7.378  0.00  0.00    +0.000 C 
ATOM     29  O   UNL     1      46.900  -0.358   7.915  0.00  0.00    +0.000 OA
ATOM     30  H   UNL     1      48.332   0.168   5.896  0.00  0.00    +0.000 HD
ATOM     31  H   UNL     1      47.884   1.865   5.878  0.00  0.00    +0.000 HD
ENDBRANCH  21  28
ENDBRANCH  20  25
ENDBRANCH  19  20
ENDBRANCH  18  19
ENDBRANCH   1  18
TORSDOF 7
ENDMDL
MODEL 7
REMARK VINA RESULT:    -6.596      5.441      7.922
REMARK INTER + INTRA:         -10.375
REMARK INTER:                  -8.839
REMARK INTRA:                  -1.536
REMARK UNBOUND:                -1.273
REMARK  Name = 
REMARK  7 active torsions:
REMARK  status: ('A' for Active; 'I' for Inactive)
REMARK    1  A    between atoms: C_2  and  C_4
REMARK    2  A    between atoms: C_8  and  O_9
REMARK    3  A    between atoms: O_9  and  C_10
REMARK    4  A    between atoms: C_10  and  C_11
REMARK    5  A    between atoms: C_11  and  C_12
REMARK    6  A    between atoms: C_14  and  C_15
REMARK    7  A    between atoms: C_25  and  N_26
REMARK                            x       y       z     vdW  Elec       q    Type
REMARK                         _______ _______ _______ _____ _____    ______ ____
ROOT
ATOM      1  C   UNL     1      49.476   7.306  14.415  0.00  0.00    +0.000 A 
ATOM      2  C   UNL     1      48.175   6.798  14.182  0.00  0.00    +0.000 A 
ATOM      3  C   UNL     1      47.612   6.662  12.891  0.00  0.00    +0.000 A 
ATOM      4  C   UNL     1      48.420   7.063  11.822  0.00  0.00    +0.000 A 
ATOM      5  C   UNL     1      49.678   7.625  12.043  0.00  0.00    +0.000 A 
ATOM      6  F   UNL     1      50.390   8.034  10.979  0.00  0.00    +0.000 F 
ATOM      7  C   UNL     1      50.212   7.796  13.329  0.00  0.00    +0.000 A 
ENDROOT
BRANCH   3   8
ATOM      8  C   UNL     1      46.253   6.072  12.707  0.00  0.00    +0.000 A 
ATOM      9  C   UNL     1      45.239   6.875  12.128  0.00  0.00    +0.000 A 
ATOM     10  C   UNL     1      43.953   6.392  11.864  0.00  0.00    +0.000 A 
ATOM     11  C   UNL     1      43.619   5.091  12.206  0.00  0.00    +0.000 A 
ATOM     12  C   UNL     1      44.573   4.277  12.805  0.00  0.00    +0.000 A 
ATOM     13  C   UNL     1      45.877   4.749  13.043  0.00  0.00    +0.000 A 
ATOM     14 CL   UNL     1      46.971   3.574  13.701  0.00  0.00    +0.000 Cl
ENDBRANCH   3   8
BRANCH   7  15
ATOM     15  N   UNL     1      51.540   8.240  13.467  0.00  0.00    +0.000 N 
ATOM     16  H   UNL     1      51.988   7.852  14.296  0.00  0.00    +0.000 HD
ATOM     17  H   UNL     1      52.115   8.153  12.639  0.00  0.00    +0.000 HD
ENDBRANCH   7  15
BRANCH   1  18
ATOM     18  C   UNL     1      49.999   7.338  15.838  0.00  0.00    +0.000 C 
BRANCH  18  19
ATOM     19  C   UNL     1      48.854   7.460  16.838  0.00  0.00    +0.000 C 
BRANCH  19  20
ATOM     20  O   UNL     1      49.094   6.643  17.997  0.00  0.00    +0.000 OA
BRANCH  20  25
ATOM     21  C   UNL     1      49.597   3.152  17.429  0.00  0.00    +0.000 A 
ATOM     22  C   UNL     1      48.320   2.673  17.183  0.00  0.00    +0.000 A 
ATOM     23  C   UNL     1      47.266   3.583  17.223  0.00  0.00    +0.000 A 
ATOM     24  C   UNL     1      47.527   4.926  17.500  0.00  0.00    +0.000 A 
ATOM     25  C   UNL     1      48.840   5.309  17.730  0.00  0.00    +0.000 A 
ATOM     26  N   UNL     1      49.877   4.450  17.707  0.00  0.00    +0.000 NA
BRANCH  21  28
ATOM     27  N   UNL     1      51.829   2.622  18.188  0.00  0.00    +0.000 N 
ATOM     28  C   UNL     1      50.778   2.237  17.398  0.00  0.00    +0.000 C 
ATOM     29  O   UNL     1      50.810   1.213  16.722  0.00  0.00    +0.000 OA
ATOM     30  H   UNL     1      52.664   2.057  18.223  0.00  0.00    +0.000 HD
ATOM     31  H   UNL     1      51.758   3.469  18.740  0.00  0.00    +0.000 HD
ENDBRANCH  21  28
ENDBRANCH  20  25
ENDBRANCH  19  20
ENDBRANCH  18  19
ENDBRANCH   1  18
TORSDOF 7
ENDMDL
MODEL 8
REMARK VINA RESULT:    -6.594      5.307      8.802
REMARK INTER + INTRA:         -10.373
REMARK INTER:                  -9.441
REMARK INTRA:                  -0.932
REMARK UNBOUND:                -1.273
REMARK  Name = 
REMARK  7 active torsions:
REMARK  status: ('A' for Active; 'I' for Inactive)
REMARK    1  A    between atoms: C_2  and  C_4
REMARK    2  A    between atoms: C_8  and  O_9
REMARK    3  A    between atoms: O_9  and  C_10
REMARK    4  A    between atoms: C_10  and  C_11
REMARK    5  A    between atoms: C_11  and  C_12
REMARK    6  A    between atoms: C_14  and  C_15
REMARK    7  A    between atoms: C_25  and  N_26
REMARK                            x       y       z     vdW  Elec       q    Type
REMARK                         _______ _______ _______ _____ _____    ______ ____
ROOT
ATOM      1  C   UNL     1      47.473   7.158  13.224  0.00  0.00    +0.000 A 
ATOM      2  C   UNL     1      46.951   6.123  12.411  0.00  0.00    +0.000 A 
ATOM      3  C   UNL     1      45.797   6.273  11.605  0.00  0.00    +0.000 A 
ATOM      4  C   UNL     1      45.175   7.526  11.649  0.00  0.00    +0.000 A 
ATOM      5  C   UNL     1      45.643   8.532  12.495  0.00  0.00    +0.000 A 
ATOM      6  F   UNL     1      44.977   9.699  12.528  0.00  0.00    +0.000 F 
ATOM      7  C   UNL     1      46.763   8.361  13.323  0.00  0.00    +0.000 A 
ENDROOT
BRANCH   3   8
ATOM      8  C   UNL     1      45.324   5.161  10.729  0.00  0.00    +0.000 A 
ATOM      9  C   UNL     1      45.717   5.157   9.368  0.00  0.00    +0.000 A 
ATOM     10  C   UNL     1      45.370   4.129   8.486  0.00  0.00    +0.000 A 
ATOM     11  C   UNL     1      44.581   3.077   8.925  0.00  0.00    +0.000 A 
ATOM     12  C   UNL     1      44.147   3.056  10.246  0.00  0.00    +0.000 A 
ATOM     13  C   UNL     1      44.520   4.072  11.144  0.00  0.00    +0.000 A 
ATOM     14 CL   UNL     1      43.980   3.839  12.776  0.00  0.00    +0.000 Cl
ENDBRANCH   3   8
BRANCH   7  15
ATOM     15  N   UNL     1      47.258   9.463  14.044  0.00  0.00    +0.000 N 
ATOM     16  H   UNL     1      48.093   9.858  13.614  0.00  0.00    +0.000 HD
ATOM     17  H   UNL     1      46.573  10.170  14.282  0.00  0.00    +0.000 HD
ENDBRANCH   7  15
BRANCH   1  18
ATOM     18  C   UNL     1      48.758   6.902  13.989  0.00  0.00    +0.000 C 
BRANCH  18  19
ATOM     19  C   UNL     1      48.477   6.169  15.297  0.00  0.00    +0.000 C 
BRANCH  19  20
ATOM     20  O   UNL     1      49.490   6.460  16.276  0.00  0.00    +0.000 OA
BRANCH  20  25
ATOM     21  C   UNL     1      48.435   5.692  19.603  0.00  0.00    +0.000 A 
ATOM     22  C   UNL     1      47.831   6.862  20.033  0.00  0.00    +0.000 A 
ATOM     23  C   UNL     1      47.796   7.939  19.149  0.00  0.00    +0.000 A 
ATOM     24  C   UNL     1      48.358   7.804  17.879  0.00  0.00    +0.000 A 
ATOM     25  C   UNL     1      48.940   6.590  17.540  0.00  0.00    +0.000 A 
ATOM     26  N   UNL     1      48.995   5.536  18.377  0.00  0.00    +0.000 NA
BRANCH  21  28
ATOM     27  N   UNL     1      48.525   3.289  19.841  0.00  0.00    +0.000 N 
ATOM     28  C   UNL     1      48.506   4.494  20.493  0.00  0.00    +0.000 C 
ATOM     29  O   UNL     1      48.547   4.575  21.717  0.00  0.00    +0.000 OA
ATOM     30  H   UNL     1      48.572   2.432  20.371  0.00  0.00    +0.000 HD
ATOM     31  H   UNL     1      48.501   3.266  18.828  0.00  0.00    +0.000 HD
ENDBRANCH  21  28
ENDBRANCH  20  25
ENDBRANCH  19  20
ENDBRANCH  18  19
ENDBRANCH   1  18
TORSDOF 7
ENDMDL
MODEL 9
REMARK VINA RESULT:    -6.530      4.587      6.919
REMARK INTER + INTRA:         -10.285
REMARK INTER:                  -9.602
REMARK INTRA:                  -0.684
REMARK UNBOUND:                -1.273
REMARK  Name = 
REMARK  7 active torsions:
REMARK  status: ('A' for Active; 'I' for Inactive)
REMARK    1  A    between atoms: C_2  and  C_4
REMARK    2  A    between atoms: C_8  and  O_9
REMARK    3  A    between atoms: O_9  and  C_10
REMARK    4  A    between atoms: C_10  and  C_11
REMARK    5  A    between atoms: C_11  and  C_12
REMARK    6  A    between atoms: C_14  and  C_15
REMARK    7  A    between atoms: C_25  and  N_26
REMARK                            x       y       z     vdW  Elec       q    Type
REMARK                         _______ _______ _______ _____ _____    ______ ____
ROOT
ATOM      1  C   UNL     1      46.175   4.562  13.036  0.00  0.00    +0.000 A 
ATOM      2  C   UNL     1      46.542   5.920  12.878  0.00  0.00    +0.000 A 
ATOM      3  C   UNL     1      45.833   6.826  12.054  0.00  0.00    +0.000 A 
ATOM      4  C   UNL     1      44.721   6.307  11.381  0.00  0.00    +0.000 A 
ATOM      5  C   UNL     1      44.390   4.955  11.479  0.00  0.00    +0.000 A 
ATOM      6  F   UNL     1      43.338   4.504  10.775  0.00  0.00    +0.000 F 
ATOM      7  C   UNL     1      45.123   4.054  12.265  0.00  0.00    +0.000 A 
ENDROOT
BRANCH   3   8
ATOM      8  C   UNL     1      46.239   8.261  11.967  0.00  0.00    +0.000 A 
ATOM      9  C   UNL     1      45.226   9.252  11.973  0.00  0.00    +0.000 A 
ATOM     10  C   UNL     1      45.511  10.621  11.951  0.00  0.00    +0.000 A 
ATOM     11  C   UNL     1      46.827  11.053  11.885  0.00  0.00    +0.000 A 
ATOM     12  C   UNL     1      47.851  10.114  11.845  0.00  0.00    +0.000 A 
ATOM     13  C   UNL     1      47.570   8.737  11.898  0.00  0.00    +0.000 A 
ATOM     14 CL   UNL     1      48.966   7.708  11.943  0.00  0.00    +0.000 Cl
ENDBRANCH   3   8
BRANCH   7  15
ATOM     15  N   UNL     1      44.648   2.739  12.426  0.00  0.00    +0.000 N 
ATOM     16  H   UNL     1      44.770   2.182  11.581  0.00  0.00    +0.000 HD
ATOM     17  H   UNL     1      44.971   2.259  13.257  0.00  0.00    +0.000 HD
ENDBRANCH   7  15
BRANCH   1  18
ATOM     18  C   UNL     1      46.969   3.704  14.003  0.00  0.00    +0.000 C 
BRANCH  18  19
ATOM     19  C   UNL     1      47.018   4.343  15.387  0.00  0.00    +0.000 C 
BRANCH  19  20
ATOM     20  O   UNL     1      47.398   3.380  16.386  0.00  0.00    +0.000 OA
BRANCH  20  25
ATOM     21  C   UNL     1      50.751   3.092  17.585  0.00  0.00    +0.000 A 
ATOM     22  C   UNL     1      51.028   4.353  18.090  0.00  0.00    +0.000 A 
ATOM     23  C   UNL     1      50.029   5.321  18.003  0.00  0.00    +0.000 A 
ATOM     24  C   UNL     1      48.802   4.993  17.426  0.00  0.00    +0.000 A 
ATOM     25  C   UNL     1      48.620   3.702  16.951  0.00  0.00    +0.000 A 
ATOM     26  N   UNL     1      49.569   2.749  17.013  0.00  0.00    +0.000 NA
BRANCH  21  28
ATOM     27  N   UNL     1      51.416   0.842  17.009  0.00  0.00    +0.000 N 
ATOM     28  C   UNL     1      51.770   2.001  17.647  0.00  0.00    +0.000 C 
ATOM     29  O   UNL     1      52.847   2.128  18.222  0.00  0.00    +0.000 OA
ATOM     30  H   UNL     1      52.051   0.057  17.004  0.00  0.00    +0.000 HD
ATOM     31  H   UNL     1      50.522   0.782  16.535  0.00  0.00    +0.000 HD
ENDBRANCH  21  28
ENDBRANCH  20  25
ENDBRANCH  19  20
ENDBRANCH  18  19
ENDBRANCH   1  18
TORSDOF 7
ENDMDL
