MODEL 1
REMARK VINA RESULT:    -8.475      0.000      0.000
REMARK INTER + INTRA:         -12.566
REMARK INTER:                 -11.448
REMARK INTRA:                  -1.119
REMARK UNBOUND:                -1.119
REMARK  Name = 
REMARK  6 active torsions:
REMARK  status: ('A' for Active; 'I' for Inactive)
REMARK    1  A    between atoms: C_2  and  C_4
REMARK    2  A    between atoms: C_7  and  C_8
REMARK    3  A    between atoms: C_8  and  N_9
REMARK    4  A    between atoms: C_16  and  C_17
REMARK    5  A    between atoms: C_17  and  N_18
REMARK    6  A    between atoms: C_19  and  C_21
REMARK                            x       y       z     vdW  Elec       q    Type
REMARK                         _______ _______ _______ _____ _____    ______ ____
ROOT
ATOM      1  C   UNL     1      43.973   4.963  11.025  0.00  0.00    +0.000 A 
ATOM      2  C   UNL     1      43.888   3.768  10.291  0.00  0.00    +0.000 A 
ATOM      3  C   UNL     1      44.761   3.516   9.235  0.00  0.00    +0.000 A 
ATOM      4  C   UNL     1      45.706   4.473   8.857  0.00  0.00    +0.000 A 
ATOM      5  C   UNL     1      45.806   5.657   9.600  0.00  0.00    +0.000 A 
ATOM      6  C   UNL     1      44.972   5.907  10.710  0.00  0.00    +0.000 A 
ENDROOT
BRANCH   1   8
ATOM      7  N   UNL     1      41.959   6.124  11.766  0.00  0.00    +0.000 N 
ATOM      8  C   UNL     1      42.946   5.227  12.075  0.00  0.00    +0.000 C 
ATOM      9  O   UNL     1      42.980   4.691  13.174  0.00  0.00    +0.000 OA
ATOM     10  H   UNL     1      41.262   6.315  12.472  0.00  0.00    +0.000 HD
ATOM     11  H   UNL     1      41.809   6.490  10.837  0.00  0.00    +0.000 HD
ENDBRANCH   1   8
BRANCH   4  12
ATOM     12  C   UNL     1      46.627   4.215   7.686  0.00  0.00    +0.000 C 
BRANCH  12  13
ATOM     13  N   UNL     1      46.333   2.967   6.941  0.00  0.00    +0.000 NA
ATOM     14  C   UNL     1      46.696   3.119   5.520  0.00  0.00    +0.000 C 
ATOM     15  C   UNL     1      46.655   1.810   4.729  0.00  0.00    +0.000 C 
ATOM     16  C   UNL     1      47.505   0.742   5.398  0.00  0.00    +0.000 C 
ATOM     17  C   UNL     1      47.016   0.542   6.824  0.00  0.00    +0.000 C 
ATOM     18  C   UNL     1      47.043   1.857   7.601  0.00  0.00    +0.000 C 
ENDBRANCH  12  13
ENDBRANCH   4  12
BRANCH   6  19
ATOM     19  C   UNL     1      45.211   7.166  11.506  0.00  0.00    +0.000 C 
BRANCH  19  20
ATOM     20  N   UNL     1      46.009   6.926  12.676  0.00  0.00    +0.000 N 
ATOM     21  C   UNL     1      47.375   6.969  12.683  0.00  0.00    +0.000 C 
ATOM     22  O   UNL     1      48.038   7.298  11.703  0.00  0.00    +0.000 OA
ATOM     23  H   UNL     1      45.490   6.630  13.498  0.00  0.00    +0.000 HD
BRANCH  21  24
ATOM     24  C   UNL     1      48.009   6.659  13.970  0.00  0.00    +0.000 A 
ATOM     25  C   UNL     1      49.006   7.479  14.475  0.00  0.00    +0.000 A 
ATOM     26  S   UNL     1      49.589   6.979  15.999  0.00  0.00    +0.000 S 
ATOM     27  C   UNL     1      48.565   5.619  16.008  0.00  0.00    +0.000 A 
ATOM     28  N   UNL     1      48.581   4.738  17.043  0.00  0.00    +0.000 NA
ATOM     29  C   UNL     1      47.776   3.734  16.901  0.00  0.00    +0.000 A 
ATOM     30  N   UNL     1      46.956   3.538  15.821  0.00  0.00    +0.000 N 
ATOM     31  C   UNL     1      46.907   4.401  14.751  0.00  0.00    +0.000 A 
ATOM     32  O   UNL     1      46.171   4.182  13.796  0.00  0.00    +0.000 OA
ATOM     33  C   UNL     1      47.784   5.553  14.868  0.00  0.00    +0.000 A 
ATOM     34  H   UNL     1      46.351   2.732  15.767  0.00  0.00    +0.000 HD
ENDBRANCH  21  24
ENDBRANCH  19  20
ENDBRANCH   6  19
TORSDOF 6
ENDMDL
MODEL 2
REMARK VINA RESULT:    -8.018      4.161      9.873
REMARK INTER + INTRA:         -11.949
REMARK INTER:                 -11.244
REMARK INTRA:                  -0.705
REMARK UNBOUND:                -1.119
REMARK  Name = 
REMARK  6 active torsions:
REMARK  status: ('A' for Active; 'I' for Inactive)
REMARK    1  A    between atoms: C_2  and  C_4
REMARK    2  A    between atoms: C_7  and  C_8
REMARK    3  A    between atoms: C_8  and  N_9
REMARK    4  A    between atoms: C_16  and  C_17
REMARK    5  A    between atoms: C_17  and  N_18
REMARK    6  A    between atoms: C_19  and  C_21
REMARK                            x       y       z     vdW  Elec       q    Type
REMARK                         _______ _______ _______ _____ _____    ______ ____
ROOT
ATOM      1  C   UNL     1      49.932   3.382  17.513  0.00  0.00    +0.000 A 
ATOM      2  C   UNL     1      50.974   3.981  18.241  0.00  0.00    +0.000 A 
ATOM      3  C   UNL     1      50.850   5.282  18.724  0.00  0.00    +0.000 A 
ATOM      4  C   UNL     1      49.704   6.030  18.449  0.00  0.00    +0.000 A 
ATOM      5  C   UNL     1      48.655   5.428  17.740  0.00  0.00    +0.000 A 
ATOM      6  C   UNL     1      48.735   4.093  17.293  0.00  0.00    +0.000 A 
ENDROOT
BRANCH   1   8
ATOM      7  N   UNL     1      50.961   1.173  17.637  0.00  0.00    +0.000 N 
ATOM      8  C   UNL     1      50.160   2.028  16.929  0.00  0.00    +0.000 C 
ATOM      9  O   UNL     1      49.677   1.687  15.858  0.00  0.00    +0.000 OA
ATOM     10  H   UNL     1      51.128   0.255  17.247  0.00  0.00    +0.000 HD
ATOM     11  H   UNL     1      51.274   1.354  18.580  0.00  0.00    +0.000 HD
ENDBRANCH   1   8
BRANCH   4  12
ATOM     12  C   UNL     1      49.587   7.456  18.940  0.00  0.00    +0.000 C 
BRANCH  12  13
ATOM     13  N   UNL     1      48.309   7.763  19.626  0.00  0.00    +0.000 NA
ATOM     14  C   UNL     1      48.438   7.539  21.078  0.00  0.00    +0.000 C 
ATOM     15  C   UNL     1      47.250   8.059  21.890  0.00  0.00    +0.000 C 
ATOM     16  C   UNL     1      46.981   9.524  21.585  0.00  0.00    +0.000 C 
ATOM     17  C   UNL     1      46.741   9.683  20.093  0.00  0.00    +0.000 C 
ATOM     18  C   UNL     1      47.924   9.145  19.288  0.00  0.00    +0.000 C 
ENDBRANCH  12  13
ENDBRANCH   4  12
BRANCH   6  19
ATOM     19  C   UNL     1      47.523   3.499  16.619  0.00  0.00    +0.000 C 
BRANCH  19  20
ATOM     20  N   UNL     1      46.919   4.410  15.687  0.00  0.00    +0.000 N 
ATOM     21  C   UNL     1      46.855   4.184  14.340  0.00  0.00    +0.000 C 
ATOM     22  O   UNL     1      47.239   3.141  13.819  0.00  0.00    +0.000 OA
ATOM     23  H   UNL     1      46.611   5.292  16.085  0.00  0.00    +0.000 HD
BRANCH  21  24
ATOM     24  C   UNL     1      46.230   5.252  13.551  0.00  0.00    +0.000 A 
ATOM     25  C   UNL     1      46.856   6.482  13.417  0.00  0.00    +0.000 A 
ATOM     26  S   UNL     1      45.996   7.577  12.430  0.00  0.00    +0.000 S 
ATOM     27  C   UNL     1      44.733   6.461  12.192  0.00  0.00    +0.000 A 
ATOM     28  N   UNL     1      43.646   6.783  11.443  0.00  0.00    +0.000 NA
ATOM     29  C   UNL     1      42.750   5.851  11.375  0.00  0.00    +0.000 A 
ATOM     30  N   UNL     1      42.848   4.629  11.987  0.00  0.00    +0.000 N 
ATOM     31  C   UNL     1      43.927   4.259  12.755  0.00  0.00    +0.000 A 
ATOM     32  O   UNL     1      43.970   3.162  13.298  0.00  0.00    +0.000 OA
ATOM     33  C   UNL     1      44.968   5.267  12.851  0.00  0.00    +0.000 A 
ATOM     34  H   UNL     1      42.112   3.943  11.898  0.00  0.00    +0.000 HD
ENDBRANCH  21  24
ENDBRANCH  19  20
ENDBRANCH   6  19
TORSDOF 6
ENDMDL
MODEL 3
REMARK VINA RESULT:    -7.820      1.626      2.711
REMARK INTER + INTRA:         -11.681
REMARK INTER:                 -11.161
REMARK INTRA:                  -0.521
REMARK UNBOUND:                -1.119
REMARK  Name = 
REMARK  6 active torsions:
REMARK  status: ('A' for Active; 'I' for Inactive)
REMARK    1  A    between atoms: C_2  and  C_4
REMARK    2  A    between atoms: C_7  and  C_8
REMARK    3  A    between atoms: C_8  and  N_9
REMARK    4  A    between atoms: C_16  and  C_17
REMARK    5  A    between atoms: C_17  and  N_18
REMARK    6  A    between atoms: C_19  and  C_21
REMARK                            x       y       z     vdW  Elec       q    Type
REMARK                         _______ _______ _______ _____ _____    ______ ____
ROOT
ATOM      1  C   UNL     1      45.475   6.036  11.355  0.00  0.00    +0.000 A 
ATOM      2  C   UNL     1      45.689   6.144   9.971  0.00  0.00    +0.000 A 
ATOM      3  C   UNL     1      45.568   5.031   9.141  0.00  0.00    +0.000 A 
ATOM      4  C   UNL     1      45.279   3.777   9.682  0.00  0.00    +0.000 A 
ATOM      5  C   UNL     1      45.045   3.670  11.061  0.00  0.00    +0.000 A 
ATOM      6  C   UNL     1      45.104   4.794  11.910  0.00  0.00    +0.000 A 
ENDROOT
BRANCH   1   8
ATOM      7  N   UNL     1      44.697   8.135  12.326  0.00  0.00    +0.000 N 
ATOM      8  C   UNL     1      45.722   7.235  12.209  0.00  0.00    +0.000 C 
ATOM      9  O   UNL     1      46.792   7.431  12.770  0.00  0.00    +0.000 OA
ATOM     10  H   UNL     1      44.856   8.955  12.896  0.00  0.00    +0.000 HD
ATOM     11  H   UNL     1      43.759   7.959  11.996  0.00  0.00    +0.000 HD
ENDBRANCH   1   8
BRANCH   4  12
ATOM     12  C   UNL     1      45.186   2.562   8.786  0.00  0.00    +0.000 C 
BRANCH  12  13
ATOM     13  N   UNL     1      46.325   2.407   7.849  0.00  0.00    +0.000 NA
ATOM     14  C   UNL     1      46.607   0.978   7.617  0.00  0.00    +0.000 C 
ATOM     15  C   UNL     1      47.601   0.722   6.483  0.00  0.00    +0.000 C 
ATOM     16  C   UNL     1      47.153   1.406   5.201  0.00  0.00    +0.000 C 
ATOM     17  C   UNL     1      46.987   2.893   5.465  0.00  0.00    +0.000 C 
ATOM     18  C   UNL     1      46.006   3.139   6.611  0.00  0.00    +0.000 C 
ENDBRANCH  12  13
ENDBRANCH   4  12
BRANCH   6  19
ATOM     19  C   UNL     1      44.749   4.602  13.364  0.00  0.00    +0.000 C 
BRANCH  19  20
ATOM     20  N   UNL     1      45.782   5.077  14.242  0.00  0.00    +0.000 N 
ATOM     21  C   UNL     1      46.885   4.345  14.582  0.00  0.00    +0.000 C 
ATOM     22  O   UNL     1      47.129   3.243  14.098  0.00  0.00    +0.000 OA
ATOM     23  H   UNL     1      45.597   5.978  14.676  0.00  0.00    +0.000 HD
BRANCH  21  24
ATOM     24  C   UNL     1      47.807   4.993  15.522  0.00  0.00    +0.000 A 
ATOM     25  C   UNL     1      48.603   6.049  15.106  0.00  0.00    +0.000 A 
ATOM     26  S   UNL     1      49.576   6.696  16.351  0.00  0.00    +0.000 S 
ATOM     27  C   UNL     1      49.003   5.550  17.472  0.00  0.00    +0.000 A 
ATOM     28  N   UNL     1      49.462   5.535  18.752  0.00  0.00    +0.000 NA
ATOM     29  C   UNL     1      48.965   4.589  19.484  0.00  0.00    +0.000 A 
ATOM     30  N   UNL     1      48.051   3.665  19.050  0.00  0.00    +0.000 N 
ATOM     31  C   UNL     1      47.560   3.641  17.766  0.00  0.00    +0.000 A 
ATOM     32  O   UNL     1      46.755   2.788  17.413  0.00  0.00    +0.000 OA
ATOM     33  C   UNL     1      48.078   4.692  16.907  0.00  0.00    +0.000 A 
ATOM     34  H   UNL     1      47.702   2.949  19.670  0.00  0.00    +0.000 HD
ENDBRANCH  21  24
ENDBRANCH  19  20
ENDBRANCH   6  19
TORSDOF 6
ENDMDL
MODEL 4
REMARK VINA RESULT:    -7.631      4.511      9.896
REMARK INTER + INTRA:         -11.426
REMARK INTER:                 -10.310
REMARK INTRA:                  -1.116
REMARK UNBOUND:                -1.119
REMARK  Name = 
REMARK  6 active torsions:
REMARK  status: ('A' for Active; 'I' for Inactive)
REMARK    1  A    between atoms: C_2  and  C_4
REMARK    2  A    between atoms: C_7  and  C_8
REMARK    3  A    between atoms: C_8  and  N_9
REMARK    4  A    between atoms: C_16  and  C_17
REMARK    5  A    between atoms: C_17  and  N_18
REMARK    6  A    between atoms: C_19  and  C_21
REMARK                            x       y       z     vdW  Elec       q    Type
REMARK                         _______ _______ _______ _____ _____    ______ ____
ROOT
ATOM      1  C   UNL     1      50.080   3.354  17.575  0.00  0.00    +0.000 A 
ATOM      2  C   UNL     1      51.154   3.991  18.218  0.00  0.00    +0.000 A 
ATOM      3  C   UNL     1      51.031   5.295  18.691  0.00  0.00    +0.000 A 
ATOM      4  C   UNL     1      49.848   6.010  18.489  0.00  0.00    +0.000 A 
ATOM      5  C   UNL     1      48.768   5.371  17.865  0.00  0.00    +0.000 A 
ATOM      6  C   UNL     1      48.851   4.031  17.431  0.00  0.00    +0.000 A 
ENDROOT
BRANCH   1   8
ATOM      7  N   UNL     1      51.060   1.125  17.728  0.00  0.00    +0.000 N 
ATOM      8  C   UNL     1      50.301   1.998  16.995  0.00  0.00    +0.000 C 
ATOM      9  O   UNL     1      49.849   1.669  15.906  0.00  0.00    +0.000 OA
ATOM     10  H   UNL     1      51.222   0.205  17.341  0.00  0.00    +0.000 HD
ATOM     11  H   UNL     1      51.342   1.298  18.682  0.00  0.00    +0.000 HD
ENDBRANCH   1   8
BRANCH   4  12
ATOM     12  C   UNL     1      49.729   7.440  18.967  0.00  0.00    +0.000 C 
BRANCH  12  13
ATOM     13  N   UNL     1      48.416   7.776  19.568  0.00  0.00    +0.000 NA
ATOM     14  C   UNL     1      48.436   7.520  21.021  0.00  0.00    +0.000 C 
ATOM     15  C   UNL     1      47.211   8.063  21.759  0.00  0.00    +0.000 C 
ATOM     16  C   UNL     1      47.010   9.541  21.468  0.00  0.00    +0.000 C 
ATOM     17  C   UNL     1      46.881   9.736  19.966  0.00  0.00    +0.000 C 
ATOM     18  C   UNL     1      48.100   9.175  19.234  0.00  0.00    +0.000 C 
ENDBRANCH  12  13
ENDBRANCH   4  12
BRANCH   6  19
ATOM     19  C   UNL     1      47.611   3.397  16.853  0.00  0.00    +0.000 C 
BRANCH  19  20
ATOM     20  N   UNL     1      46.961   4.247  15.896  0.00  0.00    +0.000 N 
ATOM     21  C   UNL     1      46.904   3.976  14.557  0.00  0.00    +0.000 C 
ATOM     22  O   UNL     1      47.335   2.936  14.067  0.00  0.00    +0.000 OA
ATOM     23  H   UNL     1      46.613   5.127  16.267  0.00  0.00    +0.000 HD
BRANCH  21  24
ATOM     24  C   UNL     1      46.226   4.987  13.737  0.00  0.00    +0.000 A 
ATOM     25  C   UNL     1      44.984   4.720  13.181  0.00  0.00    +0.000 A 
ATOM     26  S   UNL     1      44.341   6.031  12.298  0.00  0.00    +0.000 S 
ATOM     27  C   UNL     1      45.724   6.980  12.586  0.00  0.00    +0.000 A 
ATOM     28  N   UNL     1      45.830   8.235  12.077  0.00  0.00    +0.000 NA
ATOM     29  C   UNL     1      46.950   8.827  12.348  0.00  0.00    +0.000 A 
ATOM     30  N   UNL     1      47.966   8.276  13.083  0.00  0.00    +0.000 N 
ATOM     31  C   UNL     1      47.904   7.010  13.616  0.00  0.00    +0.000 A 
ATOM     32  O   UNL     1      48.841   6.547  14.256  0.00  0.00    +0.000 OA
ATOM     33  C   UNL     1      46.661   6.308  13.352  0.00  0.00    +0.000 A 
ATOM     34  H   UNL     1      48.818   8.789  13.258  0.00  0.00    +0.000 HD
ENDBRANCH  21  24
ENDBRANCH  19  20
ENDBRANCH   6  19
TORSDOF 6
ENDMDL
MODEL 5
REMARK VINA RESULT:    -7.595      4.047      9.741
REMARK INTER + INTRA:         -11.377
REMARK INTER:                 -10.134
REMARK INTRA:                  -1.243
REMARK UNBOUND:                -1.119
REMARK  Name = 
REMARK  6 active torsions:
REMARK  status: ('A' for Active; 'I' for Inactive)
REMARK    1  A    between atoms: C_2  and  C_4
REMARK    2  A    between atoms: C_7  and  C_8
REMARK    3  A    between atoms: C_8  and  N_9
REMARK    4  A    between atoms: C_16  and  C_17
REMARK    5  A    between atoms: C_17  and  N_18
REMARK    6  A    between atoms: C_19  and  C_21
REMARK                            x       y       z     vdW  Elec       q    Type
REMARK                         _______ _______ _______ _____ _____    ______ ____
ROOT
ATOM      1  C   UNL     1      48.165   5.197  17.789  0.00  0.00    +0.000 A 
ATOM      2  C   UNL     1      47.733   5.175  19.126  0.00  0.00    +0.000 A 
ATOM      3  C   UNL     1      47.657   6.349  19.871  0.00  0.00    +0.000 A 
ATOM      4  C   UNL     1      48.057   7.565  19.313  0.00  0.00    +0.000 A 
ATOM      5  C   UNL     1      48.469   7.594  17.973  0.00  0.00    +0.000 A 
ATOM      6  C   UNL     1      48.498   6.426  17.183  0.00  0.00    +0.000 A 
ENDROOT
BRANCH   1   8
ATOM      7  N   UNL     1      47.190   3.292  16.618  0.00  0.00    +0.000 N 
ATOM      8  C   UNL     1      48.330   3.898  17.073  0.00  0.00    +0.000 C 
ATOM      9  O   UNL     1      49.423   3.375  16.907  0.00  0.00    +0.000 OA
ATOM     10  H   UNL     1      47.289   2.408  16.138  0.00  0.00    +0.000 HD
ATOM     11  H   UNL     1      46.284   3.740  16.611  0.00  0.00    +0.000 HD
ENDBRANCH   1   8
BRANCH   4  12
ATOM     12  C   UNL     1      48.011   8.834  20.135  0.00  0.00    +0.000 C 
BRANCH  12  13
ATOM     13  N   UNL     1      47.045   9.846  19.643  0.00  0.00    +0.000 NA
ATOM     14  C   UNL     1      46.165  10.291  20.741  0.00  0.00    +0.000 C 
ATOM     15  C   UNL     1      45.303  11.504  20.386  0.00  0.00    +0.000 C 
ATOM     16  C   UNL     1      46.159  12.650  19.872  0.00  0.00    +0.000 C 
ATOM     17  C   UNL     1      46.959  12.171  18.672  0.00  0.00    +0.000 C 
ATOM     18  C   UNL     1      47.804  10.949  19.030  0.00  0.00    +0.000 C 
ENDBRANCH  12  13
ENDBRANCH   4  12
BRANCH   6  19
ATOM     19  C   UNL     1      48.868   6.566  15.727  0.00  0.00    +0.000 C 
BRANCH  19  20
ATOM     20  N   UNL     1      47.736   6.388  14.860  0.00  0.00    +0.000 N 
ATOM     21  C   UNL     1      47.837   6.236  13.505  0.00  0.00    +0.000 C 
ATOM     22  O   UNL     1      48.913   6.157  12.920  0.00  0.00    +0.000 OA
ATOM     23  H   UNL     1      46.830   6.471  15.312  0.00  0.00    +0.000 HD
BRANCH  21  24
ATOM     24  C   UNL     1      46.562   6.105  12.789  0.00  0.00    +0.000 A 
ATOM     25  C   UNL     1      45.941   7.223  12.255  0.00  0.00    +0.000 A 
ATOM     26  S   UNL     1      44.493   6.863  11.425  0.00  0.00    +0.000 S 
ATOM     27  C   UNL     1      44.623   5.208  11.799  0.00  0.00    +0.000 A 
ATOM     28  N   UNL     1      43.673   4.323  11.396  0.00  0.00    +0.000 NA
ATOM     29  C   UNL     1      43.883   3.104  11.779  0.00  0.00    +0.000 A 
ATOM     30  N   UNL     1      44.957   2.695  12.525  0.00  0.00    +0.000 N 
ATOM     31  C   UNL     1      45.941   3.554  12.957  0.00  0.00    +0.000 A 
ATOM     32  O   UNL     1      46.878   3.151  13.635  0.00  0.00    +0.000 OA
ATOM     33  C   UNL     1      45.758   4.933  12.540  0.00  0.00    +0.000 A 
ATOM     34  H   UNL     1      45.064   1.728  12.795  0.00  0.00    +0.000 HD
ENDBRANCH  21  24
ENDBRANCH  19  20
ENDBRANCH   6  19
TORSDOF 6
ENDMDL
MODEL 6
REMARK VINA RESULT:    -7.567      2.310      4.113
REMARK INTER + INTRA:         -11.339
REMARK INTER:                  -9.820
REMARK INTRA:                  -1.519
REMARK UNBOUND:                -1.119
REMARK  Name = 
REMARK  6 active torsions:
REMARK  status: ('A' for Active; 'I' for Inactive)
REMARK    1  A    between atoms: C_2  and  C_4
REMARK    2  A    between atoms: C_7  and  C_8
REMARK    3  A    between atoms: C_8  and  N_9
REMARK    4  A    between atoms: C_16  and  C_17
REMARK    5  A    between atoms: C_17  and  N_18
REMARK    6  A    between atoms: C_19  and  C_21
REMARK                            x       y       z     vdW  Elec       q    Type
REMARK                         _______ _______ _______ _____ _____    ______ ____
ROOT
ATOM      1  C   UNL     1      46.905   8.899  12.079  0.00  0.00    +0.000 A 
ATOM      2  C   UNL     1      45.528   8.990  11.814  0.00  0.00    +0.000 A 
ATOM      3  C   UNL     1      44.762   7.844  11.617  0.00  0.00    +0.000 A 
ATOM      4  C   UNL     1      45.362   6.583  11.632  0.00  0.00    +0.000 A 
ATOM      5  C   UNL     1      46.731   6.487  11.917  0.00  0.00    +0.000 A 
ATOM      6  C   UNL     1      47.514   7.631  12.178  0.00  0.00    +0.000 A 
ENDROOT
BRANCH   1   8
ATOM      7  N   UNL     1      47.761  10.759  13.406  0.00  0.00    +0.000 N 
ATOM      8  C   UNL     1      47.696  10.160  12.176  0.00  0.00    +0.000 C 
ATOM      9  O   UNL     1      48.252  10.660  11.208  0.00  0.00    +0.000 OA
ATOM     10  H   UNL     1      48.289  11.618  13.481  0.00  0.00    +0.000 HD
ATOM     11  H   UNL     1      47.436  10.323  14.256  0.00  0.00    +0.000 HD
ENDBRANCH   1   8
BRANCH   4  12
ATOM     12  C   UNL     1      44.536   5.342  11.379  0.00  0.00    +0.000 C 
BRANCH  12  13
ATOM     13  N   UNL     1      45.169   4.363  10.463  0.00  0.00    +0.000 NA
ATOM     14  C   UNL     1      44.296   3.188  10.284  0.00  0.00    +0.000 C 
ATOM     15  C   UNL     1      44.755   2.242   9.173  0.00  0.00    +0.000 C 
ATOM     16  C   UNL     1      44.938   2.990   7.862  0.00  0.00    +0.000 C 
ATOM     17  C   UNL     1      45.933   4.120   8.072  0.00  0.00    +0.000 C 
ATOM     18  C   UNL     1      45.477   5.049   9.196  0.00  0.00    +0.000 C 
ENDBRANCH  12  13
ENDBRANCH   4  12
BRANCH   6  19
ATOM     19  C   UNL     1      48.958   7.427  12.565  0.00  0.00    +0.000 C 
BRANCH  19  20
ATOM     20  N   UNL     1      49.092   6.717  13.807  0.00  0.00    +0.000 N 
ATOM     21  C   UNL     1      48.937   7.301  15.033  0.00  0.00    +0.000 C 
ATOM     22  O   UNL     1      48.589   8.469  15.178  0.00  0.00    +0.000 OA
ATOM     23  H   UNL     1      49.402   5.753  13.720  0.00  0.00    +0.000 HD
BRANCH  21  24
ATOM     24  C   UNL     1      49.151   6.415  16.184  0.00  0.00    +0.000 A 
ATOM     25  C   UNL     1      50.158   6.686  17.098  0.00  0.00    +0.000 A 
ATOM     26  S   UNL     1      50.223   5.569  18.387  0.00  0.00    +0.000 S 
ATOM     27  C   UNL     1      48.940   4.657  17.737  0.00  0.00    +0.000 A 
ATOM     28  N   UNL     1      48.501   3.529  18.354  0.00  0.00    +0.000 NA
ATOM     29  C   UNL     1      47.543   2.919  17.731  0.00  0.00    +0.000 A 
ATOM     30  N   UNL     1      46.988   3.340  16.551  0.00  0.00    +0.000 N 
ATOM     31  C   UNL     1      47.400   4.474  15.891  0.00  0.00    +0.000 A 
ATOM     32  O   UNL     1      46.888   4.808  14.830  0.00  0.00    +0.000 OA
ATOM     33  C   UNL     1      48.465   5.202  16.557  0.00  0.00    +0.000 A 
ATOM     34  H   UNL     1      46.243   2.818  16.112  0.00  0.00    +0.000 HD
ENDBRANCH  21  24
ENDBRANCH  19  20
ENDBRANCH   6  19
TORSDOF 6
ENDMDL
MODEL 7
REMARK VINA RESULT:    -7.466      4.093      8.766
REMARK INTER + INTRA:         -11.203
REMARK INTER:                 -10.618
REMARK INTRA:                  -0.586
REMARK UNBOUND:                -1.119
REMARK  Name = 
REMARK  6 active torsions:
REMARK  status: ('A' for Active; 'I' for Inactive)
REMARK    1  A    between atoms: C_2  and  C_4
REMARK    2  A    between atoms: C_7  and  C_8
REMARK    3  A    between atoms: C_8  and  N_9
REMARK    4  A    between atoms: C_16  and  C_17
REMARK    5  A    between atoms: C_17  and  N_18
REMARK    6  A    between atoms: C_19  and  C_21
REMARK                            x       y       z     vdW  Elec       q    Type
REMARK                         _______ _______ _______ _____ _____    ______ ____
ROOT
ATOM      1  C   UNL     1      49.962   3.397  17.470  0.00  0.00    +0.000 A 
ATOM      2  C   UNL     1      51.042   3.981  18.153  0.00  0.00    +0.000 A 
ATOM      3  C   UNL     1      50.974   5.298  18.601  0.00  0.00    +0.000 A 
ATOM      4  C   UNL     1      49.845   6.076  18.336  0.00  0.00    +0.000 A 
ATOM      5  C   UNL     1      48.758   5.490  17.672  0.00  0.00    +0.000 A 
ATOM      6  C   UNL     1      48.782   4.141  17.262  0.00  0.00    +0.000 A 
ENDROOT
BRANCH   1   8
ATOM      7  N   UNL     1      50.936   1.165  17.621  0.00  0.00    +0.000 N 
ATOM      8  C   UNL     1      50.129   2.020  16.920  0.00  0.00    +0.000 C 
ATOM      9  O   UNL     1      49.592   1.660  15.881  0.00  0.00    +0.000 OA
ATOM     10  H   UNL     1      51.062   0.232  17.253  0.00  0.00    +0.000 HD
ATOM     11  H   UNL     1      51.292   1.366  18.545  0.00  0.00    +0.000 HD
ENDBRANCH   1   8
BRANCH   4  12
ATOM     12  C   UNL     1      49.789   7.518  18.788  0.00  0.00    +0.000 C 
BRANCH  12  13
ATOM     13  N   UNL     1      49.815   8.507  17.684  0.00  0.00    +0.000 NA
ATOM     14  C   UNL     1      50.810   8.115  16.668  0.00  0.00    +0.000 C 
ATOM     15  C   UNL     1      50.736   8.940  15.382  0.00  0.00    +0.000 C 
ATOM     16  C   UNL     1      49.330   8.923  14.804  0.00  0.00    +0.000 C 
ATOM     17  C   UNL     1      48.358   9.443  15.850  0.00  0.00    +0.000 C 
ATOM     18  C   UNL     1      48.451   8.626  17.138  0.00  0.00    +0.000 C 
ENDBRANCH  12  13
ENDBRANCH   4  12
BRANCH   6  19
ATOM     19  C   UNL     1      47.534   3.569  16.637  0.00  0.00    +0.000 C 
BRANCH  19  20
ATOM     20  N   UNL     1      46.939   4.470  15.689  0.00  0.00    +0.000 N 
ATOM     21  C   UNL     1      46.891   4.231  14.344  0.00  0.00    +0.000 C 
ATOM     22  O   UNL     1      47.282   3.183  13.838  0.00  0.00    +0.000 OA
ATOM     23  H   UNL     1      46.626   5.356  16.076  0.00  0.00    +0.000 HD
BRANCH  21  24
ATOM     24  C   UNL     1      46.273   5.291  13.537  0.00  0.00    +0.000 A 
ATOM     25  C   UNL     1      46.891   6.526  13.414  0.00  0.00    +0.000 A 
ATOM     26  S   UNL     1      46.043   7.609  12.403  0.00  0.00    +0.000 S 
ATOM     27  C   UNL     1      44.797   6.480  12.140  0.00  0.00    +0.000 A 
ATOM     28  N   UNL     1      43.724   6.789  11.366  0.00  0.00    +0.000 NA
ATOM     29  C   UNL     1      42.838   5.848  11.281  0.00  0.00    +0.000 A 
ATOM     30  N   UNL     1      42.934   4.629  11.899  0.00  0.00    +0.000 N 
ATOM     31  C   UNL     1      43.999   4.272  12.693  0.00  0.00    +0.000 A 
ATOM     32  O   UNL     1      44.041   3.177  13.240  0.00  0.00    +0.000 OA
ATOM     33  C   UNL     1      45.028   5.291  12.809  0.00  0.00    +0.000 A 
ATOM     34  H   UNL     1      42.208   3.936  11.796  0.00  0.00    +0.000 HD
ENDBRANCH  21  24
ENDBRANCH  19  20
ENDBRANCH   6  19
TORSDOF 6
ENDMDL
MODEL 8
REMARK VINA RESULT:    -7.356      3.724      5.778
REMARK INTER + INTRA:         -11.054
REMARK INTER:                 -10.034
REMARK INTRA:                  -1.021
REMARK UNBOUND:                -1.119
REMARK  Name = 
REMARK  6 active torsions:
REMARK  status: ('A' for Active; 'I' for Inactive)
REMARK    1  A    between atoms: C_2  and  C_4
REMARK    2  A    between atoms: C_7  and  C_8
REMARK    3  A    between atoms: C_8  and  N_9
REMARK    4  A    between atoms: C_16  and  C_17
REMARK    5  A    between atoms: C_17  and  N_18
REMARK    6  A    between atoms: C_19  and  C_21
REMARK                            x       y       z     vdW  Elec       q    Type
REMARK                         _______ _______ _______ _____ _____    ______ ____
ROOT
ATOM      1  C   UNL     1      45.406   4.748  12.252  0.00  0.00    +0.000 A 
ATOM      2  C   UNL     1      45.340   5.791  11.313  0.00  0.00    +0.000 A 
ATOM      3  C   UNL     1      46.116   6.938  11.465  0.00  0.00    +0.000 A 
ATOM      4  C   UNL     1      46.938   7.090  12.584  0.00  0.00    +0.000 A 
ATOM      5  C   UNL     1      47.020   6.043  13.512  0.00  0.00    +0.000 A 
ATOM      6  C   UNL     1      46.289   4.849  13.347  0.00  0.00    +0.000 A 
ENDROOT
BRANCH   1   8
ATOM      7  N   UNL     1      44.675   2.776  11.015  0.00  0.00    +0.000 N 
ATOM      8  C   UNL     1      44.476   3.592  12.097  0.00  0.00    +0.000 C 
ATOM      9  O   UNL     1      43.560   3.378  12.880  0.00  0.00    +0.000 OA
ATOM     10  H   UNL     1      44.046   1.994  10.896  0.00  0.00    +0.000 HD
ATOM     11  H   UNL     1      45.487   2.830  10.418  0.00  0.00    +0.000 HD
ENDBRANCH   1   8
BRANCH   4  12
ATOM     12  C   UNL     1      47.750   8.353  12.768  0.00  0.00    +0.000 C 
BRANCH  12  13
ATOM     13  N   UNL     1      48.775   8.578  11.721  0.00  0.00    +0.000 NA
ATOM     14  C   UNL     1      49.241   9.978  11.751  0.00  0.00    +0.000 C 
ATOM     15  C   UNL     1      50.466  10.239  10.873  0.00  0.00    +0.000 C 
ATOM     16  C   UNL     1      51.595   9.279  11.214  0.00  0.00    +0.000 C 
ATOM     17  C   UNL     1      51.097   7.852  11.057  0.00  0.00    +0.000 C 
ATOM     18  C   UNL     1      49.863   7.605  11.923  0.00  0.00    +0.000 C 
ENDBRANCH  12  13
ENDBRANCH   4  12
BRANCH   6  19
ATOM     19  C   UNL     1      46.509   3.740  14.346  0.00  0.00    +0.000 C 
BRANCH  19  20
ATOM     20  N   UNL     1      47.573   4.039  15.263  0.00  0.00    +0.000 N 
ATOM     21  C   UNL     1      47.520   3.766  16.601  0.00  0.00    +0.000 C 
ATOM     22  O   UNL     1      46.584   3.166  17.123  0.00  0.00    +0.000 OA
ATOM     23  H   UNL     1      48.353   4.556  14.864  0.00  0.00    +0.000 HD
BRANCH  21  24
ATOM     24  C   UNL     1      48.694   4.181  17.377  0.00  0.00    +0.000 A 
ATOM     25  C   UNL     1      48.697   5.394  18.049  0.00  0.00    +0.000 A 
ATOM     26  S   UNL     1      50.132   5.680  18.927  0.00  0.00    +0.000 S 
ATOM     27  C   UNL     1      50.817   4.215  18.396  0.00  0.00    +0.000 A 
ATOM     28  N   UNL     1      52.072   3.852  18.773  0.00  0.00    +0.000 NA
ATOM     29  C   UNL     1      52.477   2.731  18.267  0.00  0.00    +0.000 A 
ATOM     30  N   UNL     1      51.738   1.944  17.423  0.00  0.00    +0.000 N 
ATOM     31  C   UNL     1      50.466   2.270  17.014  0.00  0.00    +0.000 A 
ATOM     32  O   UNL     1      49.843   1.546  16.247  0.00  0.00    +0.000 OA
ATOM     33  C   UNL     1      49.960   3.515  17.566  0.00  0.00    +0.000 A 
ATOM     34  H   UNL     1      52.111   1.079  17.059  0.00  0.00    +0.000 HD
ENDBRANCH  21  24
ENDBRANCH  19  20
ENDBRANCH   6  19
TORSDOF 6
ENDMDL
MODEL 9
REMARK VINA RESULT:    -7.203      3.888      6.169
REMARK INTER + INTRA:         -10.848
REMARK INTER:                  -9.551
REMARK INTRA:                  -1.296
REMARK UNBOUND:                -1.119
REMARK  Name = 
REMARK  6 active torsions:
REMARK  status: ('A' for Active; 'I' for Inactive)
REMARK    1  A    between atoms: C_2  and  C_4
REMARK    2  A    between atoms: C_7  and  C_8
REMARK    3  A    between atoms: C_8  and  N_9
REMARK    4  A    between atoms: C_16  and  C_17
REMARK    5  A    between atoms: C_17  and  N_18
REMARK    6  A    between atoms: C_19  and  C_21
REMARK                            x       y       z     vdW  Elec       q    Type
REMARK                         _______ _______ _______ _____ _____    ______ ____
ROOT
ATOM      1  C   UNL     1      45.785   4.836  12.541  0.00  0.00    +0.000 A 
ATOM      2  C   UNL     1      45.746   5.824  11.543  0.00  0.00    +0.000 A 
ATOM      3  C   UNL     1      46.634   6.898  11.567  0.00  0.00    +0.000 A 
ATOM      4  C   UNL     1      47.548   7.034  12.614  0.00  0.00    +0.000 A 
ATOM      5  C   UNL     1      47.603   6.040  13.600  0.00  0.00    +0.000 A 
ATOM      6  C   UNL     1      46.753   4.914  13.564  0.00  0.00    +0.000 A 
ENDROOT
BRANCH   1   8
ATOM      7  N   UNL     1      44.922   2.740  11.640  0.00  0.00    +0.000 N 
ATOM      8  C   UNL     1      44.744   3.768  12.526  0.00  0.00    +0.000 C 
ATOM      9  O   UNL     1      43.759   3.803  13.251  0.00  0.00    +0.000 OA
ATOM     10  H   UNL     1      44.218   2.014  11.616  0.00  0.00    +0.000 HD
ATOM     11  H   UNL     1      45.774   2.595  11.118  0.00  0.00    +0.000 HD
ENDBRANCH   1   8
BRANCH   4  12
ATOM     12  C   UNL     1      48.485   8.221  12.660  0.00  0.00    +0.000 C 
BRANCH  12  13
ATOM     13  N   UNL     1      49.924   7.864  12.645  0.00  0.00    +0.000 NA
ATOM     14  C   UNL     1      50.539   8.265  11.366  0.00  0.00    +0.000 C 
ATOM     15  C   UNL     1      52.065   8.158  11.355  0.00  0.00    +0.000 C 
ATOM     16  C   UNL     1      52.674   8.924  12.519  0.00  0.00    +0.000 C 
ATOM     17  C   UNL     1      52.091   8.395  13.819  0.00  0.00    +0.000 C 
ATOM     18  C   UNL     1      50.566   8.489  13.814  0.00  0.00    +0.000 C 
ENDBRANCH  12  13
ENDBRANCH   4  12
BRANCH   6  19
ATOM     19  C   UNL     1      46.944   3.849  14.615  0.00  0.00    +0.000 C 
BRANCH  19  20
ATOM     20  N   UNL     1      47.577   4.361  15.798  0.00  0.00    +0.000 N 
ATOM     21  C   UNL     1      47.255   3.960  17.065  0.00  0.00    +0.000 C 
ATOM     22  O   UNL     1      46.448   3.063  17.296  0.00  0.00    +0.000 OA
ATOM     23  H   UNL     1      48.234   5.121  15.641  0.00  0.00    +0.000 HD
BRANCH  21  24
ATOM     24  C   UNL     1      47.990   4.628  18.145  0.00  0.00    +0.000 A 
ATOM     25  C   UNL     1      47.358   5.569  18.944  0.00  0.00    +0.000 A 
ATOM     26  S   UNL     1      48.363   6.203  20.169  0.00  0.00    +0.000 S 
ATOM     27  C   UNL     1      49.691   5.279  19.638  0.00  0.00    +0.000 A 
ATOM     28  N   UNL     1      50.898   5.370  20.256  0.00  0.00    +0.000 NA
ATOM     29  C   UNL     1      51.824   4.637  19.726  0.00  0.00    +0.000 A 
ATOM     30  N   UNL     1      51.648   3.823  18.638  0.00  0.00    +0.000 N 
ATOM     31  C   UNL     1      50.446   3.700  17.980  0.00  0.00    +0.000 A 
ATOM     32  O   UNL     1      50.332   2.971  17.002  0.00  0.00    +0.000 OA
ATOM     33  C   UNL     1      49.369   4.493  18.546  0.00  0.00    +0.000 A 
ATOM     34  H   UNL     1      52.412   3.276  18.269  0.00  0.00    +0.000 HD
ENDBRANCH  21  24
ENDBRANCH  19  20
ENDBRANCH   6  19
TORSDOF 6
ENDMDL
