MODEL 1
REMARK VINA RESULT:    -8.262      0.000      0.000
REMARK INTER + INTRA:         -12.758
REMARK INTER:                 -11.642
REMARK INTRA:                  -1.115
REMARK UNBOUND:                -1.115
REMARK  Name = 
REMARK  8 active torsions:
REMARK  status: ('A' for Active; 'I' for Inactive)
REMARK    1  A    between atoms: C_1  and  C_2
REMARK    2  A    between atoms: C_7  and  C_8
REMARK    3  A    between atoms: C_8  and  N_9
REMARK    4  A    between atoms: N_9  and  C_10
REMARK    5  A    between atoms: C_10  and  C_11
REMARK    6  A    between atoms: C_14  and  C_15
REMARK    7  A    between atoms: C_15  and  N_16
REMARK    8  A    between atoms: C_17  and  C_19
REMARK                            x       y       z     vdW  Elec       q    Type
REMARK                         _______ _______ _______ _____ _____    ______ ____
ROOT
ATOM      1  C   UNL     1      44.912   4.064  11.140  0.00  0.00    +0.000 A 
ATOM      2  C   UNL     1      45.376   5.158  10.398  0.00  0.00    +0.000 A 
ATOM      3  C   UNL     1      46.113   6.188  11.011  0.00  0.00    +0.000 A 
ATOM      4  C   UNL     1      46.403   6.156  12.384  0.00  0.00    +0.000 A 
ATOM      5  C   UNL     1      45.934   5.070  13.130  0.00  0.00    +0.000 A 
ATOM      6  C   UNL     1      45.206   4.039  12.515  0.00  0.00    +0.000 A 
ENDROOT
BRANCH   1   7
ATOM      7  C   UNL     1      43.968   3.026  10.555  0.00  0.00    +0.000 C 
BRANCH   7   8
ATOM      8  N   UNL     1      44.092   2.736   9.110  0.00  0.00    +0.000 NA
ATOM      9  H   UNL     1      43.291   2.181   8.818  0.00  0.00    +0.000 HD
BRANCH   8  10
ATOM     10  C   UNL     1      45.319   1.924   8.916  0.00  0.00    +0.000 C 
BRANCH  10  17
ATOM     11  C   UNL     1      46.714  -0.384   7.684  0.00  0.00    +0.000 C 
ATOM     12  C   UNL     1      46.782   0.987   7.058  0.00  0.00    +0.000 A 
ATOM     13  C   UNL     1      47.537   1.135   5.882  0.00  0.00    +0.000 A 
ATOM     14  C   UNL     1      47.645   2.375   5.262  0.00  0.00    +0.000 A 
ATOM     15  C   UNL     1      47.006   3.478   5.818  0.00  0.00    +0.000 A 
ATOM     16  C   UNL     1      46.258   3.351   6.997  0.00  0.00    +0.000 A 
ATOM     17  C   UNL     1      46.125   2.110   7.638  0.00  0.00    +0.000 A 
ENDBRANCH  10  17
ENDBRANCH   8  10
ENDBRANCH   7   8
ENDBRANCH   1   7
BRANCH   4  18
ATOM     18  C   UNL     1      47.144   7.293  13.050  0.00  0.00    +0.000 C 
BRANCH  18  19
ATOM     19  N   UNL     1      47.490   6.972  14.416  0.00  0.00    +0.000 N 
ATOM     20  C   UNL     1      48.796   6.832  14.817  0.00  0.00    +0.000 C 
ATOM     21  O   UNL     1      49.733   7.002  14.040  0.00  0.00    +0.000 OA
ATOM     22  H   UNL     1      46.745   6.618  15.009  0.00  0.00    +0.000 HD
BRANCH  20  23
ATOM     23  C   UNL     1      49.028   6.526  16.236  0.00  0.00    +0.000 A 
ATOM     24  C   UNL     1      49.637   7.472  17.052  0.00  0.00    +0.000 A 
ATOM     25  S   UNL     1      49.814   6.975  18.673  0.00  0.00    +0.000 S 
ATOM     26  C   UNL     1      49.130   5.456  18.337  0.00  0.00    +0.000 A 
ATOM     27  N   UNL     1      49.016   4.509  19.309  0.00  0.00    +0.000 NA
ATOM     28  C   UNL     1      48.496   3.398  18.914  0.00  0.00    +0.000 A 
ATOM     29  N   UNL     1      48.071   3.147  17.634  0.00  0.00    +0.000 N 
ATOM     30  C   UNL     1      48.138   4.080  16.626  0.00  0.00    +0.000 A 
ATOM     31  O   UNL     1      47.701   3.840  15.507  0.00  0.00    +0.000 OA
ATOM     32  C   UNL     1      48.737   5.343  17.013  0.00  0.00    +0.000 A 
ATOM     33  H   UNL     1      47.658   2.259  17.392  0.00  0.00    +0.000 HD
ENDBRANCH  20  23
ENDBRANCH  18  19
ENDBRANCH   4  18
TORSDOF 7
ENDMDL
MODEL 2
REMARK VINA RESULT:    -8.063      1.135      1.763
REMARK INTER + INTRA:         -12.477
REMARK INTER:                 -11.386
REMARK INTRA:                  -1.092
REMARK UNBOUND:                -1.115
REMARK  Name = 
REMARK  8 active torsions:
REMARK  status: ('A' for Active; 'I' for Inactive)
REMARK    1  A    between atoms: C_1  and  C_2
REMARK    2  A    between atoms: C_7  and  C_8
REMARK    3  A    between atoms: C_8  and  N_9
REMARK    4  A    between atoms: N_9  and  C_10
REMARK    5  A    between atoms: C_10  and  C_11
REMARK    6  A    between atoms: C_14  and  C_15
REMARK    7  A    between atoms: C_15  and  N_16
REMARK    8  A    between atoms: C_17  and  C_19
REMARK                            x       y       z     vdW  Elec       q    Type
REMARK                         _______ _______ _______ _____ _____    ______ ____
ROOT
ATOM      1  C   UNL     1      44.840   4.031  11.877  0.00  0.00    +0.000 A 
ATOM      2  C   UNL     1      44.921   5.339  11.383  0.00  0.00    +0.000 A 
ATOM      3  C   UNL     1      45.890   6.237  11.868  0.00  0.00    +0.000 A 
ATOM      4  C   UNL     1      46.803   5.854  12.863  0.00  0.00    +0.000 A 
ATOM      5  C   UNL     1      46.720   4.551  13.365  0.00  0.00    +0.000 A 
ATOM      6  C   UNL     1      45.758   3.655  12.875  0.00  0.00    +0.000 A 
ENDROOT
BRANCH   1   7
ATOM      7  C   UNL     1      43.703   3.092  11.510  0.00  0.00    +0.000 C 
BRANCH   7   8
ATOM      8  N   UNL     1      43.962   2.097  10.447  0.00  0.00    +0.000 NA
ATOM      9  H   UNL     1      44.738   1.505  10.734  0.00  0.00    +0.000 HD
BRANCH   8  10
ATOM     10  C   UNL     1      44.365   2.837   9.226  0.00  0.00    +0.000 C 
BRANCH  10  17
ATOM     11  C   UNL     1      46.212   4.744   7.905  0.00  0.00    +0.000 C 
ATOM     12  C   UNL     1      46.426   3.256   7.794  0.00  0.00    +0.000 A 
ATOM     13  C   UNL     1      47.519   2.804   7.035  0.00  0.00    +0.000 A 
ATOM     14  C   UNL     1      47.765   1.443   6.888  0.00  0.00    +0.000 A 
ATOM     15  C   UNL     1      46.914   0.523   7.491  0.00  0.00    +0.000 A 
ATOM     16  C   UNL     1      45.812   0.955   8.243  0.00  0.00    +0.000 A 
ATOM     17  C   UNL     1      45.546   2.322   8.415  0.00  0.00    +0.000 A 
ENDBRANCH  10  17
ENDBRANCH   8  10
ENDBRANCH   7   8
ENDBRANCH   1   7
BRANCH   4  18
ATOM     18  C   UNL     1      47.804   6.839  13.422  0.00  0.00    +0.000 C 
BRANCH  18  19
ATOM     19  N   UNL     1      47.806   6.830  14.866  0.00  0.00    +0.000 N 
ATOM     20  C   UNL     1      48.975   6.800  15.587  0.00  0.00    +0.000 C 
ATOM     21  O   UNL     1      50.074   6.809  15.039  0.00  0.00    +0.000 OA
ATOM     22  H   UNL     1      46.929   6.604  15.327  0.00  0.00    +0.000 HD
BRANCH  20  23
ATOM     23  C   UNL     1      48.855   6.816  17.053  0.00  0.00    +0.000 A 
ATOM     24  C   UNL     1      48.757   8.031  17.721  0.00  0.00    +0.000 A 
ATOM     25  S   UNL     1      48.600   7.878  19.412  0.00  0.00    +0.000 S 
ATOM     26  C   UNL     1      48.709   6.184  19.322  0.00  0.00    +0.000 A 
ATOM     27  N   UNL     1      48.680   5.421  20.449  0.00  0.00    +0.000 NA
ATOM     28  C   UNL     1      48.788   4.154  20.238  0.00  0.00    +0.000 A 
ATOM     29  N   UNL     1      48.917   3.576  19.000  0.00  0.00    +0.000 N 
ATOM     30  C   UNL     1      48.922   4.303  17.832  0.00  0.00    +0.000 A 
ATOM     31  O   UNL     1      48.986   3.751  16.740  0.00  0.00    +0.000 OA
ATOM     32  C   UNL     1      48.825   5.738  18.015  0.00  0.00    +0.000 A 
ATOM     33  H   UNL     1      48.983   2.575  18.902  0.00  0.00    +0.000 HD
ENDBRANCH  20  23
ENDBRANCH  18  19
ENDBRANCH   4  18
TORSDOF 7
ENDMDL
MODEL 3
REMARK VINA RESULT:    -7.709      2.264      2.804
REMARK INTER + INTRA:         -11.979
REMARK INTER:                 -10.988
REMARK INTRA:                  -0.991
REMARK UNBOUND:                -1.115
REMARK  Name = 
REMARK  8 active torsions:
REMARK  status: ('A' for Active; 'I' for Inactive)
REMARK    1  A    between atoms: C_1  and  C_2
REMARK    2  A    between atoms: C_7  and  C_8
REMARK    3  A    between atoms: C_8  and  N_9
REMARK    4  A    between atoms: N_9  and  C_10
REMARK    5  A    between atoms: C_10  and  C_11
REMARK    6  A    between atoms: C_14  and  C_15
REMARK    7  A    between atoms: C_15  and  N_16
REMARK    8  A    between atoms: C_17  and  C_19
REMARK                            x       y       z     vdW  Elec       q    Type
REMARK                         _______ _______ _______ _____ _____    ______ ____
ROOT
ATOM      1  C   UNL     1      46.296   5.522  12.124  0.00  0.00    +0.000 A 
ATOM      2  C   UNL     1      46.741   6.846  12.014  0.00  0.00    +0.000 A 
ATOM      3  C   UNL     1      47.493   7.445  13.043  0.00  0.00    +0.000 A 
ATOM      4  C   UNL     1      47.817   6.739  14.211  0.00  0.00    +0.000 A 
ATOM      5  C   UNL     1      47.368   5.420  14.329  0.00  0.00    +0.000 A 
ATOM      6  C   UNL     1      46.625   4.822  13.299  0.00  0.00    +0.000 A 
ENDROOT
BRANCH   1   7
ATOM      7  C   UNL     1      45.338   4.900  11.122  0.00  0.00    +0.000 C 
BRANCH   7   8
ATOM      8  N   UNL     1      45.242   5.538   9.791  0.00  0.00    +0.000 NA
ATOM      9  H   UNL     1      44.594   6.320   9.849  0.00  0.00    +0.000 HD
BRANCH   8  10
ATOM     10  C   UNL     1      44.684   4.537   8.850  0.00  0.00    +0.000 C 
BRANCH  10  17
ATOM     11  C   UNL     1      44.365   1.661   9.498  0.00  0.00    +0.000 C 
ATOM     12  C   UNL     1      45.446   2.127   8.556  0.00  0.00    +0.000 A 
ATOM     13  C   UNL     1      46.303   1.158   8.008  0.00  0.00    +0.000 A 
ATOM     14  C   UNL     1      47.325   1.526   7.138  0.00  0.00    +0.000 A 
ATOM     15  C   UNL     1      47.503   2.867   6.818  0.00  0.00    +0.000 A 
ATOM     16  C   UNL     1      46.665   3.850   7.365  0.00  0.00    +0.000 A 
ATOM     17  C   UNL     1      45.621   3.505   8.237  0.00  0.00    +0.000 A 
ENDBRANCH  10  17
ENDBRANCH   8  10
ENDBRANCH   7   8
ENDBRANCH   1   7
BRANCH   4  18
ATOM     18  C   UNL     1      48.574   7.404  15.338  0.00  0.00    +0.000 C 
BRANCH  18  19
ATOM     19  N   UNL     1      49.640   6.562  15.829  0.00  0.00    +0.000 N 
ATOM     20  C   UNL     1      49.590   5.986  17.075  0.00  0.00    +0.000 C 
ATOM     21  O   UNL     1      48.624   6.136  17.819  0.00  0.00    +0.000 OA
ATOM     22  H   UNL     1      50.525   6.602  15.333  0.00  0.00    +0.000 HD
BRANCH  20  23
ATOM     23  C   UNL     1      50.723   5.130  17.459  0.00  0.00    +0.000 A 
ATOM     24  C   UNL     1      51.887   5.710  17.948  0.00  0.00    +0.000 A 
ATOM     25  S   UNL     1      53.095   4.583  18.370  0.00  0.00    +0.000 S 
ATOM     26  C   UNL     1      52.127   3.279  17.870  0.00  0.00    +0.000 A 
ATOM     27  N   UNL     1      52.590   2.000  17.931  0.00  0.00    +0.000 NA
ATOM     28  C   UNL     1      51.760   1.110  17.506  0.00  0.00    +0.000 A 
ATOM     29  N   UNL     1      50.503   1.381  17.028  0.00  0.00    +0.000 N 
ATOM     30  C   UNL     1      49.980   2.652  16.973  0.00  0.00    +0.000 A 
ATOM     31  O   UNL     1      48.834   2.852  16.589  0.00  0.00    +0.000 OA
ATOM     32  C   UNL     1      50.884   3.694  17.421  0.00  0.00    +0.000 A 
ATOM     33  H   UNL     1      49.895   0.636  16.722  0.00  0.00    +0.000 HD
ENDBRANCH  20  23
ENDBRANCH  18  19
ENDBRANCH   4  18
TORSDOF 7
ENDMDL
MODEL 4
REMARK VINA RESULT:    -7.511      1.832      2.801
REMARK INTER + INTRA:         -11.700
REMARK INTER:                 -10.560
REMARK INTRA:                  -1.140
REMARK UNBOUND:                -1.115
REMARK  Name = 
REMARK  8 active torsions:
REMARK  status: ('A' for Active; 'I' for Inactive)
REMARK    1  A    between atoms: C_1  and  C_2
REMARK    2  A    between atoms: C_7  and  C_8
REMARK    3  A    between atoms: C_8  and  N_9
REMARK    4  A    between atoms: N_9  and  C_10
REMARK    5  A    between atoms: C_10  and  C_11
REMARK    6  A    between atoms: C_14  and  C_15
REMARK    7  A    between atoms: C_15  and  N_16
REMARK    8  A    between atoms: C_17  and  C_19
REMARK                            x       y       z     vdW  Elec       q    Type
REMARK                         _______ _______ _______ _____ _____    ______ ____
ROOT
ATOM      1  C   UNL     1      44.996   4.699  11.910  0.00  0.00    +0.000 A 
ATOM      2  C   UNL     1      45.306   4.540  13.267  0.00  0.00    +0.000 A 
ATOM      3  C   UNL     1      46.262   5.363  13.892  0.00  0.00    +0.000 A 
ATOM      4  C   UNL     1      46.938   6.364  13.178  0.00  0.00    +0.000 A 
ATOM      5  C   UNL     1      46.638   6.520  11.821  0.00  0.00    +0.000 A 
ATOM      6  C   UNL     1      45.679   5.704  11.200  0.00  0.00    +0.000 A 
ENDROOT
BRANCH   1   7
ATOM      7  C   UNL     1      44.106   3.722  11.159  0.00  0.00    +0.000 C 
BRANCH   7   8
ATOM      8  N   UNL     1      44.718   2.450  10.720  0.00  0.00    +0.000 NA
ATOM      9  H   UNL     1      45.721   2.495  10.882  0.00  0.00    +0.000 HD
BRANCH   8  10
ATOM     10  C   UNL     1      44.485   2.317   9.260  0.00  0.00    +0.000 C 
BRANCH  10  17
ATOM     11  C   UNL     1      45.882   4.618   8.017  0.00  0.00    +0.000 C 
ATOM     12  C   UNL     1      46.342   3.204   7.765  0.00  0.00    +0.000 A 
ATOM     13  C   UNL     1      47.444   3.013   6.913  0.00  0.00    +0.000 A 
ATOM     14  C   UNL     1      47.911   1.733   6.635  0.00  0.00    +0.000 A 
ATOM     15  C   UNL     1      47.275   0.633   7.200  0.00  0.00    +0.000 A 
ATOM     16  C   UNL     1      46.167   0.804   8.043  0.00  0.00    +0.000 A 
ATOM     17  C   UNL     1      45.680   2.084   8.347  0.00  0.00    +0.000 A 
ENDBRANCH  10  17
ENDBRANCH   8  10
ENDBRANCH   7   8
ENDBRANCH   1   7
BRANCH   4  18
ATOM     18  C   UNL     1      48.005   7.206  13.839  0.00  0.00    +0.000 C 
BRANCH  18  19
ATOM     19  N   UNL     1      48.136   6.889  15.242  0.00  0.00    +0.000 N 
ATOM     20  C   UNL     1      49.364   6.713  15.832  0.00  0.00    +0.000 C 
ATOM     21  O   UNL     1      50.410   6.845  15.200  0.00  0.00    +0.000 OA
ATOM     22  H   UNL     1      47.301   6.565  15.721  0.00  0.00    +0.000 HD
BRANCH  20  23
ATOM     23  C   UNL     1      49.376   6.415  17.272  0.00  0.00    +0.000 A 
ATOM     24  C   UNL     1      50.015   5.269  17.731  0.00  0.00    +0.000 A 
ATOM     25  S   UNL     1      49.960   5.080  19.424  0.00  0.00    +0.000 S 
ATOM     26  C   UNL     1      49.036   6.495  19.605  0.00  0.00    +0.000 A 
ATOM     27  N   UNL     1      48.608   6.898  20.833  0.00  0.00    +0.000 NA
ATOM     28  C   UNL     1      47.904   7.977  20.825  0.00  0.00    +0.000 A 
ATOM     29  N   UNL     1      47.591   8.697  19.700  0.00  0.00    +0.000 N 
ATOM     30  C   UNL     1      48.025   8.346  18.442  0.00  0.00    +0.000 A 
ATOM     31  O   UNL     1      47.771   9.041  17.466  0.00  0.00    +0.000 OA
ATOM     32  C   UNL     1      48.804   7.124  18.393  0.00  0.00    +0.000 A 
ATOM     33  H   UNL     1      47.046   9.544  19.763  0.00  0.00    +0.000 HD
ENDBRANCH  20  23
ENDBRANCH  18  19
ENDBRANCH   4  18
TORSDOF 7
ENDMDL
MODEL 5
REMARK VINA RESULT:    -7.386      4.314     10.261
REMARK INTER + INTRA:         -11.524
REMARK INTER:                  -9.447
REMARK INTRA:                  -2.077
REMARK UNBOUND:                -1.115
REMARK  Name = 
REMARK  8 active torsions:
REMARK  status: ('A' for Active; 'I' for Inactive)
REMARK    1  A    between atoms: C_1  and  C_2
REMARK    2  A    between atoms: C_7  and  C_8
REMARK    3  A    between atoms: C_8  and  N_9
REMARK    4  A    between atoms: N_9  and  C_10
REMARK    5  A    between atoms: C_10  and  C_11
REMARK    6  A    between atoms: C_14  and  C_15
REMARK    7  A    between atoms: C_15  and  N_16
REMARK    8  A    between atoms: C_17  and  C_19
REMARK                            x       y       z     vdW  Elec       q    Type
REMARK                         _______ _______ _______ _____ _____    ______ ____
ROOT
ATOM      1  C   UNL     1      51.266   5.254  18.021  0.00  0.00    +0.000 A 
ATOM      2  C   UNL     1      50.903   3.923  18.266  0.00  0.00    +0.000 A 
ATOM      3  C   UNL     1      49.688   3.404  17.783  0.00  0.00    +0.000 A 
ATOM      4  C   UNL     1      48.799   4.201  17.046  0.00  0.00    +0.000 A 
ATOM      5  C   UNL     1      49.153   5.532  16.806  0.00  0.00    +0.000 A 
ATOM      6  C   UNL     1      50.369   6.047  17.282  0.00  0.00    +0.000 A 
ENDROOT
BRANCH   1   7
ATOM      7  C   UNL     1      52.479   5.900  18.671  0.00  0.00    +0.000 C 
BRANCH   7   8
ATOM      8  N   UNL     1      52.571   5.835  20.146  0.00  0.00    +0.000 NA
ATOM      9  H   UNL     1      52.265   4.915  20.453  0.00  0.00    +0.000 HD
BRANCH   8  10
ATOM     10  C   UNL     1      51.640   6.847  20.701  0.00  0.00    +0.000 C 
BRANCH  10  17
ATOM     11  C   UNL     1      49.503   8.691  19.792  0.00  0.00    +0.000 C 
ATOM     12  C   UNL     1      49.164   7.369  20.435  0.00  0.00    +0.000 A 
ATOM     13  C   UNL     1      47.806   7.047  20.600  0.00  0.00    +0.000 A 
ATOM     14  C   UNL     1      47.430   5.847  21.193  0.00  0.00    +0.000 A 
ATOM     15  C   UNL     1      48.408   4.963  21.634  0.00  0.00    +0.000 A 
ATOM     16  C   UNL     1      49.768   5.273  21.489  0.00  0.00    +0.000 A 
ATOM     17  C   UNL     1      50.176   6.472  20.886  0.00  0.00    +0.000 A 
ENDBRANCH  10  17
ENDBRANCH   8  10
ENDBRANCH   7   8
ENDBRANCH   1   7
BRANCH   4  18
ATOM     18  C   UNL     1      47.468   3.655  16.579  0.00  0.00    +0.000 C 
BRANCH  18  19
ATOM     19  N   UNL     1      46.819   4.560  15.659  0.00  0.00    +0.000 N 
ATOM     20  C   UNL     1      46.744   4.292  14.314  0.00  0.00    +0.000 C 
ATOM     21  O   UNL     1      47.199   3.256  13.834  0.00  0.00    +0.000 OA
ATOM     22  H   UNL     1      46.635   5.502  15.991  0.00  0.00    +0.000 HD
BRANCH  20  23
ATOM     23  C   UNL     1      46.039   5.275  13.476  0.00  0.00    +0.000 A 
ATOM     24  C   UNL     1      46.599   6.531  13.274  0.00  0.00    +0.000 A 
ATOM     25  S   UNL     1      45.672   7.543  12.262  0.00  0.00    +0.000 S 
ATOM     26  C   UNL     1      44.463   6.361  12.097  0.00  0.00    +0.000 A 
ATOM     27  N   UNL     1      43.340   6.606  11.367  0.00  0.00    +0.000 NA
ATOM     28  C   UNL     1      42.498   5.630  11.338  0.00  0.00    +0.000 A 
ATOM     29  N   UNL     1      42.679   4.425  11.968  0.00  0.00    +0.000 N 
ATOM     30  C   UNL     1      43.809   4.119  12.692  0.00  0.00    +0.000 A 
ATOM     31  O   UNL     1      43.960   3.015  13.198  0.00  0.00    +0.000 OA
ATOM     32  C   UNL     1      44.779   5.194  12.774  0.00  0.00    +0.000 A 
ATOM     33  H   UNL     1      41.987   3.695  11.895  0.00  0.00    +0.000 HD
ENDBRANCH  20  23
ENDBRANCH  18  19
ENDBRANCH   4  18
TORSDOF 7
ENDMDL
MODEL 6
REMARK VINA RESULT:    -7.319      3.154      8.937
REMARK INTER + INTRA:         -11.430
REMARK INTER:                  -9.571
REMARK INTRA:                  -1.859
REMARK UNBOUND:                -1.115
REMARK  Name = 
REMARK  8 active torsions:
REMARK  status: ('A' for Active; 'I' for Inactive)
REMARK    1  A    between atoms: C_1  and  C_2
REMARK    2  A    between atoms: C_7  and  C_8
REMARK    3  A    between atoms: C_8  and  N_9
REMARK    4  A    between atoms: N_9  and  C_10
REMARK    5  A    between atoms: C_10  and  C_11
REMARK    6  A    between atoms: C_14  and  C_15
REMARK    7  A    between atoms: C_15  and  N_16
REMARK    8  A    between atoms: C_17  and  C_19
REMARK                            x       y       z     vdW  Elec       q    Type
REMARK                         _______ _______ _______ _____ _____    ______ ____
ROOT
ATOM      1  C   UNL     1      49.233   8.059  16.327  0.00  0.00    +0.000 A 
ATOM      2  C   UNL     1      49.541   6.958  15.516  0.00  0.00    +0.000 A 
ATOM      3  C   UNL     1      49.116   6.906  14.175  0.00  0.00    +0.000 A 
ATOM      4  C   UNL     1      48.368   7.950  13.609  0.00  0.00    +0.000 A 
ATOM      5  C   UNL     1      48.051   9.046  14.417  0.00  0.00    +0.000 A 
ATOM      6  C   UNL     1      48.482   9.100  15.752  0.00  0.00    +0.000 A 
ENDROOT
BRANCH   1   7
ATOM      7  C   UNL     1      49.518   8.074  17.820  0.00  0.00    +0.000 C 
BRANCH   7   8
ATOM      8  N   UNL     1      50.550   7.141  18.321  0.00  0.00    +0.000 NA
ATOM      9  H   UNL     1      51.011   6.704  17.526  0.00  0.00    +0.000 HD
BRANCH   8  10
ATOM     10  C   UNL     1      49.862   6.083  19.101  0.00  0.00    +0.000 C 
BRANCH  10  17
ATOM     11  C   UNL     1      46.925   5.776  18.832  0.00  0.00    +0.000 C 
ATOM     12  C   UNL     1      47.868   4.762  18.235  0.00  0.00    +0.000 A 
ATOM     13  C   UNL     1      47.310   3.662  17.561  0.00  0.00    +0.000 A 
ATOM     14  C   UNL     1      48.126   2.689  16.995  0.00  0.00    +0.000 A 
ATOM     15  C   UNL     1      49.508   2.802  17.108  0.00  0.00    +0.000 A 
ATOM     16  C   UNL     1      50.082   3.886  17.788  0.00  0.00    +0.000 A 
ATOM     17  C   UNL     1      49.282   4.887  18.360  0.00  0.00    +0.000 A 
ENDBRANCH  10  17
ENDBRANCH   8  10
ENDBRANCH   7   8
ENDBRANCH   1   7
BRANCH   4  18
ATOM     18  C   UNL     1      47.864   7.864  12.186  0.00  0.00    +0.000 C 
BRANCH  18  19
ATOM     19  N   UNL     1      47.101   6.657  11.967  0.00  0.00    +0.000 N 
ATOM     20  C   UNL     1      45.733   6.635  12.087  0.00  0.00    +0.000 C 
ATOM     21  O   UNL     1      45.091   7.647  12.358  0.00  0.00    +0.000 OA
ATOM     22  H   UNL     1      47.616   5.781  11.959  0.00  0.00    +0.000 HD
BRANCH  20  23
ATOM     23  C   UNL     1      45.060   5.355  11.819  0.00  0.00    +0.000 A 
ATOM     24  C   UNL     1      44.353   4.725  12.836  0.00  0.00    +0.000 A 
ATOM     25  S   UNL     1      43.612   3.265  12.359  0.00  0.00    +0.000 S 
ATOM     26  C   UNL     1      44.250   3.393  10.789  0.00  0.00    +0.000 A 
ATOM     27  N   UNL     1      44.021   2.424   9.860  0.00  0.00    +0.000 NA
ATOM     28  C   UNL     1      44.576   2.639   8.717  0.00  0.00    +0.000 A 
ATOM     29  N   UNL     1      45.338   3.739   8.413  0.00  0.00    +0.000 N 
ATOM     30  C   UNL     1      45.573   4.757   9.308  0.00  0.00    +0.000 A 
ATOM     31  O   UNL     1      46.215   5.750   8.987  0.00  0.00    +0.000 OA
ATOM     32  C   UNL     1      44.988   4.553  10.619  0.00  0.00    +0.000 A 
ATOM     33  H   UNL     1      45.733   3.855   7.493  0.00  0.00    +0.000 HD
ENDBRANCH  20  23
ENDBRANCH  18  19
ENDBRANCH   4  18
TORSDOF 7
ENDMDL
MODEL 7
REMARK VINA RESULT:    -7.239      4.108      8.854
REMARK INTER + INTRA:         -11.316
REMARK INTER:                  -8.925
REMARK INTRA:                  -2.391
REMARK UNBOUND:                -1.115
REMARK  Name = 
REMARK  8 active torsions:
REMARK  status: ('A' for Active; 'I' for Inactive)
REMARK    1  A    between atoms: C_1  and  C_2
REMARK    2  A    between atoms: C_7  and  C_8
REMARK    3  A    between atoms: C_8  and  N_9
REMARK    4  A    between atoms: N_9  and  C_10
REMARK    5  A    between atoms: C_10  and  C_11
REMARK    6  A    between atoms: C_14  and  C_15
REMARK    7  A    between atoms: C_15  and  N_16
REMARK    8  A    between atoms: C_17  and  C_19
REMARK                            x       y       z     vdW  Elec       q    Type
REMARK                         _______ _______ _______ _____ _____    ______ ____
ROOT
ATOM      1  C   UNL     1      49.888   7.838  18.353  0.00  0.00    +0.000 A 
ATOM      2  C   UNL     1      50.466   7.261  17.215  0.00  0.00    +0.000 A 
ATOM      3  C   UNL     1      49.988   7.566  15.927  0.00  0.00    +0.000 A 
ATOM      4  C   UNL     1      48.915   8.452  15.741  0.00  0.00    +0.000 A 
ATOM      5  C   UNL     1      48.330   9.024  16.875  0.00  0.00    +0.000 A 
ATOM      6  C   UNL     1      48.814   8.725  18.159  0.00  0.00    +0.000 A 
ENDROOT
BRANCH   1   7
ATOM      7  C   UNL     1      50.257   7.403  19.762  0.00  0.00    +0.000 C 
BRANCH   7   8
ATOM      8  N   UNL     1      50.709   6.007  19.942  0.00  0.00    +0.000 NA
ATOM      9  H   UNL     1      51.216   5.716  19.109  0.00  0.00    +0.000 HD
BRANCH   8  10
ATOM     10  C   UNL     1      49.503   5.154  20.076  0.00  0.00    +0.000 C 
BRANCH  10  17
ATOM     11  C   UNL     1      46.839   5.844  18.972  0.00  0.00    +0.000 C 
ATOM     12  C   UNL     1      47.695   4.785  18.325  0.00  0.00    +0.000 A 
ATOM     13  C   UNL     1      47.184   4.128  17.192  0.00  0.00    +0.000 A 
ATOM     14  C   UNL     1      47.923   3.137  16.555  0.00  0.00    +0.000 A 
ATOM     15  C   UNL     1      49.174   2.788  17.051  0.00  0.00    +0.000 A 
ATOM     16  C   UNL     1      49.695   3.423  18.187  0.00  0.00    +0.000 A 
ATOM     17  C   UNL     1      48.975   4.433  18.844  0.00  0.00    +0.000 A 
ENDBRANCH  10  17
ENDBRANCH   8  10
ENDBRANCH   7   8
ENDBRANCH   1   7
BRANCH   4  18
ATOM     18  C   UNL     1      48.367   8.732  14.360  0.00  0.00    +0.000 C 
BRANCH  18  19
ATOM     19  N   UNL     1      47.367   7.760  13.981  0.00  0.00    +0.000 N 
ATOM     20  C   UNL     1      47.687   6.641  13.253  0.00  0.00    +0.000 C 
ATOM     21  O   UNL     1      48.844   6.397  12.915  0.00  0.00    +0.000 OA
ATOM     22  H   UNL     1      46.396   8.045  14.057  0.00  0.00    +0.000 HD
BRANCH  20  23
ATOM     23  C   UNL     1      46.591   5.710  12.944  0.00  0.00    +0.000 A 
ATOM     24  C   UNL     1      46.736   4.358  13.233  0.00  0.00    +0.000 A 
ATOM     25  S   UNL     1      45.370   3.418  12.837  0.00  0.00    +0.000 S 
ATOM     26  C   UNL     1      44.552   4.772  12.217  0.00  0.00    +0.000 A 
ATOM     27  N   UNL     1      43.310   4.650  11.672  0.00  0.00    +0.000 NA
ATOM     28  C   UNL     1      42.812   5.752  11.226  0.00  0.00    +0.000 A 
ATOM     29  N   UNL     1      43.440   6.971  11.280  0.00  0.00    +0.000 N 
ATOM     30  C   UNL     1      44.681   7.150  11.847  0.00  0.00    +0.000 A 
ATOM     31  O   UNL     1      45.190   8.261  11.925  0.00  0.00    +0.000 OA
ATOM     32  C   UNL     1      45.295   5.934  12.345  0.00  0.00    +0.000 A 
ATOM     33  H   UNL     1      42.989   7.800  10.925  0.00  0.00    +0.000 HD
ENDBRANCH  20  23
ENDBRANCH  18  19
ENDBRANCH   4  18
TORSDOF 7
ENDMDL
MODEL 8
REMARK VINA RESULT:    -7.153      4.316      6.534
REMARK INTER + INTRA:         -11.195
REMARK INTER:                 -10.282
REMARK INTRA:                  -0.913
REMARK UNBOUND:                -1.115
REMARK  Name = 
REMARK  8 active torsions:
REMARK  status: ('A' for Active; 'I' for Inactive)
REMARK    1  A    between atoms: C_1  and  C_2
REMARK    2  A    between atoms: C_7  and  C_8
REMARK    3  A    between atoms: C_8  and  N_9
REMARK    4  A    between atoms: N_9  and  C_10
REMARK    5  A    between atoms: C_10  and  C_11
REMARK    6  A    between atoms: C_14  and  C_15
REMARK    7  A    between atoms: C_15  and  N_16
REMARK    8  A    between atoms: C_17  and  C_19
REMARK                            x       y       z     vdW  Elec       q    Type
REMARK                         _______ _______ _______ _____ _____    ______ ____
ROOT
ATOM      1  C   UNL     1      46.501   2.415   7.623  0.00  0.00    +0.000 A 
ATOM      2  C   UNL     1      45.653   1.770   8.532  0.00  0.00    +0.000 A 
ATOM      3  C   UNL     1      44.820   2.508   9.394  0.00  0.00    +0.000 A 
ATOM      4  C   UNL     1      44.816   3.911   9.375  0.00  0.00    +0.000 A 
ATOM      5  C   UNL     1      45.667   4.559   8.474  0.00  0.00    +0.000 A 
ATOM      6  C   UNL     1      46.491   3.822   7.610  0.00  0.00    +0.000 A 
ENDROOT
BRANCH   1   7
ATOM      7  C   UNL     1      47.538   1.664   6.804  0.00  0.00    +0.000 C 
BRANCH   7   8
ATOM      8  N   UNL     1      47.153   0.336   6.278  0.00  0.00    +0.000 NA
ATOM      9  H   UNL     1      47.901  -0.325   6.477  0.00  0.00    +0.000 HD
BRANCH   8  10
ATOM     10  C   UNL     1      47.015   0.457   4.806  0.00  0.00    +0.000 C 
BRANCH  10  17
ATOM     11  C   UNL     1      45.483   0.739   2.283  0.00  0.00    +0.000 C 
ATOM     12  C   UNL     1      45.897  -0.619   2.790  0.00  0.00    +0.000 A 
ATOM     13  C   UNL     1      45.522  -1.744   2.035  0.00  0.00    +0.000 A 
ATOM     14  C   UNL     1      45.868  -3.025   2.454  0.00  0.00    +0.000 A 
ATOM     15  C   UNL     1      46.583  -3.191   3.635  0.00  0.00    +0.000 A 
ATOM     16  C   UNL     1      46.954  -2.080   4.407  0.00  0.00    +0.000 A 
ATOM     17  C   UNL     1      46.627  -0.777   4.003  0.00  0.00    +0.000 A 
ENDBRANCH  10  17
ENDBRANCH   8  10
ENDBRANCH   7   8
ENDBRANCH   1   7
BRANCH   4  18
ATOM     18  C   UNL     1      43.963   4.701  10.342  0.00  0.00    +0.000 C 
BRANCH  18  19
ATOM     19  N   UNL     1      44.546   5.991  10.630  0.00  0.00    +0.000 N 
ATOM     20  C   UNL     1      44.834   6.383  11.915  0.00  0.00    +0.000 C 
ATOM     21  O   UNL     1      44.637   5.644  12.877  0.00  0.00    +0.000 OA
ATOM     22  H   UNL     1      44.514   6.687   9.891  0.00  0.00    +0.000 HD
BRANCH  20  23
ATOM     23  C   UNL     1      45.447   7.709  12.086  0.00  0.00    +0.000 A 
ATOM     24  C   UNL     1      46.672   7.821  12.732  0.00  0.00    +0.000 A 
ATOM     25  S   UNL     1      47.258   9.420  12.828  0.00  0.00    +0.000 S 
ATOM     26  C   UNL     1      45.872  10.030  12.056  0.00  0.00    +0.000 A 
ATOM     27  N   UNL     1      45.716  11.367  11.853  0.00  0.00    +0.000 NA
ATOM     28  C   UNL     1      44.613  11.694  11.272  0.00  0.00    +0.000 A 
ATOM     29  N   UNL     1      43.650  10.804  10.868  0.00  0.00    +0.000 N 
ATOM     30  C   UNL     1      43.775   9.443  11.025  0.00  0.00    +0.000 A 
ATOM     31  O   UNL     1      42.919   8.674  10.606  0.00  0.00    +0.000 OA
ATOM     32  C   UNL     1      44.991   9.023  11.695  0.00  0.00    +0.000 A 
ATOM     33  H   UNL     1      42.814  11.124  10.405  0.00  0.00    +0.000 HD
ENDBRANCH  20  23
ENDBRANCH  18  19
ENDBRANCH   4  18
TORSDOF 7
ENDMDL
MODEL 9
REMARK VINA RESULT:    -7.105      2.003      2.839
REMARK INTER + INTRA:         -11.128
REMARK INTER:                  -9.665
REMARK INTRA:                  -1.463
REMARK UNBOUND:                -1.115
REMARK  Name = 
REMARK  8 active torsions:
REMARK  status: ('A' for Active; 'I' for Inactive)
REMARK    1  A    between atoms: C_1  and  C_2
REMARK    2  A    between atoms: C_7  and  C_8
REMARK    3  A    between atoms: C_8  and  N_9
REMARK    4  A    between atoms: N_9  and  C_10
REMARK    5  A    between atoms: C_10  and  C_11
REMARK    6  A    between atoms: C_14  and  C_15
REMARK    7  A    between atoms: C_15  and  N_16
REMARK    8  A    between atoms: C_17  and  C_19
REMARK                            x       y       z     vdW  Elec       q    Type
REMARK                         _______ _______ _______ _____ _____    ______ ____
ROOT
ATOM      1  C   UNL     1      45.109   4.886  12.940  0.00  0.00    +0.000 A 
ATOM      2  C   UNL     1      46.407   4.550  13.346  0.00  0.00    +0.000 A 
ATOM      3  C   UNL     1      47.417   5.528  13.422  0.00  0.00    +0.000 A 
ATOM      4  C   UNL     1      47.158   6.867  13.091  0.00  0.00    +0.000 A 
ATOM      5  C   UNL     1      45.866   7.205  12.678  0.00  0.00    +0.000 A 
ATOM      6  C   UNL     1      44.858   6.230  12.610  0.00  0.00    +0.000 A 
ENDROOT
BRANCH   1   7
ATOM      7  C   UNL     1      44.042   3.836  12.675  0.00  0.00    +0.000 C 
BRANCH   7   8
ATOM      8  N   UNL     1      44.406   2.710  11.790  0.00  0.00    +0.000 NA
ATOM      9  H   UNL     1      45.414   2.576  11.827  0.00  0.00    +0.000 HD
BRANCH   8  10
ATOM     10  C   UNL     1      44.036   3.087  10.404  0.00  0.00    +0.000 C 
BRANCH  10  17
ATOM     11  C   UNL     1      45.464   5.357   9.141  0.00  0.00    +0.000 C 
ATOM     12  C   UNL     1      45.717   3.939   8.695  0.00  0.00    +0.000 A 
ATOM     13  C   UNL     1      46.640   3.732   7.656  0.00  0.00    +0.000 A 
ATOM     14  C   UNL     1      46.911   2.448   7.195  0.00  0.00    +0.000 A 
ATOM     15  C   UNL     1      46.254   1.362   7.764  0.00  0.00    +0.000 A 
ATOM     16  C   UNL     1      45.321   1.551   8.794  0.00  0.00    +0.000 A 
ATOM     17  C   UNL     1      45.036   2.835   9.284  0.00  0.00    +0.000 A 
ENDBRANCH  10  17
ENDBRANCH   8  10
ENDBRANCH   7   8
ENDBRANCH   1   7
BRANCH   4  18
ATOM     18  C   UNL     1      48.260   7.902  13.119  0.00  0.00    +0.000 C 
BRANCH  18  19
ATOM     19  N   UNL     1      49.419   7.423  13.837  0.00  0.00    +0.000 N 
ATOM     20  C   UNL     1      49.621   7.720  15.162  0.00  0.00    +0.000 C 
ATOM     21  O   UNL     1      48.813   8.382  15.809  0.00  0.00    +0.000 OA
ATOM     22  H   UNL     1      50.191   7.069  13.281  0.00  0.00    +0.000 HD
BRANCH  20  23
ATOM     23  C   UNL     1      50.825   7.159  15.795  0.00  0.00    +0.000 A 
ATOM     24  C   UNL     1      52.045   7.806  15.643  0.00  0.00    +0.000 A 
ATOM     25  S   UNL     1      53.337   7.044  16.456  0.00  0.00    +0.000 S 
ATOM     26  C   UNL     1      52.325   5.792  16.999  0.00  0.00    +0.000 A 
ATOM     27  N   UNL     1      52.821   4.762  17.738  0.00  0.00    +0.000 NA
ATOM     28  C   UNL     1      51.949   3.873  18.070  0.00  0.00    +0.000 A 
ATOM     29  N   UNL     1      50.619   3.921  17.735  0.00  0.00    +0.000 N 
ATOM     30  C   UNL     1      50.065   4.955  17.015  0.00  0.00    +0.000 A 
ATOM     31  O   UNL     1      48.864   4.992  16.779  0.00  0.00    +0.000 OA
ATOM     32  C   UNL     1      51.011   5.972  16.598  0.00  0.00    +0.000 A 
ATOM     33  H   UNL     1      49.984   3.199  18.039  0.00  0.00    +0.000 HD
ENDBRANCH  20  23
ENDBRANCH  18  19
ENDBRANCH   4  18
TORSDOF 7
ENDMDL
