MODEL 1
REMARK VINA RESULT:    -8.553      0.000      0.000
REMARK INTER + INTRA:         -12.853
REMARK INTER:                 -11.552
REMARK INTRA:                  -1.301
REMARK UNBOUND:                -1.301
REMARK  Name = 
REMARK  6 active torsions:
REMARK  status: ('A' for Active; 'I' for Inactive)
REMARK    1  A    between atoms: C_2  and  C_19
REMARK    2  A    between atoms: N_3  and  C_4
REMARK    3  A    between atoms: C_4  and  C_5
REMARK    4  A    between atoms: C_8  and  C_9
REMARK    5  A    between atoms: C_9  and  C_10
REMARK    6  A    between atoms: C_10  and  C_11
REMARK                            x       y       z     vdW  Elec       q    Type
REMARK                         _______ _______ _______ _____ _____    ______ ____
ROOT
ATOM      1  O   UNL     1      49.031   6.629  13.172  0.00  0.00    +0.000 OA
ATOM      2  C   UNL     1      48.279   6.681  14.140  0.00  0.00    +0.000 C 
ATOM      3  N   UNL     1      46.974   7.094  14.053  0.00  0.00    +0.000 N 
ATOM      4  H   UNL     1      46.482   7.334  14.904  0.00  0.00    +0.000 HD
ENDROOT
BRANCH   2   5
ATOM      5  C   UNL     1      48.709   6.250  15.470  0.00  0.00    +0.000 A 
ATOM      6  C   UNL     1      49.648   6.983  16.184  0.00  0.00    +0.000 A 
ATOM      7  S   UNL     1      50.017   6.306  17.706  0.00  0.00    +0.000 S 
ATOM      8  C   UNL     1      48.913   5.030  17.470  0.00  0.00    +0.000 A 
ATOM      9  N   UNL     1      48.724   4.078  18.423  0.00  0.00    +0.000 NA
ATOM     10  C   UNL     1      47.829   3.195  18.122  0.00  0.00    +0.000 A 
ATOM     11  N   UNL     1      47.112   3.172  16.954  0.00  0.00    +0.000 N 
ATOM     12  C   UNL     1      47.329   4.062  15.937  0.00  0.00    +0.000 A 
ATOM     13  O   UNL     1      46.774   3.914  14.848  0.00  0.00    +0.000 OA
ATOM     14  C   UNL     1      48.288   5.105  16.241  0.00  0.00    +0.000 A 
ATOM     15  H   UNL     1      46.454   2.433  16.760  0.00  0.00    +0.000 HD
ENDBRANCH   2   5
BRANCH   3  16
ATOM     16  C   UNL     1      46.415   7.650  12.853  0.00  0.00    +0.000 C 
BRANCH  16  17
ATOM     17  C   UNL     1      45.869   6.573  11.954  0.00  0.00    +0.000 A 
ATOM     18  C   UNL     1      44.938   5.659  12.455  0.00  0.00    +0.000 A 
ATOM     19  C   UNL     1      44.418   4.652  11.640  0.00  0.00    +0.000 A 
ATOM     20  C   UNL     1      44.816   4.531  10.302  0.00  0.00    +0.000 A 
ATOM     21  C   UNL     1      45.777   5.428   9.814  0.00  0.00    +0.000 A 
ATOM     22  C   UNL     1      46.302   6.437  10.630  0.00  0.00    +0.000 A 
BRANCH  20  23
ATOM     23  C   UNL     1      44.315   3.420   9.399  0.00  0.00    +0.000 C 
BRANCH  23  24
ATOM     24  C   UNL     1      45.248   2.206   9.286  0.00  0.00    +0.000 C 
BRANCH  24  25
ATOM     25  C   UNL     1      46.024   2.162   7.991  0.00  0.00    +0.000 A 
ATOM     26  C   UNL     1      46.729   1.001   7.641  0.00  0.00    +0.000 A 
ATOM     27  C   UNL     1      47.403   0.921   6.422  0.00  0.00    +0.000 A 
ATOM     28  C   UNL     1      47.385   2.002   5.544  0.00  0.00    +0.000 A 
ATOM     29  C   UNL     1      46.702   3.168   5.890  0.00  0.00    +0.000 A 
ATOM     30  C   UNL     1      46.028   3.251   7.110  0.00  0.00    +0.000 A 
ENDBRANCH  24  25
ENDBRANCH  23  24
ENDBRANCH  20  23
ENDBRANCH  16  17
ENDBRANCH   3  16
TORSDOF 6
ENDMDL
MODEL 2
REMARK VINA RESULT:    -7.995      2.072      2.602
REMARK INTER + INTRA:         -12.100
REMARK INTER:                 -10.951
REMARK INTRA:                  -1.150
REMARK UNBOUND:                -1.301
REMARK  Name = 
REMARK  6 active torsions:
REMARK  status: ('A' for Active; 'I' for Inactive)
REMARK    1  A    between atoms: C_2  and  C_19
REMARK    2  A    between atoms: N_3  and  C_4
REMARK    3  A    between atoms: C_4  and  C_5
REMARK    4  A    between atoms: C_8  and  C_9
REMARK    5  A    between atoms: C_9  and  C_10
REMARK    6  A    between atoms: C_10  and  C_11
REMARK                            x       y       z     vdW  Elec       q    Type
REMARK                         _______ _______ _______ _____ _____    ______ ____
ROOT
ATOM      1  O   UNL     1      50.043   6.793  15.277  0.00  0.00    +0.000 OA
ATOM      2  C   UNL     1      48.961   6.374  15.675  0.00  0.00    +0.000 C 
ATOM      3  N   UNL     1      47.847   6.299  14.878  0.00  0.00    +0.000 N 
ATOM      4  H   UNL     1      46.944   6.169  15.314  0.00  0.00    +0.000 HD
ENDROOT
BRANCH   2   5
ATOM      5  C   UNL     1      48.788   5.866  17.035  0.00  0.00    +0.000 A 
ATOM      6  C   UNL     1      49.010   4.526  17.325  0.00  0.00    +0.000 A 
ATOM      7  S   UNL     1      48.746   4.137  18.966  0.00  0.00    +0.000 S 
ATOM      8  C   UNL     1      48.357   5.752  19.345  0.00  0.00    +0.000 A 
ATOM      9  N   UNL     1      48.039   6.120  20.616  0.00  0.00    +0.000 NA
ATOM     10  C   UNL     1      47.804   7.383  20.761  0.00  0.00    +0.000 A 
ATOM     11  N   UNL     1      47.851   8.309  19.752  0.00  0.00    +0.000 N 
ATOM     12  C   UNL     1      48.087   7.970  18.447  0.00  0.00    +0.000 A 
ATOM     13  O   UNL     1      47.969   8.807  17.552  0.00  0.00    +0.000 OA
ATOM     14  C   UNL     1      48.406   6.572  18.235  0.00  0.00    +0.000 A 
ATOM     15  H   UNL     1      47.620   9.277  19.921  0.00  0.00    +0.000 HD
ENDBRANCH   2   5
BRANCH   3  16
ATOM     16  C   UNL     1      47.804   6.849  13.551  0.00  0.00    +0.000 C 
BRANCH  16  17
ATOM     17  C   UNL     1      46.870   6.068  12.667  0.00  0.00    +0.000 A 
ATOM     18  C   UNL     1      46.328   4.864  13.123  0.00  0.00    +0.000 A 
ATOM     19  C   UNL     1      45.459   4.123  12.320  0.00  0.00    +0.000 A 
ATOM     20  C   UNL     1      45.109   4.566  11.037  0.00  0.00    +0.000 A 
ATOM     21  C   UNL     1      45.683   5.758  10.570  0.00  0.00    +0.000 A 
ATOM     22  C   UNL     1      46.556   6.500  11.372  0.00  0.00    +0.000 A 
BRANCH  20  23
ATOM     23  C   UNL     1      44.211   3.766  10.114  0.00  0.00    +0.000 C 
BRANCH  23  24
ATOM     24  C   UNL     1      44.470   3.977   8.615  0.00  0.00    +0.000 C 
BRANCH  24  25
ATOM     25  C   UNL     1      45.589   3.121   8.072  0.00  0.00    +0.000 A 
ATOM     26  C   UNL     1      45.665   1.766   8.426  0.00  0.00    +0.000 A 
ATOM     27  C   UNL     1      46.657   0.946   7.888  0.00  0.00    +0.000 A 
ATOM     28  C   UNL     1      47.589   1.474   6.997  0.00  0.00    +0.000 A 
ATOM     29  C   UNL     1      47.534   2.824   6.653  0.00  0.00    +0.000 A 
ATOM     30  C   UNL     1      46.542   3.647   7.191  0.00  0.00    +0.000 A 
ENDBRANCH  24  25
ENDBRANCH  23  24
ENDBRANCH  20  23
ENDBRANCH  16  17
ENDBRANCH   3  16
TORSDOF 6
ENDMDL
MODEL 3
REMARK VINA RESULT:    -7.862      1.750      2.461
REMARK INTER + INTRA:         -11.921
REMARK INTER:                 -10.737
REMARK INTRA:                  -1.184
REMARK UNBOUND:                -1.301
REMARK  Name = 
REMARK  6 active torsions:
REMARK  status: ('A' for Active; 'I' for Inactive)
REMARK    1  A    between atoms: C_2  and  C_19
REMARK    2  A    between atoms: N_3  and  C_4
REMARK    3  A    between atoms: C_4  and  C_5
REMARK    4  A    between atoms: C_8  and  C_9
REMARK    5  A    between atoms: C_9  and  C_10
REMARK    6  A    between atoms: C_10  and  C_11
REMARK                            x       y       z     vdW  Elec       q    Type
REMARK                         _______ _______ _______ _____ _____    ______ ____
ROOT
ATOM      1  O   UNL     1      50.340   7.208  15.509  0.00  0.00    +0.000 OA
ATOM      2  C   UNL     1      49.182   7.103  15.899  0.00  0.00    +0.000 C 
ATOM      3  N   UNL     1      48.115   6.959  15.050  0.00  0.00    +0.000 N 
ATOM      4  H   UNL     1      47.182   7.109  15.410  0.00  0.00    +0.000 HD
ENDROOT
BRANCH   2   5
ATOM      5  C   UNL     1      48.853   7.070  17.324  0.00  0.00    +0.000 A 
ATOM      6  C   UNL     1      48.394   8.210  17.972  0.00  0.00    +0.000 A 
ATOM      7  S   UNL     1      48.076   7.961  19.630  0.00  0.00    +0.000 S 
ATOM      8  C   UNL     1      48.513   6.318  19.526  0.00  0.00    +0.000 A 
ATOM      9  N   UNL     1      48.452   5.503  20.614  0.00  0.00    +0.000 NA
ATOM     10  C   UNL     1      48.777   4.274  20.377  0.00  0.00    +0.000 A 
ATOM     11  N   UNL     1      49.162   3.787  19.155  0.00  0.00    +0.000 N 
ATOM     12  C   UNL     1      49.314   4.588  18.055  0.00  0.00    +0.000 A 
ATOM     13  O   UNL     1      49.808   4.141  17.019  0.00  0.00    +0.000 OA
ATOM     14  C   UNL     1      48.916   5.967  18.252  0.00  0.00    +0.000 A 
ATOM     15  H   UNL     1      49.440   2.824  19.041  0.00  0.00    +0.000 HD
ENDBRANCH   2   5
BRANCH   3  16
ATOM     16  C   UNL     1      48.238   7.074  13.623  0.00  0.00    +0.000 C 
BRANCH  16  17
ATOM     17  C   UNL     1      47.233   6.205  12.916  0.00  0.00    +0.000 A 
ATOM     18  C   UNL     1      46.718   6.606  11.681  0.00  0.00    +0.000 A 
ATOM     19  C   UNL     1      45.785   5.817  11.006  0.00  0.00    +0.000 A 
ATOM     20  C   UNL     1      45.340   4.605  11.551  0.00  0.00    +0.000 A 
ATOM     21  C   UNL     1      45.833   4.223  12.807  0.00  0.00    +0.000 A 
ATOM     22  C   UNL     1      46.766   5.014  13.486  0.00  0.00    +0.000 A 
BRANCH  20  23
ATOM     23  C   UNL     1      44.289   3.743  10.876  0.00  0.00    +0.000 C 
BRANCH  23  24
ATOM     24  C   UNL     1      44.159   3.948   9.360  0.00  0.00    +0.000 C 
BRANCH  24  25
ATOM     25  C   UNL     1      45.199   3.200   8.561  0.00  0.00    +0.000 A 
ATOM     26  C   UNL     1      45.994   3.890   7.634  0.00  0.00    +0.000 A 
ATOM     27  C   UNL     1      46.999   3.228   6.929  0.00  0.00    +0.000 A 
ATOM     28  C   UNL     1      47.216   1.868   7.138  0.00  0.00    +0.000 A 
ATOM     29  C   UNL     1      46.420   1.168   8.044  0.00  0.00    +0.000 A 
ATOM     30  C   UNL     1      45.412   1.829   8.750  0.00  0.00    +0.000 A 
ENDBRANCH  24  25
ENDBRANCH  23  24
ENDBRANCH  20  23
ENDBRANCH  16  17
ENDBRANCH   3  16
TORSDOF 6
ENDMDL
MODEL 4
REMARK VINA RESULT:    -7.322      2.163      2.863
REMARK INTER + INTRA:         -11.191
REMARK INTER:                  -9.926
REMARK INTRA:                  -1.265
REMARK UNBOUND:                -1.301
REMARK  Name = 
REMARK  6 active torsions:
REMARK  status: ('A' for Active; 'I' for Inactive)
REMARK    1  A    between atoms: C_2  and  C_19
REMARK    2  A    between atoms: N_3  and  C_4
REMARK    3  A    between atoms: C_4  and  C_5
REMARK    4  A    between atoms: C_8  and  C_9
REMARK    5  A    between atoms: C_9  and  C_10
REMARK    6  A    between atoms: C_10  and  C_11
REMARK                            x       y       z     vdW  Elec       q    Type
REMARK                         _______ _______ _______ _____ _____    ______ ____
ROOT
ATOM      1  O   UNL     1      48.629   9.788  12.917  0.00  0.00    +0.000 OA
ATOM      2  C   UNL     1      48.144   9.356  13.957  0.00  0.00    +0.000 C 
ATOM      3  N   UNL     1      46.908   8.766  14.019  0.00  0.00    +0.000 N 
ATOM      4  H   UNL     1      46.471   8.643  14.923  0.00  0.00    +0.000 HD
ENDROOT
BRANCH   2   5
ATOM      5  C   UNL     1      48.881   9.391  15.220  0.00  0.00    +0.000 A 
ATOM      6  C   UNL     1      49.119  10.596  15.870  0.00  0.00    +0.000 A 
ATOM      7  S   UNL     1      50.001  10.418  17.320  0.00  0.00    +0.000 S 
ATOM      8  C   UNL     1      50.066   8.725  17.139  0.00  0.00    +0.000 A 
ATOM      9  N   UNL     1      50.682   7.942  18.066  0.00  0.00    +0.000 NA
ATOM     10  C   UNL     1      50.620   6.675  17.817  0.00  0.00    +0.000 A 
ATOM     11  N   UNL     1      50.006   6.120  16.725  0.00  0.00    +0.000 N 
ATOM     12  C   UNL     1      49.447   6.875  15.728  0.00  0.00    +0.000 A 
ATOM     13  O   UNL     1      49.043   6.344  14.693  0.00  0.00    +0.000 OA
ATOM     14  C   UNL     1      49.444   8.302  15.981  0.00  0.00    +0.000 A 
ATOM     15  H   UNL     1      50.024   5.124  16.566  0.00  0.00    +0.000 HD
ENDBRANCH   2   5
BRANCH   3  16
ATOM     16  C   UNL     1      46.004   8.740  12.903  0.00  0.00    +0.000 C 
BRANCH  16  17
ATOM     17  C   UNL     1      45.644   7.328  12.523  0.00  0.00    +0.000 A 
ATOM     18  C   UNL     1      46.320   6.258  13.116  0.00  0.00    +0.000 A 
ATOM     19  C   UNL     1      46.003   4.941  12.780  0.00  0.00    +0.000 A 
ATOM     20  C   UNL     1      45.003   4.658  11.841  0.00  0.00    +0.000 A 
ATOM     21  C   UNL     1      44.352   5.735  11.222  0.00  0.00    +0.000 A 
ATOM     22  C   UNL     1      44.670   7.056  11.555  0.00  0.00    +0.000 A 
BRANCH  20  23
ATOM     23  C   UNL     1      44.664   3.243  11.409  0.00  0.00    +0.000 C 
BRANCH  23  24
ATOM     24  C   UNL     1      44.081   3.120   9.995  0.00  0.00    +0.000 C 
BRANCH  24  25
ATOM     25  C   UNL     1      45.128   2.902   8.929  0.00  0.00    +0.000 A 
ATOM     26  C   UNL     1      45.632   3.997   8.213  0.00  0.00    +0.000 A 
ATOM     27  C   UNL     1      46.642   3.822   7.266  0.00  0.00    +0.000 A 
ATOM     28  C   UNL     1      47.151   2.550   7.019  0.00  0.00    +0.000 A 
ATOM     29  C   UNL     1      46.645   1.451   7.712  0.00  0.00    +0.000 A 
ATOM     30  C   UNL     1      45.634   1.624   8.660  0.00  0.00    +0.000 A 
ENDBRANCH  24  25
ENDBRANCH  23  24
ENDBRANCH  20  23
ENDBRANCH  16  17
ENDBRANCH   3  16
TORSDOF 6
ENDMDL
MODEL 5
REMARK VINA RESULT:    -6.940      1.453      2.180
REMARK INTER + INTRA:         -10.676
REMARK INTER:                  -9.573
REMARK INTRA:                  -1.102
REMARK UNBOUND:                -1.301
REMARK  Name = 
REMARK  6 active torsions:
REMARK  status: ('A' for Active; 'I' for Inactive)
REMARK    1  A    between atoms: C_2  and  C_19
REMARK    2  A    between atoms: N_3  and  C_4
REMARK    3  A    between atoms: C_4  and  C_5
REMARK    4  A    between atoms: C_8  and  C_9
REMARK    5  A    between atoms: C_9  and  C_10
REMARK    6  A    between atoms: C_10  and  C_11
REMARK                            x       y       z     vdW  Elec       q    Type
REMARK                         _______ _______ _______ _____ _____    ______ ____
ROOT
ATOM      1  O   UNL     1      49.190   8.627  15.893  0.00  0.00    +0.000 OA
ATOM      2  C   UNL     1      49.277   7.472  15.491  0.00  0.00    +0.000 C 
ATOM      3  N   UNL     1      48.757   7.053  14.293  0.00  0.00    +0.000 N 
ATOM      4  H   UNL     1      48.657   6.061  14.126  0.00  0.00    +0.000 HD
ENDROOT
BRANCH   2   5
ATOM      5  C   UNL     1      50.001   6.450  16.247  0.00  0.00    +0.000 A 
ATOM      6  C   UNL     1      51.340   6.624  16.572  0.00  0.00    +0.000 A 
ATOM      7  S   UNL     1      51.998   5.314  17.446  0.00  0.00    +0.000 S 
ATOM      8  C   UNL     1      50.507   4.489  17.443  0.00  0.00    +0.000 A 
ATOM      9  N   UNL     1      50.371   3.280  18.051  0.00  0.00    +0.000 NA
ATOM     10  C   UNL     1      49.175   2.791  18.001  0.00  0.00    +0.000 A 
ATOM     11  N   UNL     1      48.106   3.397  17.393  0.00  0.00    +0.000 N 
ATOM     12  C   UNL     1      48.218   4.572  16.701  0.00  0.00    +0.000 A 
ATOM     13  O   UNL     1      47.271   5.003  16.042  0.00  0.00    +0.000 OA
ATOM     14  C   UNL     1      49.527   5.190  16.767  0.00  0.00    +0.000 A 
ATOM     15  H   UNL     1      47.204   2.946  17.354  0.00  0.00    +0.000 HD
ENDBRANCH   2   5
BRANCH   3  16
ATOM     16  C   UNL     1      47.927   7.892  13.473  0.00  0.00    +0.000 C 
BRANCH  16  17
ATOM     17  C   UNL     1      46.842   7.095  12.799  0.00  0.00    +0.000 A 
ATOM     18  C   UNL     1      45.898   7.747  12.002  0.00  0.00    +0.000 A 
ATOM     19  C   UNL     1      44.883   7.028  11.367  0.00  0.00    +0.000 A 
ATOM     20  C   UNL     1      44.785   5.638  11.514  0.00  0.00    +0.000 A 
ATOM     21  C   UNL     1      45.714   4.993  12.343  0.00  0.00    +0.000 A 
ATOM     22  C   UNL     1      46.730   5.711  12.982  0.00  0.00    +0.000 A 
BRANCH  20  23
ATOM     23  C   UNL     1      43.667   4.828  10.884  0.00  0.00    +0.000 C 
BRANCH  23  24
ATOM     24  C   UNL     1      44.008   3.356  10.614  0.00  0.00    +0.000 C 
BRANCH  24  25
ATOM     25  C   UNL     1      44.900   3.155   9.412  0.00  0.00    +0.000 A 
ATOM     26  C   UNL     1      45.307   4.263   8.654  0.00  0.00    +0.000 A 
ATOM     27  C   UNL     1      46.177   4.104   7.576  0.00  0.00    +0.000 A 
ATOM     28  C   UNL     1      46.644   2.836   7.239  0.00  0.00    +0.000 A 
ATOM     29  C   UNL     1      46.233   1.725   7.975  0.00  0.00    +0.000 A 
ATOM     30  C   UNL     1      45.360   1.882   9.054  0.00  0.00    +0.000 A 
ENDBRANCH  24  25
ENDBRANCH  23  24
ENDBRANCH  20  23
ENDBRANCH  16  17
ENDBRANCH   3  16
TORSDOF 6
ENDMDL
MODEL 6
REMARK VINA RESULT:    -6.897      3.667      7.955
REMARK INTER + INTRA:         -10.616
REMARK INTER:                  -8.948
REMARK INTRA:                  -1.669
REMARK UNBOUND:                -1.301
REMARK  Name = 
REMARK  6 active torsions:
REMARK  status: ('A' for Active; 'I' for Inactive)
REMARK    1  A    between atoms: C_2  and  C_19
REMARK    2  A    between atoms: N_3  and  C_4
REMARK    3  A    between atoms: C_4  and  C_5
REMARK    4  A    between atoms: C_8  and  C_9
REMARK    5  A    between atoms: C_9  and  C_10
REMARK    6  A    between atoms: C_10  and  C_11
REMARK                            x       y       z     vdW  Elec       q    Type
REMARK                         _______ _______ _______ _____ _____    ______ ____
ROOT
ATOM      1  O   UNL     1      45.361   8.025  11.766  0.00  0.00    +0.000 OA
ATOM      2  C   UNL     1      46.096   7.103  11.430  0.00  0.00    +0.000 C 
ATOM      3  N   UNL     1      47.451   7.108  11.642  0.00  0.00    +0.000 N 
ATOM      4  H   UNL     1      48.025   6.440  11.144  0.00  0.00    +0.000 HD
ENDROOT
BRANCH   2   5
ATOM      5  C   UNL     1      45.567   5.885  10.816  0.00  0.00    +0.000 A 
ATOM      6  C   UNL     1      45.823   5.594   9.482  0.00  0.00    +0.000 A 
ATOM      7  S   UNL     1      45.110   4.134   8.961  0.00  0.00    +0.000 S 
ATOM      8  C   UNL     1      44.463   3.831  10.508  0.00  0.00    +0.000 A 
ATOM      9  N   UNL     1      43.736   2.709  10.760  0.00  0.00    +0.000 NA
ATOM     10  C   UNL     1      43.342   2.595  11.985  0.00  0.00    +0.000 A 
ATOM     11  N   UNL     1      43.602   3.501  12.980  0.00  0.00    +0.000 N 
ATOM     12  C   UNL     1      44.259   4.680  12.752  0.00  0.00    +0.000 A 
ATOM     13  O   UNL     1      44.337   5.534  13.636  0.00  0.00    +0.000 OA
ATOM     14  C   UNL     1      44.767   4.837  11.404  0.00  0.00    +0.000 A 
ATOM     15  H   UNL     1      43.234   3.374  13.911  0.00  0.00    +0.000 HD
ENDBRANCH   2   5
BRANCH   3  16
ATOM     16  C   UNL     1      48.154   8.261  12.134  0.00  0.00    +0.000 C 
BRANCH  16  17
ATOM     17  C   UNL     1      48.605   8.059  13.556  0.00  0.00    +0.000 A 
ATOM     18  C   UNL     1      47.872   8.627  14.602  0.00  0.00    +0.000 A 
ATOM     19  C   UNL     1      48.271   8.453  15.928  0.00  0.00    +0.000 A 
ATOM     20  C   UNL     1      49.415   7.708  16.245  0.00  0.00    +0.000 A 
ATOM     21  C   UNL     1      50.166   7.169  15.190  0.00  0.00    +0.000 A 
ATOM     22  C   UNL     1      49.770   7.345  13.860  0.00  0.00    +0.000 A 
BRANCH  20  23
ATOM     23  C   UNL     1      49.912   7.539  17.668  0.00  0.00    +0.000 C 
BRANCH  23  24
ATOM     24  C   UNL     1      49.000   6.702  18.578  0.00  0.00    +0.000 C 
BRANCH  24  25
ATOM     25  C   UNL     1      48.771   5.298  18.072  0.00  0.00    +0.000 A 
ATOM     26  C   UNL     1      47.475   4.883  17.731  0.00  0.00    +0.000 A 
ATOM     27  C   UNL     1      47.253   3.610  17.207  0.00  0.00    +0.000 A 
ATOM     28  C   UNL     1      48.321   2.735  17.025  0.00  0.00    +0.000 A 
ATOM     29  C   UNL     1      49.611   3.131  17.377  0.00  0.00    +0.000 A 
ATOM     30  C   UNL     1      49.836   4.405  17.903  0.00  0.00    +0.000 A 
ENDBRANCH  24  25
ENDBRANCH  23  24
ENDBRANCH  20  23
ENDBRANCH  16  17
ENDBRANCH   3  16
TORSDOF 6
ENDMDL
MODEL 7
REMARK VINA RESULT:    -6.768      4.820      7.090
REMARK INTER + INTRA:         -10.443
REMARK INTER:                  -9.229
REMARK INTRA:                  -1.215
REMARK UNBOUND:                -1.301
REMARK  Name = 
REMARK  6 active torsions:
REMARK  status: ('A' for Active; 'I' for Inactive)
REMARK    1  A    between atoms: C_2  and  C_19
REMARK    2  A    between atoms: N_3  and  C_4
REMARK    3  A    between atoms: C_4  and  C_5
REMARK    4  A    between atoms: C_8  and  C_9
REMARK    5  A    between atoms: C_9  and  C_10
REMARK    6  A    between atoms: C_10  and  C_11
REMARK                            x       y       z     vdW  Elec       q    Type
REMARK                         _______ _______ _______ _____ _____    ______ ____
ROOT
ATOM      1  O   UNL     1      44.531   7.648  11.055  0.00  0.00    +0.000 OA
ATOM      2  C   UNL     1      44.989   6.760  11.767  0.00  0.00    +0.000 C 
ATOM      3  N   UNL     1      45.834   7.003  12.820  0.00  0.00    +0.000 N 
ATOM      4  H   UNL     1      46.353   6.231  13.216  0.00  0.00    +0.000 HD
ENDROOT
BRANCH   2   5
ATOM      5  C   UNL     1      44.619   5.357  11.577  0.00  0.00    +0.000 A 
ATOM      6  C   UNL     1      43.902   4.674  12.551  0.00  0.00    +0.000 A 
ATOM      7  S   UNL     1      43.581   3.050  12.138  0.00  0.00    +0.000 S 
ATOM      8  C   UNL     1      44.363   3.218  10.634  0.00  0.00    +0.000 A 
ATOM      9  N   UNL     1      44.436   2.179   9.758  0.00  0.00    +0.000 NA
ATOM     10  C   UNL     1      45.025   2.463   8.643  0.00  0.00    +0.000 A 
ATOM     11  N   UNL     1      45.553   3.688   8.326  0.00  0.00    +0.000 N 
ATOM     12  C   UNL     1      45.573   4.735   9.207  0.00  0.00    +0.000 A 
ATOM     13  O   UNL     1      46.190   5.766   8.940  0.00  0.00    +0.000 OA
ATOM     14  C   UNL     1      44.881   4.486  10.456  0.00  0.00    +0.000 A 
ATOM     15  H   UNL     1      46.035   3.838   7.452  0.00  0.00    +0.000 HD
ENDBRANCH   2   5
BRANCH   3  16
ATOM     16  C   UNL     1      46.384   8.303  13.088  0.00  0.00    +0.000 C 
BRANCH  16  17
ATOM     17  C   UNL     1      47.757   8.449  12.490  0.00  0.00    +0.000 A 
ATOM     18  C   UNL     1      48.148   9.673  11.941  0.00  0.00    +0.000 A 
ATOM     19  C   UNL     1      49.416   9.832  11.382  0.00  0.00    +0.000 A 
ATOM     20  C   UNL     1      50.329   8.769  11.354  0.00  0.00    +0.000 A 
ATOM     21  C   UNL     1      49.921   7.532  11.874  0.00  0.00    +0.000 A 
ATOM     22  C   UNL     1      48.648   7.370  12.433  0.00  0.00    +0.000 A 
BRANCH  20  23
ATOM     23  C   UNL     1      51.698   8.884  10.709  0.00  0.00    +0.000 C 
BRANCH  23  24
ATOM     24  C   UNL     1      52.623   7.680  10.933  0.00  0.00    +0.000 C 
BRANCH  24  25
ATOM     25  C   UNL     1      52.935   6.917   9.668  0.00  0.00    +0.000 A 
ATOM     26  C   UNL     1      53.847   5.852   9.704  0.00  0.00    +0.000 A 
ATOM     27  C   UNL     1      54.103   5.098   8.558  0.00  0.00    +0.000 A 
ATOM     28  C   UNL     1      53.456   5.405   7.364  0.00  0.00    +0.000 A 
ATOM     29  C   UNL     1      52.561   6.473   7.312  0.00  0.00    +0.000 A 
ATOM     30  C   UNL     1      52.304   7.230   8.458  0.00  0.00    +0.000 A 
ENDBRANCH  24  25
ENDBRANCH  23  24
ENDBRANCH  20  23
ENDBRANCH  16  17
ENDBRANCH   3  16
TORSDOF 6
ENDMDL
MODEL 8
REMARK VINA RESULT:    -6.724      3.921      7.847
REMARK INTER + INTRA:         -10.384
REMARK INTER:                  -8.382
REMARK INTRA:                  -2.001
REMARK UNBOUND:                -1.301
REMARK  Name = 
REMARK  6 active torsions:
REMARK  status: ('A' for Active; 'I' for Inactive)
REMARK    1  A    between atoms: C_2  and  C_19
REMARK    2  A    between atoms: N_3  and  C_4
REMARK    3  A    between atoms: C_4  and  C_5
REMARK    4  A    between atoms: C_8  and  C_9
REMARK    5  A    between atoms: C_9  and  C_10
REMARK    6  A    between atoms: C_10  and  C_11
REMARK                            x       y       z     vdW  Elec       q    Type
REMARK                         _______ _______ _______ _____ _____    ______ ____
ROOT
ATOM      1  O   UNL     1      48.082   8.495  12.277  0.00  0.00    +0.000 OA
ATOM      2  C   UNL     1      47.187   8.091  13.013  0.00  0.00    +0.000 C 
ATOM      3  N   UNL     1      47.083   8.449  14.332  0.00  0.00    +0.000 N 
ATOM      4  H   UNL     1      46.474   7.912  14.936  0.00  0.00    +0.000 HD
ENDROOT
BRANCH   2   5
ATOM      5  C   UNL     1      46.117   7.227  12.515  0.00  0.00    +0.000 A 
ATOM      6  C   UNL     1      45.084   7.748  11.747  0.00  0.00    +0.000 A 
ATOM      7  S   UNL     1      43.936   6.577  11.275  0.00  0.00    +0.000 S 
ATOM      8  C   UNL     1      44.800   5.334  12.057  0.00  0.00    +0.000 A 
ATOM      9  N   UNL     1      44.361   4.046  12.027  0.00  0.00    +0.000 NA
ATOM     10  C   UNL     1      45.136   3.206  12.631  0.00  0.00    +0.000 A 
ATOM     11  N   UNL     1      46.306   3.535  13.265  0.00  0.00    +0.000 N 
ATOM     12  C   UNL     1      46.741   4.827  13.388  0.00  0.00    +0.000 A 
ATOM     13  O   UNL     1      47.713   5.095  14.095  0.00  0.00    +0.000 OA
ATOM     14  C   UNL     1      45.934   5.806  12.687  0.00  0.00    +0.000 A 
ATOM     15  H   UNL     1      46.849   2.839  13.752  0.00  0.00    +0.000 HD
ENDBRANCH   2   5
BRANCH   3  16
ATOM     16  C   UNL     1      48.098   9.202  15.014  0.00  0.00    +0.000 C 
BRANCH  16  17
ATOM     17  C   UNL     1      48.815   8.357  16.033  0.00  0.00    +0.000 A 
ATOM     18  C   UNL     1      48.517   8.505  17.390  0.00  0.00    +0.000 A 
ATOM     19  C   UNL     1      49.169   7.732  18.351  0.00  0.00    +0.000 A 
ATOM     20  C   UNL     1      50.138   6.790  17.982  0.00  0.00    +0.000 A 
ATOM     21  C   UNL     1      50.459   6.669  16.622  0.00  0.00    +0.000 A 
ATOM     22  C   UNL     1      49.809   7.445  15.657  0.00  0.00    +0.000 A 
BRANCH  20  23
ATOM     23  C   UNL     1      50.907   5.967  18.999  0.00  0.00    +0.000 C 
BRANCH  23  24
ATOM     24  C   UNL     1      50.144   4.762  19.567  0.00  0.00    +0.000 C 
BRANCH  24  25
ATOM     25  C   UNL     1      49.462   3.929  18.509  0.00  0.00    +0.000 A 
ATOM     26  C   UNL     1      48.084   4.071  18.291  0.00  0.00    +0.000 A 
ATOM     27  C   UNL     1      47.447   3.353  17.279  0.00  0.00    +0.000 A 
ATOM     28  C   UNL     1      48.179   2.480  16.479  0.00  0.00    +0.000 A 
ATOM     29  C   UNL     1      49.547   2.317  16.697  0.00  0.00    +0.000 A 
ATOM     30  C   UNL     1      50.186   3.034  17.711  0.00  0.00    +0.000 A 
ENDBRANCH  24  25
ENDBRANCH  23  24
ENDBRANCH  20  23
ENDBRANCH  16  17
ENDBRANCH   3  16
TORSDOF 6
ENDMDL
MODEL 9
REMARK VINA RESULT:    -6.626      3.208      5.701
REMARK INTER + INTRA:         -10.251
REMARK INTER:                  -9.218
REMARK INTRA:                  -1.033
REMARK UNBOUND:                -1.301
REMARK  Name = 
REMARK  6 active torsions:
REMARK  status: ('A' for Active; 'I' for Inactive)
REMARK    1  A    between atoms: C_2  and  C_19
REMARK    2  A    between atoms: N_3  and  C_4
REMARK    3  A    between atoms: C_4  and  C_5
REMARK    4  A    between atoms: C_8  and  C_9
REMARK    5  A    between atoms: C_9  and  C_10
REMARK    6  A    between atoms: C_10  and  C_11
REMARK                            x       y       z     vdW  Elec       q    Type
REMARK                         _______ _______ _______ _____ _____    ______ ____
ROOT
ATOM      1  O   UNL     1      49.405   1.709  16.220  0.00  0.00    +0.000 OA
ATOM      2  C   UNL     1      49.937   2.388  17.092  0.00  0.00    +0.000 C 
ATOM      3  N   UNL     1      49.258   3.320  17.835  0.00  0.00    +0.000 N 
ATOM      4  H   UNL     1      49.788   3.999  18.365  0.00  0.00    +0.000 HD
ENDROOT
BRANCH   2   5
ATOM      5  C   UNL     1      51.345   2.214  17.447  0.00  0.00    +0.000 A 
ATOM      6  C   UNL     1      51.899   0.944  17.548  0.00  0.00    +0.000 A 
ATOM      7  S   UNL     1      53.550   0.961  17.980  0.00  0.00    +0.000 S 
ATOM      8  C   UNL     1      53.582   2.664  18.015  0.00  0.00    +0.000 A 
ATOM      9  N   UNL     1      54.726   3.340  18.310  0.00  0.00    +0.000 NA
ATOM     10  C   UNL     1      54.610   4.627  18.262  0.00  0.00    +0.000 A 
ATOM     11  N   UNL     1      53.455   5.299  17.954  0.00  0.00    +0.000 N 
ATOM     12  C   UNL     1      52.265   4.660  17.732  0.00  0.00    +0.000 A 
ATOM     13  O   UNL     1      51.223   5.304  17.610  0.00  0.00    +0.000 OA
ATOM     14  C   UNL     1      52.349   3.213  17.724  0.00  0.00    +0.000 A 
ATOM     15  H   UNL     1      53.418   6.307  17.970  0.00  0.00    +0.000 HD
ENDBRANCH   2   5
BRANCH   3  16
ATOM     16  C   UNL     1      47.901   3.697  17.554  0.00  0.00    +0.000 C 
BRANCH  16  17
ATOM     17  C   UNL     1      47.807   4.493  16.280  0.00  0.00    +0.000 A 
ATOM     18  C   UNL     1      48.450   5.730  16.188  0.00  0.00    +0.000 A 
ATOM     19  C   UNL     1      48.378   6.486  15.017  0.00  0.00    +0.000 A 
ATOM     20  C   UNL     1      47.658   6.026  13.906  0.00  0.00    +0.000 A 
ATOM     21  C   UNL     1      46.986   4.800  14.015  0.00  0.00    +0.000 A 
ATOM     22  C   UNL     1      47.055   4.042  15.189  0.00  0.00    +0.000 A 
BRANCH  20  23
ATOM     23  C   UNL     1      47.511   6.839  12.634  0.00  0.00    +0.000 C 
BRANCH  23  24
ATOM     24  C   UNL     1      46.080   7.298  12.320  0.00  0.00    +0.000 C 
BRANCH  24  25
ATOM     25  C   UNL     1      45.307   6.319  11.470  0.00  0.00    +0.000 A 
ATOM     26  C   UNL     1      45.903   5.765  10.328  0.00  0.00    +0.000 A 
ATOM     27  C   UNL     1      45.225   4.815   9.564  0.00  0.00    +0.000 A 
ATOM     28  C   UNL     1      43.943   4.414   9.929  0.00  0.00    +0.000 A 
ATOM     29  C   UNL     1      43.333   4.971  11.052  0.00  0.00    +0.000 A 
ATOM     30  C   UNL     1      44.009   5.923  11.818  0.00  0.00    +0.000 A 
ENDBRANCH  24  25
ENDBRANCH  23  24
ENDBRANCH  20  23
ENDBRANCH  16  17
ENDBRANCH   3  16
TORSDOF 6
ENDMDL
