MODEL 1
REMARK VINA RESULT:    -7.737      0.000      0.000
REMARK INTER + INTRA:         -11.733
REMARK INTER:                 -10.903
REMARK INTRA:                  -0.830
REMARK UNBOUND:                -0.830
REMARK  Name = 
REMARK  7 active torsions:
REMARK  status: ('A' for Active; 'I' for Inactive)
REMARK    1  A    between atoms: C_2  and  C_4
REMARK    2  A    between atoms: C_7  and  N_8
REMARK    3  A    between atoms: N_8  and  C_9
REMARK    4  A    between atoms: C_9  and  C_10
REMARK    5  A    between atoms: C_10  and  C_11
REMARK    6  A    between atoms: C_15  and  N_16
REMARK    7  A    between atoms: N_16  and  C_17
REMARK                            x       y       z     vdW  Elec       q    Type
REMARK                         _______ _______ _______ _____ _____    ______ ____
ROOT
ATOM      1  C   UNL     1      43.327   4.372  11.228  0.00  0.00    +0.000 C 
ENDROOT
BRANCH   1   2
ATOM      2  N   UNL     1      43.598   4.653   9.820  0.00  0.00    +0.000 N 
ATOM      3  H   UNL     1      42.774   4.775   9.236  0.00  0.00    +0.000 HD
BRANCH   2   7
ATOM      4  C   UNL     1      46.547   2.525   7.671  0.00  0.00    +0.000 A 
ATOM      5  C   UNL     1      46.560   3.921   7.659  0.00  0.00    +0.000 A 
ATOM      6  C   UNL     1      45.600   4.638   8.384  0.00  0.00    +0.000 A 
ATOM      7  C   UNL     1      44.630   3.988   9.158  0.00  0.00    +0.000 A 
ATOM      8  C   UNL     1      44.625   2.586   9.148  0.00  0.00    +0.000 A 
ATOM      9  C   UNL     1      45.568   1.858   8.411  0.00  0.00    +0.000 A 
BRANCH   4  11
ATOM     10  N   UNL     1      48.614   2.377   6.389  0.00  0.00    +0.000 N 
ATOM     11  C   UNL     1      47.512   1.728   6.871  0.00  0.00    +0.000 C 
ATOM     12  O   UNL     1      47.348   0.532   6.671  0.00  0.00    +0.000 OA
ATOM     13  H   UNL     1      49.304   1.801   5.922  0.00  0.00    +0.000 HD
ATOM     14  H   UNL     1      48.910   3.277   6.735  0.00  0.00    +0.000 HD
ENDBRANCH   4  11
ENDBRANCH   2   7
ENDBRANCH   1   2
BRANCH   1  15
ATOM     15  C   UNL     1      43.578   5.614  12.088  0.00  0.00    +0.000 C 
BRANCH  15  16
ATOM     16  C   UNL     1      45.004   5.666  12.583  0.00  0.00    +0.000 A 
ATOM     17  C   UNL     1      45.936   6.530  12.004  0.00  0.00    +0.000 A 
ATOM     18  C   UNL     1      47.254   6.545  12.460  0.00  0.00    +0.000 A 
ATOM     19  C   UNL     1      47.656   5.694  13.495  0.00  0.00    +0.000 A 
ATOM     20  C   UNL     1      46.732   4.852  14.114  0.00  0.00    +0.000 A 
ATOM     21  C   UNL     1      45.407   4.851  13.652  0.00  0.00    +0.000 A 
BRANCH  20  22
ATOM     22  N   UNL     1      47.066   3.961  15.152  0.00  0.00    +0.000 N 
ATOM     23  H   UNL     1      46.640   3.051  14.985  0.00  0.00    +0.000 HD
BRANCH  22  24
ATOM     24  C   UNL     1      47.217   4.279  16.544  0.00  0.00    +0.000 C 
ATOM     25  C   UNL     1      48.654   4.643  16.954  0.00  0.00    +0.000 C 
ATOM     26  O   UNL     1      48.649   3.631  17.997  0.00  0.00    +0.000 OA
ATOM     27  C   UNL     1      47.467   3.031  17.409  0.00  0.00    +0.000 C 
ENDBRANCH  22  24
ENDBRANCH  20  22
ENDBRANCH  15  16
ENDBRANCH   1  15
TORSDOF 7
ENDMDL
MODEL 2
REMARK VINA RESULT:    -7.348      3.033      4.276
REMARK INTER + INTRA:         -11.184
REMARK INTER:                 -10.352
REMARK INTRA:                  -0.833
REMARK UNBOUND:                -0.830
REMARK  Name = 
REMARK  7 active torsions:
REMARK  status: ('A' for Active; 'I' for Inactive)
REMARK    1  A    between atoms: C_2  and  C_4
REMARK    2  A    between atoms: C_7  and  N_8
REMARK    3  A    between atoms: N_8  and  C_9
REMARK    4  A    between atoms: C_9  and  C_10
REMARK    5  A    between atoms: C_10  and  C_11
REMARK    6  A    between atoms: C_15  and  N_16
REMARK    7  A    between atoms: N_16  and  C_17
REMARK                            x       y       z     vdW  Elec       q    Type
REMARK                         _______ _______ _______ _____ _____    ______ ____
ROOT
ATOM      1  C   UNL     1      43.536   3.331  11.776  0.00  0.00    +0.000 C 
ENDROOT
BRANCH   1   2
ATOM      2  N   UNL     1      43.598   3.838  10.407  0.00  0.00    +0.000 N 
ATOM      3  H   UNL     1      42.700   3.921   9.935  0.00  0.00    +0.000 HD
BRANCH   2   7
ATOM      4  C   UNL     1      46.508   2.453   7.677  0.00  0.00    +0.000 A 
ATOM      5  C   UNL     1      46.316   3.826   7.840  0.00  0.00    +0.000 A 
ATOM      6  C   UNL     1      45.369   4.298   8.757  0.00  0.00    +0.000 A 
ATOM      7  C   UNL     1      44.617   3.422   9.550  0.00  0.00    +0.000 A 
ATOM      8  C   UNL     1      44.814   2.046   9.364  0.00  0.00    +0.000 A 
ATOM      9  C   UNL     1      45.745   1.562   8.436  0.00  0.00    +0.000 A 
BRANCH   4  11
ATOM     10  N   UNL     1      48.569   2.662   6.393  0.00  0.00    +0.000 N 
ATOM     11  C   UNL     1      47.462   1.910   6.675  0.00  0.00    +0.000 C 
ATOM     12  O   UNL     1      47.286   0.824   6.142  0.00  0.00    +0.000 OA
ATOM     13  H   UNL     1      49.251   2.238   5.776  0.00  0.00    +0.000 HD
ATOM     14  H   UNL     1      48.874   3.422   6.981  0.00  0.00    +0.000 HD
ENDBRANCH   4  11
ENDBRANCH   2   7
ENDBRANCH   1   2
BRANCH   1  15
ATOM     15  C   UNL     1      43.463   4.486  12.779  0.00  0.00    +0.000 C 
BRANCH  15  16
ATOM     16  C   UNL     1      44.776   5.226  12.870  0.00  0.00    +0.000 A 
ATOM     17  C   UNL     1      45.897   4.633  13.455  0.00  0.00    +0.000 A 
ATOM     18  C   UNL     1      47.095   5.342  13.552  0.00  0.00    +0.000 A 
ATOM     19  C   UNL     1      47.183   6.652  13.070  0.00  0.00    +0.000 A 
ATOM     20  C   UNL     1      46.087   7.249  12.445  0.00  0.00    +0.000 A 
ATOM     21  C   UNL     1      44.891   6.523  12.348  0.00  0.00    +0.000 A 
BRANCH  20  22
ATOM     22  N   UNL     1      46.100   8.566  11.947  0.00  0.00    +0.000 N 
ATOM     23  H   UNL     1      47.051   8.932  11.949  0.00  0.00    +0.000 HD
BRANCH  22  24
ATOM     24  C   UNL     1      45.095   9.572  12.147  0.00  0.00    +0.000 C 
ATOM     25  C   UNL     1      44.134   9.744  10.958  0.00  0.00    +0.000 C 
ATOM     26  O   UNL     1      44.420  11.167  10.889  0.00  0.00    +0.000 OA
ATOM     27  C   UNL     1      45.579  10.975  11.740  0.00  0.00    +0.000 C 
ENDBRANCH  22  24
ENDBRANCH  20  22
ENDBRANCH  15  16
ENDBRANCH   1  15
TORSDOF 7
ENDMDL
MODEL 3
REMARK VINA RESULT:    -7.345      3.551      5.021
REMARK INTER + INTRA:         -11.181
REMARK INTER:                 -10.474
REMARK INTRA:                  -0.707
REMARK UNBOUND:                -0.830
REMARK  Name = 
REMARK  7 active torsions:
REMARK  status: ('A' for Active; 'I' for Inactive)
REMARK    1  A    between atoms: C_2  and  C_4
REMARK    2  A    between atoms: C_7  and  N_8
REMARK    3  A    between atoms: N_8  and  C_9
REMARK    4  A    between atoms: C_9  and  C_10
REMARK    5  A    between atoms: C_10  and  C_11
REMARK    6  A    between atoms: C_15  and  N_16
REMARK    7  A    between atoms: N_16  and  C_17
REMARK                            x       y       z     vdW  Elec       q    Type
REMARK                         _______ _______ _______ _____ _____    ______ ____
ROOT
ATOM      1  C   UNL     1      43.835   5.208  11.226  0.00  0.00    +0.000 C 
ENDROOT
BRANCH   1   2
ATOM      2  N   UNL     1      43.830   4.969   9.785  0.00  0.00    +0.000 N 
ATOM      3  H   UNL     1      42.909   4.942   9.353  0.00  0.00    +0.000 HD
BRANCH   2   7
ATOM      4  C   UNL     1      46.299   2.061   7.972  0.00  0.00    +0.000 A 
ATOM      5  C   UNL     1      46.516   3.414   7.700  0.00  0.00    +0.000 A 
ATOM      6  C   UNL     1      45.718   4.388   8.311  0.00  0.00    +0.000 A 
ATOM      7  C   UNL     1      44.711   4.045   9.223  0.00  0.00    +0.000 A 
ATOM      8  C   UNL     1      44.500   2.681   9.474  0.00  0.00    +0.000 A 
ATOM      9  C   UNL     1      45.280   1.697   8.854  0.00  0.00    +0.000 A 
BRANCH   4  11
ATOM     10  N   UNL     1      47.913   1.372   6.280  0.00  0.00    +0.000 N 
ATOM     11  C   UNL     1      47.087   0.994   7.302  0.00  0.00    +0.000 C 
ATOM     12  O   UNL     1      47.026  -0.173   7.663  0.00  0.00    +0.000 OA
ATOM     13  H   UNL     1      48.507   0.648   5.894  0.00  0.00    +0.000 HD
ATOM     14  H   UNL     1      48.179   2.332   6.123  0.00  0.00    +0.000 HD
ENDBRANCH   4  11
ENDBRANCH   2   7
ENDBRANCH   1   2
BRANCH   1  15
ATOM     15  C   UNL     1      45.266   5.201  11.772  0.00  0.00    +0.000 C 
BRANCH  15  16
ATOM     16  C   UNL     1      45.816   6.601  11.905  0.00  0.00    +0.000 A 
ATOM     17  C   UNL     1      47.191   6.840  11.866  0.00  0.00    +0.000 A 
ATOM     18  C   UNL     1      47.681   8.138  12.015  0.00  0.00    +0.000 A 
ATOM     19  C   UNL     1      46.801   9.209  12.209  0.00  0.00    +0.000 A 
ATOM     20  C   UNL     1      45.422   8.997  12.211  0.00  0.00    +0.000 A 
ATOM     21  C   UNL     1      44.942   7.689  12.052  0.00  0.00    +0.000 A 
BRANCH  20  22
ATOM     22  N   UNL     1      44.479  10.024  12.412  0.00  0.00    +0.000 N 
ATOM     23  H   UNL     1      43.778   9.728  13.089  0.00  0.00    +0.000 HD
BRANCH  22  24
ATOM     24  C   UNL     1      43.977  10.937  11.425  0.00  0.00    +0.000 C 
ATOM     25  C   UNL     1      42.445  10.931  11.285  0.00  0.00    +0.000 C 
ATOM     26  O   UNL     1      42.542  10.679   9.857  0.00  0.00    +0.000 OA
ATOM     27  C   UNL     1      43.938  10.318  10.016  0.00  0.00    +0.000 C 
ENDBRANCH  22  24
ENDBRANCH  20  22
ENDBRANCH  15  16
ENDBRANCH   1  15
TORSDOF 7
ENDMDL
MODEL 4
REMARK VINA RESULT:    -6.747      1.884      2.530
REMARK INTER + INTRA:         -10.338
REMARK INTER:                  -9.920
REMARK INTRA:                  -0.418
REMARK UNBOUND:                -0.830
REMARK  Name = 
REMARK  7 active torsions:
REMARK  status: ('A' for Active; 'I' for Inactive)
REMARK    1  A    between atoms: C_2  and  C_4
REMARK    2  A    between atoms: C_7  and  N_8
REMARK    3  A    between atoms: N_8  and  C_9
REMARK    4  A    between atoms: C_9  and  C_10
REMARK    5  A    between atoms: C_10  and  C_11
REMARK    6  A    between atoms: C_15  and  N_16
REMARK    7  A    between atoms: N_16  and  C_17
REMARK                            x       y       z     vdW  Elec       q    Type
REMARK                         _______ _______ _______ _____ _____    ______ ____
ROOT
ATOM      1  C   UNL     1      44.081   5.248  11.296  0.00  0.00    +0.000 C 
ENDROOT
BRANCH   1   2
ATOM      2  N   UNL     1      44.034   5.125   9.841  0.00  0.00    +0.000 N 
ATOM      3  H   UNL     1      43.142   5.365   9.414  0.00  0.00    +0.000 HD
BRANCH   2   7
ATOM      4  C   UNL     1      46.149   1.962   8.007  0.00  0.00    +0.000 A 
ATOM      5  C   UNL     1      45.166   1.674   8.956  0.00  0.00    +0.000 A 
ATOM      6  C   UNL     1      44.444   2.712   9.556  0.00  0.00    +0.000 A 
ATOM      7  C   UNL     1      44.659   4.052   9.207  0.00  0.00    +0.000 A 
ATOM      8  C   UNL     1      45.659   4.323   8.262  0.00  0.00    +0.000 A 
ATOM      9  C   UNL     1      46.401   3.294   7.669  0.00  0.00    +0.000 A 
BRANCH   4  11
ATOM     10  N   UNL     1      47.888   1.274   6.444  0.00  0.00    +0.000 N 
ATOM     11  C   UNL     1      46.975   0.894   7.389  0.00  0.00    +0.000 C 
ATOM     12  O   UNL     1      46.870  -0.278   7.726  0.00  0.00    +0.000 OA
ATOM     13  H   UNL     1      48.502   0.548   6.098  0.00  0.00    +0.000 HD
ATOM     14  H   UNL     1      48.177   2.233   6.323  0.00  0.00    +0.000 HD
ENDBRANCH   4  11
ENDBRANCH   2   7
ENDBRANCH   1   2
BRANCH   1  15
ATOM     15  C   UNL     1      45.502   5.008  11.816  0.00  0.00    +0.000 C 
BRANCH  15  16
ATOM     16  C   UNL     1      46.078   6.252  12.448  0.00  0.00    +0.000 A 
ATOM     17  C   UNL     1      45.338   7.435  12.513  0.00  0.00    +0.000 A 
ATOM     18  C   UNL     1      45.897   8.581  13.079  0.00  0.00    +0.000 A 
ATOM     19  C   UNL     1      47.203   8.558  13.582  0.00  0.00    +0.000 A 
ATOM     20  C   UNL     1      47.945   7.376  13.563  0.00  0.00    +0.000 A 
ATOM     21  C   UNL     1      47.368   6.229  12.998  0.00  0.00    +0.000 A 
BRANCH  20  22
ATOM     22  N   UNL     1      49.266   7.282  14.040  0.00  0.00    +0.000 N 
ATOM     23  H   UNL     1      49.842   6.764  13.377  0.00  0.00    +0.000 HD
BRANCH  22  24
ATOM     24  C   UNL     1      49.680   7.126  15.406  0.00  0.00    +0.000 C 
ATOM     25  C   UNL     1      48.761   6.218  16.241  0.00  0.00    +0.000 C 
ATOM     26  O   UNL     1      48.585   7.259  17.240  0.00  0.00    +0.000 OA
ATOM     27  C   UNL     1      49.128   8.237  16.318  0.00  0.00    +0.000 C 
ENDBRANCH  22  24
ENDBRANCH  20  22
ENDBRANCH  15  16
ENDBRANCH   1  15
TORSDOF 7
ENDMDL
MODEL 5
REMARK VINA RESULT:    -6.678      3.136      3.911
REMARK INTER + INTRA:         -10.241
REMARK INTER:                  -9.483
REMARK INTRA:                  -0.758
REMARK UNBOUND:                -0.830
REMARK  Name = 
REMARK  7 active torsions:
REMARK  status: ('A' for Active; 'I' for Inactive)
REMARK    1  A    between atoms: C_2  and  C_4
REMARK    2  A    between atoms: C_7  and  N_8
REMARK    3  A    between atoms: N_8  and  C_9
REMARK    4  A    between atoms: C_9  and  C_10
REMARK    5  A    between atoms: C_10  and  C_11
REMARK    6  A    between atoms: C_15  and  N_16
REMARK    7  A    between atoms: N_16  and  C_17
REMARK                            x       y       z     vdW  Elec       q    Type
REMARK                         _______ _______ _______ _____ _____    ______ ____
ROOT
ATOM      1  C   UNL     1      43.938   4.789  11.445  0.00  0.00    +0.000 C 
ENDROOT
BRANCH   1   2
ATOM      2  N   UNL     1      43.802   4.789   9.990  0.00  0.00    +0.000 N 
ATOM      3  H   UNL     1      42.845   4.796   9.644  0.00  0.00    +0.000 HD
BRANCH   2   7
ATOM      4  C   UNL     1      46.564   2.535   7.725  0.00  0.00    +0.000 A 
ATOM      5  C   UNL     1      45.667   1.877   8.569  0.00  0.00    +0.000 A 
ATOM      6  C   UNL     1      44.733   2.612   9.309  0.00  0.00    +0.000 A 
ATOM      7  C   UNL     1      44.649   4.006   9.206  0.00  0.00    +0.000 A 
ATOM      8  C   UNL     1      45.567   4.651   8.364  0.00  0.00    +0.000 A 
ATOM      9  C   UNL     1      46.518   3.928   7.633  0.00  0.00    +0.000 A 
BRANCH   4  11
ATOM     10  N   UNL     1      48.498   2.539   6.242  0.00  0.00    +0.000 N 
ATOM     11  C   UNL     1      47.607   1.797   6.966  0.00  0.00    +0.000 C 
ATOM     12  O   UNL     1      47.688   0.577   7.004  0.00  0.00    +0.000 OA
ATOM     13  H   UNL     1      49.254   2.028   5.804  0.00  0.00    +0.000 HD
ATOM     14  H   UNL     1      48.621   3.531   6.384  0.00  0.00    +0.000 HD
ENDBRANCH   4  11
ENDBRANCH   2   7
ENDBRANCH   1   2
BRANCH   1  15
ATOM     15  C   UNL     1      45.414   4.822  11.852  0.00  0.00    +0.000 C 
BRANCH  15  16
ATOM     16  C   UNL     1      45.897   6.236  12.068  0.00  0.00    +0.000 A 
ATOM     17  C   UNL     1      45.042   7.220  12.569  0.00  0.00    +0.000 A 
ATOM     18  C   UNL     1      45.501   8.527  12.738  0.00  0.00    +0.000 A 
ATOM     19  C   UNL     1      46.817   8.864  12.405  0.00  0.00    +0.000 A 
ATOM     20  C   UNL     1      47.699   7.888  11.940  0.00  0.00    +0.000 A 
ATOM     21  C   UNL     1      47.228   6.576  11.782  0.00  0.00    +0.000 A 
BRANCH  20  22
ATOM     22  N   UNL     1      49.032   8.156  11.574  0.00  0.00    +0.000 N 
ATOM     23  H   UNL     1      49.258   7.685  10.700  0.00  0.00    +0.000 HD
BRANCH  22  24
ATOM     24  C   UNL     1      50.155   8.300  12.457  0.00  0.00    +0.000 C 
ATOM     25  C   UNL     1      50.455   9.754  12.861  0.00  0.00    +0.000 C 
ATOM     26  O   UNL     1      51.831   9.631  12.410  0.00  0.00    +0.000 OA
ATOM     27  C   UNL     1      51.489   8.414  11.698  0.00  0.00    +0.000 C 
ENDBRANCH  22  24
ENDBRANCH  20  22
ENDBRANCH  15  16
ENDBRANCH   1  15
TORSDOF 7
ENDMDL
MODEL 6
REMARK VINA RESULT:    -6.635      2.259      2.936
REMARK INTER + INTRA:         -10.179
REMARK INTER:                  -9.502
REMARK INTRA:                  -0.678
REMARK UNBOUND:                -0.830
REMARK  Name = 
REMARK  7 active torsions:
REMARK  status: ('A' for Active; 'I' for Inactive)
REMARK    1  A    between atoms: C_2  and  C_4
REMARK    2  A    between atoms: C_7  and  N_8
REMARK    3  A    between atoms: N_8  and  C_9
REMARK    4  A    between atoms: C_9  and  C_10
REMARK    5  A    between atoms: C_10  and  C_11
REMARK    6  A    between atoms: C_15  and  N_16
REMARK    7  A    between atoms: N_16  and  C_17
REMARK                            x       y       z     vdW  Elec       q    Type
REMARK                         _______ _______ _______ _____ _____    ______ ____
ROOT
ATOM      1  C   UNL     1      43.920   5.253  11.203  0.00  0.00    +0.000 C 
ENDROOT
BRANCH   1   2
ATOM      2  N   UNL     1      43.704   4.760   9.846  0.00  0.00    +0.000 N 
ATOM      3  H   UNL     1      42.779   4.374   9.667  0.00  0.00    +0.000 HD
BRANCH   2   7
ATOM      4  C   UNL     1      46.576   2.509   7.720  0.00  0.00    +0.000 A 
ATOM      5  C   UNL     1      46.573   3.900   7.608  0.00  0.00    +0.000 A 
ATOM      6  C   UNL     1      45.639   4.659   8.324  0.00  0.00    +0.000 A 
ATOM      7  C   UNL     1      44.712   4.058   9.185  0.00  0.00    +0.000 A 
ATOM      8  C   UNL     1      44.722   2.658   9.274  0.00  0.00    +0.000 A 
ATOM      9  C   UNL     1      45.639   1.888   8.549  0.00  0.00    +0.000 A 
BRANCH   4  11
ATOM     10  N   UNL     1      48.539   2.297   6.291  0.00  0.00    +0.000 N 
ATOM     11  C   UNL     1      47.513   1.664   6.934  0.00  0.00    +0.000 C 
ATOM     12  O   UNL     1      47.394   0.447   6.884  0.00  0.00    +0.000 OA
ATOM     13  H   UNL     1      49.218   1.700   5.835  0.00  0.00    +0.000 HD
ATOM     14  H   UNL     1      48.816   3.243   6.508  0.00  0.00    +0.000 HD
ENDBRANCH   4  11
ENDBRANCH   2   7
ENDBRANCH   1   2
BRANCH   1  15
ATOM     15  C   UNL     1      45.105   6.223  11.246  0.00  0.00    +0.000 C 
BRANCH  15  16
ATOM     16  C   UNL     1      46.034   5.912  12.396  0.00  0.00    +0.000 A 
ATOM     17  C   UNL     1      45.768   4.856  13.270  0.00  0.00    +0.000 A 
ATOM     18  C   UNL     1      46.624   4.601  14.341  0.00  0.00    +0.000 A 
ATOM     19  C   UNL     1      47.753   5.401  14.552  0.00  0.00    +0.000 A 
ATOM     20  C   UNL     1      48.058   6.436  13.668  0.00  0.00    +0.000 A 
ATOM     21  C   UNL     1      47.193   6.678  12.591  0.00  0.00    +0.000 A 
BRANCH  20  22
ATOM     22  N   UNL     1      49.168   7.289  13.824  0.00  0.00    +0.000 N 
ATOM     23  H   UNL     1      49.883   6.833  14.388  0.00  0.00    +0.000 HD
BRANCH  22  24
ATOM     24  C   UNL     1      49.144   8.717  13.969  0.00  0.00    +0.000 C 
ATOM     25  C   UNL     1      50.380   9.298  14.676  0.00  0.00    +0.000 C 
ATOM     26  O   UNL     1      49.545   9.975  15.653  0.00  0.00    +0.000 OA
ATOM     27  C   UNL     1      48.412   9.166  15.247  0.00  0.00    +0.000 C 
ENDBRANCH  22  24
ENDBRANCH  20  22
ENDBRANCH  15  16
ENDBRANCH   1  15
TORSDOF 7
ENDMDL
MODEL 7
REMARK VINA RESULT:    -6.539      2.181      8.171
REMARK INTER + INTRA:         -10.044
REMARK INTER:                  -9.529
REMARK INTRA:                  -0.515
REMARK UNBOUND:                -0.830
REMARK  Name = 
REMARK  7 active torsions:
REMARK  status: ('A' for Active; 'I' for Inactive)
REMARK    1  A    between atoms: C_2  and  C_4
REMARK    2  A    between atoms: C_7  and  N_8
REMARK    3  A    between atoms: N_8  and  C_9
REMARK    4  A    between atoms: C_9  and  C_10
REMARK    5  A    between atoms: C_10  and  C_11
REMARK    6  A    between atoms: C_15  and  N_16
REMARK    7  A    between atoms: N_16  and  C_17
REMARK                            x       y       z     vdW  Elec       q    Type
REMARK                         _______ _______ _______ _____ _____    ______ ____
ROOT
ATOM      1  C   UNL     1      46.602   4.310  14.488  0.00  0.00    +0.000 C 
ENDROOT
BRANCH   1   2
ATOM      2  N   UNL     1      46.982   4.639  15.859  0.00  0.00    +0.000 N 
ATOM      3  H   UNL     1      46.883   5.620  16.113  0.00  0.00    +0.000 HD
BRANCH   2   7
ATOM      4  C   UNL     1      50.449   2.766  17.378  0.00  0.00    +0.000 A 
ATOM      5  C   UNL     1      50.293   4.145  17.525  0.00  0.00    +0.000 A 
ATOM      6  C   UNL     1      49.139   4.775  17.044  0.00  0.00    +0.000 A 
ATOM      7  C   UNL     1      48.106   4.049  16.437  0.00  0.00    +0.000 A 
ATOM      8  C   UNL     1      48.287   2.666  16.287  0.00  0.00    +0.000 A 
ATOM      9  C   UNL     1      49.445   2.028  16.747  0.00  0.00    +0.000 A 
BRANCH   4  11
ATOM     10  N   UNL     1      51.798   0.740  17.518  0.00  0.00    +0.000 N 
ATOM     11  C   UNL     1      51.683   2.067  17.824  0.00  0.00    +0.000 C 
ATOM     12  O   UNL     1      52.577   2.656  18.416  0.00  0.00    +0.000 OA
ATOM     13  H   UNL     1      52.681   0.302  17.750  0.00  0.00    +0.000 HD
ATOM     14  H   UNL     1      51.217   0.289  16.828  0.00  0.00    +0.000 HD
ENDBRANCH   4  11
ENDBRANCH   2   7
ENDBRANCH   1   2
BRANCH   1  15
ATOM     15  C   UNL     1      46.369   5.584  13.669  0.00  0.00    +0.000 C 
BRANCH  15  16
ATOM     16  C   UNL     1      45.300   5.382  12.622  0.00  0.00    +0.000 A 
ATOM     17  C   UNL     1      43.946   5.388  12.965  0.00  0.00    +0.000 A 
ATOM     18  C   UNL     1      42.975   5.175  11.988  0.00  0.00    +0.000 A 
ATOM     19  C   UNL     1      43.345   4.949  10.658  0.00  0.00    +0.000 A 
ATOM     20  C   UNL     1      44.690   4.978  10.286  0.00  0.00    +0.000 A 
ATOM     21  C   UNL     1      45.657   5.201  11.277  0.00  0.00    +0.000 A 
BRANCH  20  22
ATOM     22  N   UNL     1      45.137   4.747   8.971  0.00  0.00    +0.000 N 
ATOM     23  H   UNL     1      45.049   5.597   8.416  0.00  0.00    +0.000 HD
BRANCH  22  24
ATOM     24  C   UNL     1      44.980   3.542   8.207  0.00  0.00    +0.000 C 
ATOM     25  C   UNL     1      45.375   2.262   8.964  0.00  0.00    +0.000 C 
ATOM     26  O   UNL     1      46.292   1.878   7.903  0.00  0.00    +0.000 OA
ATOM     27  C   UNL     1      46.221   3.219   7.356  0.00  0.00    +0.000 C 
ENDBRANCH  22  24
ENDBRANCH  20  22
ENDBRANCH  15  16
ENDBRANCH   1  15
TORSDOF 7
ENDMDL
MODEL 8
REMARK VINA RESULT:    -6.258      2.979      5.374
REMARK INTER + INTRA:          -9.648
REMARK INTER:                  -8.950
REMARK INTRA:                  -0.698
REMARK UNBOUND:                -0.830
REMARK  Name = 
REMARK  7 active torsions:
REMARK  status: ('A' for Active; 'I' for Inactive)
REMARK    1  A    between atoms: C_2  and  C_4
REMARK    2  A    between atoms: C_7  and  N_8
REMARK    3  A    between atoms: N_8  and  C_9
REMARK    4  A    between atoms: C_9  and  C_10
REMARK    5  A    between atoms: C_10  and  C_11
REMARK    6  A    between atoms: C_15  and  N_16
REMARK    7  A    between atoms: N_16  and  C_17
REMARK                            x       y       z     vdW  Elec       q    Type
REMARK                         _______ _______ _______ _____ _____    ______ ____
ROOT
ATOM      1  C   UNL     1      48.532   6.617  14.380  0.00  0.00    +0.000 C 
ENDROOT
BRANCH   1   2
ATOM      2  N   UNL     1      47.168   6.976  13.999  0.00  0.00    +0.000 N 
ATOM      3  H   UNL     1      46.558   7.240  14.770  0.00  0.00    +0.000 HD
BRANCH   2   7
ATOM      4  C   UNL     1      44.941   4.773  11.166  0.00  0.00    +0.000 A 
ATOM      5  C   UNL     1      45.459   6.021  10.814  0.00  0.00    +0.000 A 
ATOM      6  C   UNL     1      46.216   6.752  11.737  0.00  0.00    +0.000 A 
ATOM      7  C   UNL     1      46.500   6.249  13.013  0.00  0.00    +0.000 A 
ATOM      8  C   UNL     1      45.960   5.000  13.354  0.00  0.00    +0.000 A 
ATOM      9  C   UNL     1      45.185   4.268  12.445  0.00  0.00    +0.000 A 
BRANCH   4  11
ATOM     10  N   UNL     1      44.019   4.417   8.937  0.00  0.00    +0.000 N 
ATOM     11  C   UNL     1      44.085   3.992  10.235  0.00  0.00    +0.000 C 
ATOM     12  O   UNL     1      43.484   2.991  10.601  0.00  0.00    +0.000 OA
ATOM     13  H   UNL     1      43.504   3.824   8.298  0.00  0.00    +0.000 HD
ATOM     14  H   UNL     1      44.681   5.069   8.545  0.00  0.00    +0.000 HD
ENDBRANCH   4  11
ENDBRANCH   2   7
ENDBRANCH   1   2
BRANCH   1  15
ATOM     15  C   UNL     1      48.728   6.758  15.892  0.00  0.00    +0.000 C 
BRANCH  15  16
ATOM     16  C   UNL     1      48.718   5.415  16.581  0.00  0.00    +0.000 A 
ATOM     17  C   UNL     1      47.548   4.656  16.661  0.00  0.00    +0.000 A 
ATOM     18  C   UNL     1      47.554   3.428  17.323  0.00  0.00    +0.000 A 
ATOM     19  C   UNL     1      48.726   2.948  17.916  0.00  0.00    +0.000 A 
ATOM     20  C   UNL     1      49.916   3.671  17.813  0.00  0.00    +0.000 A 
ATOM     21  C   UNL     1      49.899   4.900  17.138  0.00  0.00    +0.000 A 
BRANCH  20  22
ATOM     22  N   UNL     1      51.130   3.256  18.393  0.00  0.00    +0.000 N 
ATOM     23  H   UNL     1      51.452   3.950  19.065  0.00  0.00    +0.000 HD
BRANCH  22  24
ATOM     24  C   UNL     1      52.194   2.543  17.746  0.00  0.00    +0.000 C 
ATOM     25  C   UNL     1      52.012   1.016  17.734  0.00  0.00    +0.000 C 
ATOM     26  O   UNL     1      53.316   0.822  18.347  0.00  0.00    +0.000 OA
ATOM     27  C   UNL     1      53.358   2.227  18.702  0.00  0.00    +0.000 C 
ENDBRANCH  22  24
ENDBRANCH  20  22
ENDBRANCH  15  16
ENDBRANCH   1  15
TORSDOF 7
ENDMDL
MODEL 9
REMARK VINA RESULT:    -6.179      2.763      5.009
REMARK INTER + INTRA:          -9.537
REMARK INTER:                  -9.141
REMARK INTRA:                  -0.396
REMARK UNBOUND:                -0.830
REMARK  Name = 
REMARK  7 active torsions:
REMARK  status: ('A' for Active; 'I' for Inactive)
REMARK    1  A    between atoms: C_2  and  C_4
REMARK    2  A    between atoms: C_7  and  N_8
REMARK    3  A    between atoms: N_8  and  C_9
REMARK    4  A    between atoms: C_9  and  C_10
REMARK    5  A    between atoms: C_10  and  C_11
REMARK    6  A    between atoms: C_15  and  N_16
REMARK    7  A    between atoms: N_16  and  C_17
REMARK                            x       y       z     vdW  Elec       q    Type
REMARK                         _______ _______ _______ _____ _____    ______ ____
ROOT
ATOM      1  C   UNL     1      48.597   7.222  13.840  0.00  0.00    +0.000 C 
ENDROOT
BRANCH   1   2
ATOM      2  N   UNL     1      47.176   6.909  13.963  0.00  0.00    +0.000 N 
ATOM      3  H   UNL     1      46.868   6.653  14.899  0.00  0.00    +0.000 HD
BRANCH   2   7
ATOM      4  C   UNL     1      45.012   4.688  11.096  0.00  0.00    +0.000 A 
ATOM      5  C   UNL     1      45.551   5.926  10.743  0.00  0.00    +0.000 A 
ATOM      6  C   UNL     1      46.288   6.663  11.678  0.00  0.00    +0.000 A 
ATOM      7  C   UNL     1      46.530   6.174  12.968  0.00  0.00    +0.000 A 
ATOM      8  C   UNL     1      45.970   4.935  13.309  0.00  0.00    +0.000 A 
ATOM      9  C   UNL     1      45.215   4.198  12.388  0.00  0.00    +0.000 A 
BRANCH   4  11
ATOM     10  N   UNL     1      44.052   4.379   8.876  0.00  0.00    +0.000 N 
ATOM     11  C   UNL     1      44.177   3.901  10.151  0.00  0.00    +0.000 C 
ATOM     12  O   UNL     1      43.643   2.852  10.485  0.00  0.00    +0.000 OA
ATOM     13  H   UNL     1      43.555   3.787   8.223  0.00  0.00    +0.000 HD
ATOM     14  H   UNL     1      44.667   5.084   8.498  0.00  0.00    +0.000 HD
ENDBRANCH   4  11
ENDBRANCH   2   7
ENDBRANCH   1   2
BRANCH   1  15
ATOM     15  C   UNL     1      49.115   7.902  15.111  0.00  0.00    +0.000 C 
BRANCH  15  16
ATOM     16  C   UNL     1      49.955   6.961  15.941  0.00  0.00    +0.000 A 
ATOM     17  C   UNL     1      51.349   7.037  15.926  0.00  0.00    +0.000 A 
ATOM     18  C   UNL     1      52.108   6.142  16.680  0.00  0.00    +0.000 A 
ATOM     19  C   UNL     1      51.483   5.159  17.453  0.00  0.00    +0.000 A 
ATOM     20  C   UNL     1      50.090   5.090  17.514  0.00  0.00    +0.000 A 
ATOM     21  C   UNL     1      49.338   6.000  16.757  0.00  0.00    +0.000 A 
BRANCH  20  22
ATOM     22  N   UNL     1      49.392   4.121  18.260  0.00  0.00    +0.000 N 
ATOM     23  H   UNL     1      49.615   4.213  19.249  0.00  0.00    +0.000 HD
BRANCH  22  24
ATOM     24  C   UNL     1      49.096   2.774  17.859  0.00  0.00    +0.000 C 
ATOM     25  C   UNL     1      50.234   2.084  17.088  0.00  0.00    +0.000 C 
ATOM     26  O   UNL     1      49.341   1.769  15.985  0.00  0.00    +0.000 OA
ATOM     27  C   UNL     1      48.368   2.710  16.505  0.00  0.00    +0.000 C 
ENDBRANCH  22  24
ENDBRANCH  20  22
ENDBRANCH  15  16
ENDBRANCH   1  15
TORSDOF 7
ENDMDL
