MODEL 1
REMARK VINA RESULT:    -8.398      0.000      0.000
REMARK INTER + INTRA:         -12.043
REMARK INTER:                 -11.343
REMARK INTRA:                  -0.700
REMARK UNBOUND:                -0.700
REMARK  Name = 
REMARK  7 active torsions:
REMARK  status: ('A' for Active; 'I' for Inactive)
REMARK    1  A    between atoms: C_1  and  O_2
REMARK    2  A    between atoms: O_2  and  C_3
REMARK    3  A    between atoms: C_6  and  C_7
REMARK    4  A    between atoms: C_7  and  C_8
REMARK    5  A    between atoms: C_8  and  N_9
REMARK    6  A    between atoms: C_13  and  C_14
REMARK    7  A    between atoms: C_20  and  C_21
REMARK                            x       y       z     vdW  Elec       q    Type
REMARK                         _______ _______ _______ _____ _____    ______ ____
ROOT
ATOM      1  C   UNL     1      43.185   5.493  12.131  0.00  0.00    +0.000 C 
ENDROOT
BRANCH   1   5
ATOM      2  C   UNL     1      47.234   5.959  13.601  0.00  0.00    +0.000 A 
ATOM      3  C   UNL     1      46.515   4.782  13.849  0.00  0.00    +0.000 A 
ATOM      4  C   UNL     1      45.211   4.627  13.376  0.00  0.00    +0.000 A 
ATOM      5  C   UNL     1      44.583   5.663  12.683  0.00  0.00    +0.000 A 
ATOM      6  C   UNL     1      45.302   6.846  12.446  0.00  0.00    +0.000 A 
ATOM      7  C   UNL     1      46.643   7.016  12.865  0.00  0.00    +0.000 A 
BRANCH   7   8
ATOM      8  C   UNL     1      47.401   8.226  12.429  0.00  0.00    +0.000 A 
ATOM      9  C   UNL     1      48.696   8.157  11.886  0.00  0.00    +0.000 A 
ATOM     10  C   UNL     1      49.327   9.281  11.342  0.00  0.00    +0.000 A 
ATOM     11  C   UNL     1      48.695  10.520  11.375  0.00  0.00    +0.000 A 
ATOM     12  C   UNL     1      47.442  10.636  11.965  0.00  0.00    +0.000 A 
ATOM     13  C   UNL     1      46.803   9.502  12.479  0.00  0.00    +0.000 A 
ENDBRANCH   7   8
BRANCH   2  15
ATOM     14  C   UNL     1      48.658   6.388  15.478  0.00  0.00    +0.000 C 
ATOM     15  O   UNL     1      48.503   6.161  14.086  0.00  0.00    +0.000 OA
ENDBRANCH   2  15
ENDBRANCH   1   5
BRANCH   1  16
ATOM     16  C   UNL     1      43.179   4.532  10.937  0.00  0.00    +0.000 C 
BRANCH  16  17
ATOM     17  N   UNL     1      44.012   5.037   9.837  0.00  0.00    +0.000 N 
ATOM     18  C   UNL     1      44.779   4.019   9.235  0.00  0.00    +0.000 A 
ATOM     19  C   UNL     1      45.618   4.340   8.172  0.00  0.00    +0.000 A 
ATOM     20  C   UNL     1      46.358   3.328   7.549  0.00  0.00    +0.000 A 
ATOM     21  C   UNL     1      46.248   2.014   7.995  0.00  0.00    +0.000 A 
ATOM     22  C   UNL     1      45.391   1.783   9.057  0.00  0.00    +0.000 A 
ATOM     23  N   UNL     1      44.663   2.748   9.670  0.00  0.00    +0.000 NA
ATOM     24  H   UNL     1      44.638   5.781  10.132  0.00  0.00    +0.000 HD
BRANCH  21  25
ATOM     25  C   UNL     1      47.028   0.938   7.337  0.00  0.00    +0.000 C 
ATOM     26  N   UNL     1      47.851   1.253   6.293  0.00  0.00    +0.000 N 
ATOM     27  O   UNL     1      46.941  -0.226   7.720  0.00  0.00    +0.000 OA
ATOM     28  H   UNL     1      47.999   2.171   5.906  0.00  0.00    +0.000 HD
ATOM     29  H   UNL     1      48.368   0.487   5.877  0.00  0.00    +0.000 HD
ENDBRANCH  21  25
ENDBRANCH  16  17
ENDBRANCH   1  16
TORSDOF 6
ENDMDL
MODEL 2
REMARK VINA RESULT:    -8.234      1.763      4.000
REMARK INTER + INTRA:         -11.822
REMARK INTER:                 -10.726
REMARK INTRA:                  -1.096
REMARK UNBOUND:                -0.700
REMARK  Name = 
REMARK  7 active torsions:
REMARK  status: ('A' for Active; 'I' for Inactive)
REMARK    1  A    between atoms: C_1  and  O_2
REMARK    2  A    between atoms: O_2  and  C_3
REMARK    3  A    between atoms: C_6  and  C_7
REMARK    4  A    between atoms: C_7  and  C_8
REMARK    5  A    between atoms: C_8  and  N_9
REMARK    6  A    between atoms: C_13  and  C_14
REMARK    7  A    between atoms: C_20  and  C_21
REMARK                            x       y       z     vdW  Elec       q    Type
REMARK                         _______ _______ _______ _____ _____    ______ ____
ROOT
ATOM      1  C   UNL     1      43.480   5.402  12.285  0.00  0.00    +0.000 C 
ENDROOT
BRANCH   1   5
ATOM      2  C   UNL     1      47.656   6.059  13.238  0.00  0.00    +0.000 A 
ATOM      3  C   UNL     1      47.057   6.721  12.157  0.00  0.00    +0.000 A 
ATOM      4  C   UNL     1      45.711   6.513  11.848  0.00  0.00    +0.000 A 
ATOM      5  C   UNL     1      44.948   5.606  12.585  0.00  0.00    +0.000 A 
ATOM      6  C   UNL     1      45.554   4.936  13.660  0.00  0.00    +0.000 A 
ATOM      7  C   UNL     1      46.900   5.162  14.034  0.00  0.00    +0.000 A 
BRANCH   7   8
ATOM      8  C   UNL     1      47.428   4.549  15.289  0.00  0.00    +0.000 A 
ATOM      9  C   UNL     1      47.579   5.274  16.484  0.00  0.00    +0.000 A 
ATOM     10  C   UNL     1      47.927   4.647  17.686  0.00  0.00    +0.000 A 
ATOM     11  C   UNL     1      48.183   3.280  17.711  0.00  0.00    +0.000 A 
ATOM     12  C   UNL     1      48.108   2.546  16.533  0.00  0.00    +0.000 A 
ATOM     13  C   UNL     1      47.729   3.173  15.341  0.00  0.00    +0.000 A 
ENDBRANCH   7   8
BRANCH   2  15
ATOM     14  C   UNL     1      49.533   7.517  13.525  0.00  0.00    +0.000 C 
ATOM     15  O   UNL     1      48.986   6.208  13.544  0.00  0.00    +0.000 OA
ENDBRANCH   2  15
ENDBRANCH   1   5
BRANCH   1  16
ATOM     16  C   UNL     1      43.274   4.944  10.837  0.00  0.00    +0.000 C 
BRANCH  16  17
ATOM     17  N   UNL     1      43.590   3.518  10.675  0.00  0.00    +0.000 N 
ATOM     18  C   UNL     1      44.524   3.290   9.643  0.00  0.00    +0.000 A 
ATOM     19  C   UNL     1      44.928   1.987   9.369  0.00  0.00    +0.000 A 
ATOM     20  C   UNL     1      45.879   1.758   8.368  0.00  0.00    +0.000 A 
ATOM     21  C   UNL     1      46.410   2.830   7.658  0.00  0.00    +0.000 A 
ATOM     22  C   UNL     1      45.953   4.092   7.994  0.00  0.00    +0.000 A 
ATOM     23  N   UNL     1      45.037   4.335   8.963  0.00  0.00    +0.000 NA
ATOM     24  H   UNL     1      42.764   2.954  10.493  0.00  0.00    +0.000 HD
BRANCH  21  25
ATOM     25  C   UNL     1      47.419   2.592   6.597  0.00  0.00    +0.000 C 
ATOM     26  N   UNL     1      47.322   3.275   5.418  0.00  0.00    +0.000 N 
ATOM     27  O   UNL     1      48.335   1.791   6.769  0.00  0.00    +0.000 OA
ATOM     28  H   UNL     1      46.618   3.953   5.178  0.00  0.00    +0.000 HD
ATOM     29  H   UNL     1      48.036   3.084   4.724  0.00  0.00    +0.000 HD
ENDBRANCH  21  25
ENDBRANCH  16  17
ENDBRANCH   1  16
TORSDOF 6
ENDMDL
MODEL 3
REMARK VINA RESULT:    -7.406      3.462      7.432
REMARK INTER + INTRA:         -10.703
REMARK INTER:                  -9.801
REMARK INTRA:                  -0.902
REMARK UNBOUND:                -0.700
REMARK  Name = 
REMARK  7 active torsions:
REMARK  status: ('A' for Active; 'I' for Inactive)
REMARK    1  A    between atoms: C_1  and  O_2
REMARK    2  A    between atoms: O_2  and  C_3
REMARK    3  A    between atoms: C_6  and  C_7
REMARK    4  A    between atoms: C_7  and  C_8
REMARK    5  A    between atoms: C_8  and  N_9
REMARK    6  A    between atoms: C_13  and  C_14
REMARK    7  A    between atoms: C_20  and  C_21
REMARK                            x       y       z     vdW  Elec       q    Type
REMARK                         _______ _______ _______ _____ _____    ______ ____
ROOT
ATOM      1  C   UNL     1      48.250   8.318  12.008  0.00  0.00    +0.000 C 
ENDROOT
BRANCH   1   5
ATOM      2  C   UNL     1      44.342   6.597  11.270  0.00  0.00    +0.000 A 
ATOM      3  C   UNL     1      44.472   7.792  11.991  0.00  0.00    +0.000 A 
ATOM      4  C   UNL     1      45.730   8.351  12.229  0.00  0.00    +0.000 A 
ATOM      5  C   UNL     1      46.885   7.703  11.790  0.00  0.00    +0.000 A 
ATOM      6  C   UNL     1      46.753   6.500  11.079  0.00  0.00    +0.000 A 
ATOM      7  C   UNL     1      45.492   5.934  10.774  0.00  0.00    +0.000 A 
BRANCH   7   8
ATOM      8  C   UNL     1      45.418   4.750   9.867  0.00  0.00    +0.000 A 
ATOM      9  C   UNL     1      45.862   4.784   8.534  0.00  0.00    +0.000 A 
ATOM     10  C   UNL     1      45.928   3.627   7.750  0.00  0.00    +0.000 A 
ATOM     11  C   UNL     1      45.501   2.408   8.268  0.00  0.00    +0.000 A 
ATOM     12  C   UNL     1      44.995   2.351   9.561  0.00  0.00    +0.000 A 
ATOM     13  C   UNL     1      44.961   3.506  10.350  0.00  0.00    +0.000 A 
ENDBRANCH   7   8
BRANCH   2  15
ATOM     14  C   UNL     1      42.476   5.386  12.156  0.00  0.00    +0.000 C 
ATOM     15  O   UNL     1      43.126   5.999  11.054  0.00  0.00    +0.000 OA
ENDBRANCH   2  15
ENDBRANCH   1   5
BRANCH   1  16
ATOM     16  C   UNL     1      49.244   7.277  12.536  0.00  0.00    +0.000 C 
BRANCH  16  17
ATOM     17  N   UNL     1      49.656   7.580  13.914  0.00  0.00    +0.000 N 
ATOM     18  C   UNL     1      49.063   6.711  14.854  0.00  0.00    +0.000 A 
ATOM     19  C   UNL     1      49.360   6.868  16.204  0.00  0.00    +0.000 A 
ATOM     20  C   UNL     1      48.801   5.989  17.139  0.00  0.00    +0.000 A 
ATOM     21  C   UNL     1      47.956   4.969  16.711  0.00  0.00    +0.000 A 
ATOM     22  C   UNL     1      47.714   4.885  15.351  0.00  0.00    +0.000 A 
ATOM     23  N   UNL     1      48.250   5.723  14.431  0.00  0.00    +0.000 NA
ATOM     24  H   UNL     1      49.447   8.537  14.183  0.00  0.00    +0.000 HD
BRANCH  21  25
ATOM     25  C   UNL     1      47.362   4.034  17.697  0.00  0.00    +0.000 C 
ATOM     26  N   UNL     1      47.695   4.155  19.017  0.00  0.00    +0.000 N 
ATOM     27  O   UNL     1      46.579   3.157  17.340  0.00  0.00    +0.000 OA
ATOM     28  H   UNL     1      48.319   4.838  19.414  0.00  0.00    +0.000 HD
ATOM     29  H   UNL     1      47.262   3.498  19.656  0.00  0.00    +0.000 HD
ENDBRANCH  21  25
ENDBRANCH  16  17
ENDBRANCH   1  16
TORSDOF 6
ENDMDL
MODEL 4
REMARK VINA RESULT:    -7.111      3.100      4.128
REMARK INTER + INTRA:         -10.305
REMARK INTER:                  -9.480
REMARK INTRA:                  -0.824
REMARK UNBOUND:                -0.700
REMARK  Name = 
REMARK  7 active torsions:
REMARK  status: ('A' for Active; 'I' for Inactive)
REMARK    1  A    between atoms: C_1  and  O_2
REMARK    2  A    between atoms: O_2  and  C_3
REMARK    3  A    between atoms: C_6  and  C_7
REMARK    4  A    between atoms: C_7  and  C_8
REMARK    5  A    between atoms: C_8  and  N_9
REMARK    6  A    between atoms: C_13  and  C_14
REMARK    7  A    between atoms: C_20  and  C_21
REMARK                            x       y       z     vdW  Elec       q    Type
REMARK                         _______ _______ _______ _____ _____    ______ ____
ROOT
ATOM      1  C   UNL     1      44.954   5.754  12.103  0.00  0.00    +0.000 C 
ENDROOT
BRANCH   1   5
ATOM      2  C   UNL     1      45.854   9.989  11.919  0.00  0.00    +0.000 A 
ATOM      3  C   UNL     1      46.774   9.086  12.468  0.00  0.00    +0.000 A 
ATOM      4  C   UNL     1      46.489   7.721  12.528  0.00  0.00    +0.000 A 
ATOM      5  C   UNL     1      45.260   7.236  12.080  0.00  0.00    +0.000 A 
ATOM      6  C   UNL     1      44.335   8.144  11.540  0.00  0.00    +0.000 A 
ATOM      7  C   UNL     1      44.612   9.526  11.416  0.00  0.00    +0.000 A 
BRANCH   7   8
ATOM      8  C   UNL     1      43.657  10.404  10.677  0.00  0.00    +0.000 A 
ATOM      9  C   UNL     1      43.779  10.672   9.303  0.00  0.00    +0.000 A 
ATOM     10  C   UNL     1      42.791  11.368   8.598  0.00  0.00    +0.000 A 
ATOM     11  C   UNL     1      41.674  11.861   9.265  0.00  0.00    +0.000 A 
ATOM     12  C   UNL     1      41.555  11.670  10.637  0.00  0.00    +0.000 A 
ATOM     13  C   UNL     1      42.531  10.946  11.330  0.00  0.00    +0.000 A 
ENDBRANCH   7   8
BRANCH   2  15
ATOM     14  C   UNL     1      47.036  11.833  10.952  0.00  0.00    +0.000 C 
ATOM     15  O   UNL     1      46.085  11.342  11.882  0.00  0.00    +0.000 OA
ENDBRANCH   2  15
ENDBRANCH   1   5
BRANCH   1  16
ATOM     16  C   UNL     1      44.168   5.336  10.856  0.00  0.00    +0.000 C 
BRANCH  16  17
ATOM     17  N   UNL     1      44.259   3.888  10.623  0.00  0.00    +0.000 N 
ATOM     18  C   UNL     1      45.013   3.576   9.473  0.00  0.00    +0.000 A 
ATOM     19  C   UNL     1      45.194   2.242   9.122  0.00  0.00    +0.000 A 
ATOM     20  C   UNL     1      45.968   1.924   8.000  0.00  0.00    +0.000 A 
ATOM     21  C   UNL     1      46.549   2.941   7.248  0.00  0.00    +0.000 A 
ATOM     22  C   UNL     1      46.318   4.240   7.668  0.00  0.00    +0.000 A 
ATOM     23  N   UNL     1      45.575   4.567   8.753  0.00  0.00    +0.000 NA
ATOM     24  H   UNL     1      43.347   3.448  10.540  0.00  0.00    +0.000 HD
BRANCH  21  25
ATOM     25  C   UNL     1      47.371   2.610   6.059  0.00  0.00    +0.000 C 
ATOM     26  N   UNL     1      48.726   2.495   6.196  0.00  0.00    +0.000 N 
ATOM     27  O   UNL     1      46.849   2.441   4.960  0.00  0.00    +0.000 OA
ATOM     28  H   UNL     1      49.251   2.608   7.048  0.00  0.00    +0.000 HD
ATOM     29  H   UNL     1      49.248   2.262   5.359  0.00  0.00    +0.000 HD
ENDBRANCH  21  25
ENDBRANCH  16  17
ENDBRANCH   1  16
TORSDOF 6
ENDMDL
MODEL 5
REMARK VINA RESULT:    -6.782      1.948      3.208
REMARK INTER + INTRA:          -9.861
REMARK INTER:                  -9.056
REMARK INTRA:                  -0.804
REMARK UNBOUND:                -0.700
REMARK  Name = 
REMARK  7 active torsions:
REMARK  status: ('A' for Active; 'I' for Inactive)
REMARK    1  A    between atoms: C_1  and  O_2
REMARK    2  A    between atoms: O_2  and  C_3
REMARK    3  A    between atoms: C_6  and  C_7
REMARK    4  A    between atoms: C_7  and  C_8
REMARK    5  A    between atoms: C_8  and  N_9
REMARK    6  A    between atoms: C_13  and  C_14
REMARK    7  A    between atoms: C_20  and  C_21
REMARK                            x       y       z     vdW  Elec       q    Type
REMARK                         _______ _______ _______ _____ _____    ______ ____
ROOT
ATOM      1  C   UNL     1      44.783   5.798  12.188  0.00  0.00    +0.000 C 
ENDROOT
BRANCH   1   5
ATOM      2  C   UNL     1      46.665   9.696  11.983  0.00  0.00    +0.000 A 
ATOM      3  C   UNL     1      45.276   9.565  11.848  0.00  0.00    +0.000 A 
ATOM      4  C   UNL     1      44.666   8.311  11.915  0.00  0.00    +0.000 A 
ATOM      5  C   UNL     1      45.436   7.158  12.075  0.00  0.00    +0.000 A 
ATOM      6  C   UNL     1      46.828   7.292  12.199  0.00  0.00    +0.000 A 
ATOM      7  C   UNL     1      47.474   8.550  12.189  0.00  0.00    +0.000 A 
BRANCH   7   8
ATOM      8  C   UNL     1      48.932   8.632  12.499  0.00  0.00    +0.000 A 
ATOM      9  C   UNL     1      49.421   8.882  13.792  0.00  0.00    +0.000 A 
ATOM     10  C   UNL     1      50.786   8.800  14.092  0.00  0.00    +0.000 A 
ATOM     11  C   UNL     1      51.705   8.514  13.087  0.00  0.00    +0.000 A 
ATOM     12  C   UNL     1      51.260   8.327  11.784  0.00  0.00    +0.000 A 
ATOM     13  C   UNL     1      49.892   8.379  11.497  0.00  0.00    +0.000 A 
ENDBRANCH   7   8
BRANCH   2  15
ATOM     14  C   UNL     1      46.554  12.018  11.410  0.00  0.00    +0.000 C 
ATOM     15  O   UNL     1      47.301  10.908  11.881  0.00  0.00    +0.000 OA
ENDBRANCH   2  15
ENDBRANCH   1   5
BRANCH   1  16
ATOM     16  C   UNL     1      44.167   5.371  10.852  0.00  0.00    +0.000 C 
BRANCH  16  17
ATOM     17  N   UNL     1      44.273   3.919  10.651  0.00  0.00    +0.000 N 
ATOM     18  C   UNL     1      45.021   3.590   9.502  0.00  0.00    +0.000 A 
ATOM     19  C   UNL     1      45.215   2.251   9.179  0.00  0.00    +0.000 A 
ATOM     20  C   UNL     1      45.984   1.917   8.058  0.00  0.00    +0.000 A 
ATOM     21  C   UNL     1      46.546   2.924   7.279  0.00  0.00    +0.000 A 
ATOM     22  C   UNL     1      46.304   4.229   7.671  0.00  0.00    +0.000 A 
ATOM     23  N   UNL     1      45.567   4.571   8.755  0.00  0.00    +0.000 NA
ATOM     24  H   UNL     1      43.365   3.468  10.585  0.00  0.00    +0.000 HD
BRANCH  21  25
ATOM     25  C   UNL     1      47.364   2.575   6.091  0.00  0.00    +0.000 C 
ATOM     26  N   UNL     1      48.719   2.462   6.223  0.00  0.00    +0.000 N 
ATOM     27  O   UNL     1      46.836   2.390   4.997  0.00  0.00    +0.000 OA
ATOM     28  H   UNL     1      49.248   2.588   7.070  0.00  0.00    +0.000 HD
ATOM     29  H   UNL     1      49.237   2.218   5.386  0.00  0.00    +0.000 HD
ENDBRANCH  21  25
ENDBRANCH  16  17
ENDBRANCH   1  16
TORSDOF 6
ENDMDL
MODEL 6
REMARK VINA RESULT:    -6.602      3.838      6.911
REMARK INTER + INTRA:          -9.617
REMARK INTER:                  -8.377
REMARK INTRA:                  -1.240
REMARK UNBOUND:                -0.700
REMARK  Name = 
REMARK  7 active torsions:
REMARK  status: ('A' for Active; 'I' for Inactive)
REMARK    1  A    between atoms: C_1  and  O_2
REMARK    2  A    between atoms: O_2  and  C_3
REMARK    3  A    between atoms: C_6  and  C_7
REMARK    4  A    between atoms: C_7  and  C_8
REMARK    5  A    between atoms: C_8  and  N_9
REMARK    6  A    between atoms: C_13  and  C_14
REMARK    7  A    between atoms: C_20  and  C_21
REMARK                            x       y       z     vdW  Elec       q    Type
REMARK                         _______ _______ _______ _____ _____    ______ ____
ROOT
ATOM      1  C   UNL     1      49.203   9.281  15.389  0.00  0.00    +0.000 C 
ENDROOT
BRANCH   1   5
ATOM      2  C   UNL     1      48.226   6.659  18.697  0.00  0.00    +0.000 A 
ATOM      3  C   UNL     1      47.808   7.996  18.698  0.00  0.00    +0.000 A 
ATOM      4  C   UNL     1      48.119   8.844  17.633  0.00  0.00    +0.000 A 
ATOM      5  C   UNL     1      48.892   8.384  16.567  0.00  0.00    +0.000 A 
ATOM      6  C   UNL     1      49.320   7.046  16.574  0.00  0.00    +0.000 A 
ATOM      7  C   UNL     1      48.978   6.146  17.611  0.00  0.00    +0.000 A 
BRANCH   7   8
ATOM      8  C   UNL     1      49.318   4.699  17.470  0.00  0.00    +0.000 A 
ATOM      9  C   UNL     1      48.410   3.750  16.970  0.00  0.00    +0.000 A 
ATOM     10  C   UNL     1      48.795   2.432  16.701  0.00  0.00    +0.000 A 
ATOM     11  C   UNL     1      50.094   2.016  16.973  0.00  0.00    +0.000 A 
ATOM     12  C   UNL     1      51.000   2.912  17.529  0.00  0.00    +0.000 A 
ATOM     13  C   UNL     1      50.616   4.236  17.768  0.00  0.00    +0.000 A 
ENDBRANCH   7   8
BRANCH   2  15
ATOM     14  C   UNL     1      47.369   6.347  20.911  0.00  0.00    +0.000 C 
ATOM     15  O   UNL     1      47.974   5.810  19.746  0.00  0.00    +0.000 OA
ENDBRANCH   2  15
ENDBRANCH   1   5
BRANCH   1  16
ATOM     16  C   UNL     1      49.046   8.524  14.065  0.00  0.00    +0.000 C 
BRANCH  16  17
ATOM     17  N   UNL     1      47.716   8.737  13.479  0.00  0.00    +0.000 N 
ATOM     18  C   UNL     1      46.997   7.533  13.330  0.00  0.00    +0.000 A 
ATOM     19  C   UNL     1      45.714   7.571  12.791  0.00  0.00    +0.000 A 
ATOM     20  C   UNL     1      44.983   6.384  12.671  0.00  0.00    +0.000 A 
ATOM     21  C   UNL     1      45.541   5.180  13.090  0.00  0.00    +0.000 A 
ATOM     22  C   UNL     1      46.821   5.233  13.615  0.00  0.00    +0.000 A 
ATOM     23  N   UNL     1      47.543   6.372  13.743  0.00  0.00    +0.000 NA
ATOM     24  H   UNL     1      47.758   9.201  12.576  0.00  0.00    +0.000 HD
BRANCH  21  25
ATOM     25  C   UNL     1      44.769   3.920  12.967  0.00  0.00    +0.000 C 
ATOM     26  N   UNL     1      45.383   2.808  12.462  0.00  0.00    +0.000 N 
ATOM     27  O   UNL     1      43.592   3.867  13.312  0.00  0.00    +0.000 OA
ATOM     28  H   UNL     1      46.340   2.742  12.156  0.00  0.00    +0.000 HD
ATOM     29  H   UNL     1      44.818   1.968  12.400  0.00  0.00    +0.000 HD
ENDBRANCH  21  25
ENDBRANCH  16  17
ENDBRANCH   1  16
TORSDOF 6
ENDMDL
MODEL 7
REMARK VINA RESULT:    -6.566      4.097      7.586
REMARK INTER + INTRA:          -9.569
REMARK INTER:                  -8.500
REMARK INTRA:                  -1.068
REMARK UNBOUND:                -0.700
REMARK  Name = 
REMARK  7 active torsions:
REMARK  status: ('A' for Active; 'I' for Inactive)
REMARK    1  A    between atoms: C_1  and  O_2
REMARK    2  A    between atoms: O_2  and  C_3
REMARK    3  A    between atoms: C_6  and  C_7
REMARK    4  A    between atoms: C_7  and  C_8
REMARK    5  A    between atoms: C_8  and  N_9
REMARK    6  A    between atoms: C_13  and  C_14
REMARK    7  A    between atoms: C_20  and  C_21
REMARK                            x       y       z     vdW  Elec       q    Type
REMARK                         _______ _______ _______ _____ _____    ______ ____
ROOT
ATOM      1  C   UNL     1      49.030   9.108  13.425  0.00  0.00    +0.000 C 
ENDROOT
BRANCH   1   5
ATOM      2  C   UNL     1      45.068   8.901  11.682  0.00  0.00    +0.000 A 
ATOM      3  C   UNL     1      45.749  10.123  11.764  0.00  0.00    +0.000 A 
ATOM      4  C   UNL     1      47.027  10.193  12.324  0.00  0.00    +0.000 A 
ATOM      5  C   UNL     1      47.631   9.052  12.852  0.00  0.00    +0.000 A 
ATOM      6  C   UNL     1      46.941   7.831  12.778  0.00  0.00    +0.000 A 
ATOM      7  C   UNL     1      45.668   7.713  12.171  0.00  0.00    +0.000 A 
BRANCH   7   8
ATOM      8  C   UNL     1      45.070   6.360  11.972  0.00  0.00    +0.000 A 
ATOM      9  C   UNL     1      45.284   5.598  10.810  0.00  0.00    +0.000 A 
ATOM     10  C   UNL     1      44.845   4.273  10.708  0.00  0.00    +0.000 A 
ATOM     11  C   UNL     1      44.132   3.692  11.752  0.00  0.00    +0.000 A 
ATOM     12  C   UNL     1      43.847   4.440  12.888  0.00  0.00    +0.000 A 
ATOM     13  C   UNL     1      44.316   5.753  12.997  0.00  0.00    +0.000 A 
ENDBRANCH   7   8
BRANCH   2  15
ATOM     14  C   UNL     1      43.280   9.902  10.443  0.00  0.00    +0.000 C 
ATOM     15  O   UNL     1      43.795   8.802  11.176  0.00  0.00    +0.000 OA
ENDBRANCH   2  15
ENDBRANCH   1   5
BRANCH   1  16
ATOM     16  C   UNL     1      49.635   7.704  13.534  0.00  0.00    +0.000 C 
BRANCH  16  17
ATOM     17  N   UNL     1      50.274   7.495  14.841  0.00  0.00    +0.000 N 
ATOM     18  C   UNL     1      49.613   6.516  15.610  0.00  0.00    +0.000 A 
ATOM     19  C   UNL     1      50.102   6.201  16.874  0.00  0.00    +0.000 A 
ATOM     20  C   UNL     1      49.470   5.207  17.630  0.00  0.00    +0.000 A 
ATOM     21  C   UNL     1      48.361   4.544  17.113  0.00  0.00    +0.000 A 
ATOM     22  C   UNL     1      47.940   4.919  15.848  0.00  0.00    +0.000 A 
ATOM     23  N   UNL     1      48.542   5.875  15.100  0.00  0.00    +0.000 NA
ATOM     24  H   UNL     1      50.332   8.350  15.387  0.00  0.00    +0.000 HD
BRANCH  21  25
ATOM     25  C   UNL     1      47.688   3.489  17.909  0.00  0.00    +0.000 C 
ATOM     26  N   UNL     1      48.201   3.143  19.127  0.00  0.00    +0.000 N 
ATOM     27  O   UNL     1      46.682   2.926  17.484  0.00  0.00    +0.000 OA
ATOM     28  H   UNL     1      49.013   3.542  19.568  0.00  0.00    +0.000 HD
ATOM     29  H   UNL     1      47.706   2.420  19.638  0.00  0.00    +0.000 HD
ENDBRANCH  21  25
ENDBRANCH  16  17
ENDBRANCH   1  16
TORSDOF 6
ENDMDL
MODEL 8
REMARK VINA RESULT:    -6.355      3.939      7.019
REMARK INTER + INTRA:          -9.284
REMARK INTER:                  -8.709
REMARK INTRA:                  -0.574
REMARK UNBOUND:                -0.700
REMARK  Name = 
REMARK  7 active torsions:
REMARK  status: ('A' for Active; 'I' for Inactive)
REMARK    1  A    between atoms: C_1  and  O_2
REMARK    2  A    between atoms: O_2  and  C_3
REMARK    3  A    between atoms: C_6  and  C_7
REMARK    4  A    between atoms: C_7  and  C_8
REMARK    5  A    between atoms: C_8  and  N_9
REMARK    6  A    between atoms: C_13  and  C_14
REMARK    7  A    between atoms: C_20  and  C_21
REMARK                            x       y       z     vdW  Elec       q    Type
REMARK                         _______ _______ _______ _____ _____    ______ ____
ROOT
ATOM      1  C   UNL     1      49.210   7.953  15.325  0.00  0.00    +0.000 C 
ENDROOT
BRANCH   1   5
ATOM      2  C   UNL     1      49.413   5.454  18.860  0.00  0.00    +0.000 A 
ATOM      3  C   UNL     1      48.583   6.583  18.829  0.00  0.00    +0.000 A 
ATOM      4  C   UNL     1      48.513   7.390  17.691  0.00  0.00    +0.000 A 
ATOM      5  C   UNL     1      49.306   7.110  16.577  0.00  0.00    +0.000 A 
ATOM      6  C   UNL     1      50.145   5.985  16.615  0.00  0.00    +0.000 A 
ATOM      7  C   UNL     1      50.201   5.116  17.731  0.00  0.00    +0.000 A 
BRANCH   7   8
ATOM      8  C   UNL     1      50.981   3.847  17.636  0.00  0.00    +0.000 A 
ATOM      9  C   UNL     1      52.347   3.769  17.958  0.00  0.00    +0.000 A 
ATOM     10  C   UNL     1      53.022   2.544  18.013  0.00  0.00    +0.000 A 
ATOM     11  C   UNL     1      52.355   1.366  17.696  0.00  0.00    +0.000 A 
ATOM     12  C   UNL     1      51.021   1.415  17.309  0.00  0.00    +0.000 A 
ATOM     13  C   UNL     1      50.344   2.639  17.287  0.00  0.00    +0.000 A 
ENDBRANCH   7   8
BRANCH   2  15
ATOM     14  C   UNL     1      48.623   4.864  21.041  0.00  0.00    +0.000 C 
ATOM     15  O   UNL     1      49.537   4.664  19.975  0.00  0.00    +0.000 OA
ENDBRANCH   2  15
ENDBRANCH   1   5
BRANCH   1  16
ATOM     16  C   UNL     1      48.015   7.526  14.465  0.00  0.00    +0.000 C 
BRANCH  16  17
ATOM     17  N   UNL     1      47.811   6.071  14.514  0.00  0.00    +0.000 N 
ATOM     18  C   UNL     1      46.813   5.640  13.616  0.00  0.00    +0.000 A 
ATOM     19  C   UNL     1      46.507   4.284  13.542  0.00  0.00    +0.000 A 
ATOM     20  C   UNL     1      45.541   3.846  12.629  0.00  0.00    +0.000 A 
ATOM     21  C   UNL     1      44.898   4.765  11.806  0.00  0.00    +0.000 A 
ATOM     22  C   UNL     1      45.263   6.092  11.944  0.00  0.00    +0.000 A 
ATOM     23  N   UNL     1      46.199   6.536  12.818  0.00  0.00    +0.000 NA
ATOM     24  H   UNL     1      47.570   5.743  15.445  0.00  0.00    +0.000 HD
BRANCH  21  25
ATOM     25  C   UNL     1      43.875   4.304  10.835  0.00  0.00    +0.000 C 
ATOM     26  N   UNL     1      43.955   4.717   9.535  0.00  0.00    +0.000 N 
ATOM     27  O   UNL     1      42.962   3.562  11.188  0.00  0.00    +0.000 OA
ATOM     28  H   UNL     1      44.661   5.317   9.142  0.00  0.00    +0.000 HD
ATOM     29  H   UNL     1      43.238   4.374   8.906  0.00  0.00    +0.000 HD
ENDBRANCH  21  25
ENDBRANCH  16  17
ENDBRANCH   1  16
TORSDOF 6
ENDMDL
MODEL 9
REMARK VINA RESULT:    -5.647      4.639      7.294
REMARK INTER + INTRA:          -8.327
REMARK INTER:                  -7.287
REMARK INTRA:                  -1.040
REMARK UNBOUND:                -0.700
REMARK  Name = 
REMARK  7 active torsions:
REMARK  status: ('A' for Active; 'I' for Inactive)
REMARK    1  A    between atoms: C_1  and  O_2
REMARK    2  A    between atoms: O_2  and  C_3
REMARK    3  A    between atoms: C_6  and  C_7
REMARK    4  A    between atoms: C_7  and  C_8
REMARK    5  A    between atoms: C_8  and  N_9
REMARK    6  A    between atoms: C_13  and  C_14
REMARK    7  A    between atoms: C_20  and  C_21
REMARK                            x       y       z     vdW  Elec       q    Type
REMARK                         _______ _______ _______ _____ _____    ______ ____
ROOT
ATOM      1  C   UNL     1      45.810   5.530  13.274  0.00  0.00    +0.000 C 
ENDROOT
BRANCH   1   5
ATOM      2  C   UNL     1      47.428   9.393  12.164  0.00  0.00    +0.000 A 
ATOM      3  C   UNL     1      46.055   9.233  12.394  0.00  0.00    +0.000 A 
ATOM      4  C   UNL     1      45.530   7.990  12.753  0.00  0.00    +0.000 A 
ATOM      5  C   UNL     1      46.360   6.873  12.847  0.00  0.00    +0.000 A 
ATOM      6  C   UNL     1      47.734   7.034  12.606  0.00  0.00    +0.000 A 
ATOM      7  C   UNL     1      48.308   8.289  12.292  0.00  0.00    +0.000 A 
BRANCH   7   8
ATOM      8  C   UNL     1      49.793   8.421  12.219  0.00  0.00    +0.000 A 
ATOM      9  C   UNL     1      50.570   8.867  13.301  0.00  0.00    +0.000 A 
ATOM     10  C   UNL     1      51.969   8.837  13.265  0.00  0.00    +0.000 A 
ATOM     11  C   UNL     1      52.628   8.404  12.118  0.00  0.00    +0.000 A 
ATOM     12  C   UNL     1      51.889   8.018  11.006  0.00  0.00    +0.000 A 
ATOM     13  C   UNL     1      50.491   8.022  11.060  0.00  0.00    +0.000 A 
ENDBRANCH   7   8
BRANCH   2  15
ATOM     14  C   UNL     1      47.116  11.719  11.687  0.00  0.00    +0.000 C 
ATOM     15  O   UNL     1      47.972  10.590  11.770  0.00  0.00    +0.000 OA
ENDBRANCH   2  15
ENDBRANCH   1   5
BRANCH   1  16
ATOM     16  C   UNL     1      46.938   4.582  13.695  0.00  0.00    +0.000 C 
BRANCH  16  17
ATOM     17  N   UNL     1      46.614   3.882  14.945  0.00  0.00    +0.000 N 
ATOM     18  C   UNL     1      47.454   4.270  16.010  0.00  0.00    +0.000 A 
ATOM     19  C   UNL     1      47.268   3.697  17.264  0.00  0.00    +0.000 A 
ATOM     20  C   UNL     1      48.077   4.102  18.332  0.00  0.00    +0.000 A 
ATOM     21  C   UNL     1      49.056   5.070  18.132  0.00  0.00    +0.000 A 
ATOM     22  C   UNL     1      49.173   5.588  16.854  0.00  0.00    +0.000 A 
ATOM     23  N   UNL     1      48.397   5.212  15.809  0.00  0.00    +0.000 NA
ATOM     24  H   UNL     1      46.661   2.872  14.850  0.00  0.00    +0.000 HD
BRANCH  21  25
ATOM     25  C   UNL     1      49.914   5.504  19.262  0.00  0.00    +0.000 C 
ATOM     26  N   UNL     1      49.722   6.741  19.809  0.00  0.00    +0.000 N 
ATOM     27  O   UNL     1      50.791   4.766  19.705  0.00  0.00    +0.000 OA
ATOM     28  H   UNL     1      49.033   7.418  19.526  0.00  0.00    +0.000 HD
ATOM     29  H   UNL     1      50.328   6.993  20.582  0.00  0.00    +0.000 HD
ENDBRANCH  21  25
ENDBRANCH  16  17
ENDBRANCH   1  16
TORSDOF 6
ENDMDL
