MODEL 1
REMARK VINA RESULT:    -8.500      0.000      0.000
REMARK INTER + INTRA:         -11.724
REMARK INTER:                 -10.984
REMARK INTRA:                  -0.740
REMARK UNBOUND:                -0.740
REMARK  Name = 
REMARK  5 active torsions:
REMARK  status: ('A' for Active; 'I' for Inactive)
REMARK    1  A    between atoms: C_2  and  C_19
REMARK    2  A    between atoms: N_3  and  C_4
REMARK    3  A    between atoms: C_4  and  C_5
REMARK    4  A    between atoms: C_8  and  C_9
REMARK    5  A    between atoms: C_9  and  N_10
REMARK                            x       y       z     vdW  Elec       q    Type
REMARK                         _______ _______ _______ _____ _____    ______ ____
ROOT
ATOM      1  C   UNL     1      46.952   7.193  13.075  0.00  0.00    +0.000 C 
ENDROOT
BRANCH   1   2
ATOM      2  C   UNL     1      46.286   6.145  12.224  0.00  0.00    +0.000 A 
ATOM      3  C   UNL     1      46.161   6.336  10.843  0.00  0.00    +0.000 A 
ATOM      4  C   UNL     1      45.529   5.379  10.048  0.00  0.00    +0.000 A 
ATOM      5  C   UNL     1      44.986   4.222  10.623  0.00  0.00    +0.000 A 
ATOM      6  C   UNL     1      45.108   4.031  12.006  0.00  0.00    +0.000 A 
ATOM      7  C   UNL     1      45.743   4.989  12.800  0.00  0.00    +0.000 A 
BRANCH   5   8
ATOM      8  C   UNL     1      44.263   3.208   9.767  0.00  0.00    +0.000 C 
BRANCH   8   9
ATOM      9  N   UNL     1      45.117   2.052   9.522  0.00  0.00    +0.000 N 
ATOM     10  C   UNL     1      45.819   2.134   8.305  0.00  0.00    +0.000 A 
ATOM     11  C   UNL     1      46.676   1.091   7.961  0.00  0.00    +0.000 A 
ATOM     12  C   UNL     1      47.396   1.158   6.768  0.00  0.00    +0.000 A 
ATOM     13  C   UNL     1      47.245   2.265   5.946  0.00  0.00    +0.000 A 
ATOM     14  C   UNL     1      46.386   3.263   6.363  0.00  0.00    +0.000 A 
ATOM     15  N   UNL     1      45.681   3.218   7.515  0.00  0.00    +0.000 NA
ATOM     16  H   UNL     1      44.597   1.182   9.555  0.00  0.00    +0.000 HD
ENDBRANCH   8   9
ENDBRANCH   5   8
ENDBRANCH   1   2
BRANCH   1  19
ATOM     17  O   UNL     1      49.556   6.914  14.119  0.00  0.00    +0.000 OA
ATOM     18  C   UNL     1      48.595   6.618  14.824  0.00  0.00    +0.000 C 
ATOM     19  N   UNL     1      47.304   6.664  14.368  0.00  0.00    +0.000 N 
ATOM     20  H   UNL     1      46.544   6.597  15.035  0.00  0.00    +0.000 HD
BRANCH  18  21
ATOM     21  C   UNL     1      48.776   6.131  16.198  0.00  0.00    +0.000 A 
ATOM     22  C   UNL     1      49.388   6.943  17.143  0.00  0.00    +0.000 A 
ATOM     23  S   UNL     1      49.540   6.211  18.676  0.00  0.00    +0.000 S 
ATOM     24  C   UNL     1      48.747   4.802  18.144  0.00  0.00    +0.000 A 
ATOM     25  N   UNL     1      48.519   3.767  18.996  0.00  0.00    +0.000 NA
ATOM     26  C   UNL     1      47.867   2.783  18.470  0.00  0.00    +0.000 A 
ATOM     27  N   UNL     1      47.436   2.734  17.171  0.00  0.00    +0.000 N 
ATOM     28  C   UNL     1      47.717   3.720  16.258  0.00  0.00    +0.000 A 
ATOM     29  O   UNL     1      47.440   3.579  15.071  0.00  0.00    +0.000 OA
ATOM     30  C   UNL     1      48.399   4.876  16.808  0.00  0.00    +0.000 A 
ATOM     31  H   UNL     1      46.959   1.919  16.814  0.00  0.00    +0.000 HD
ENDBRANCH  18  21
ENDBRANCH   1  19
TORSDOF 5
ENDMDL
MODEL 2
REMARK VINA RESULT:    -7.872      1.809      2.549
REMARK INTER + INTRA:         -10.913
REMARK INTER:                 -10.303
REMARK INTRA:                  -0.610
REMARK UNBOUND:                -0.740
REMARK  Name = 
REMARK  5 active torsions:
REMARK  status: ('A' for Active; 'I' for Inactive)
REMARK    1  A    between atoms: C_2  and  C_19
REMARK    2  A    between atoms: N_3  and  C_4
REMARK    3  A    between atoms: C_4  and  C_5
REMARK    4  A    between atoms: C_8  and  C_9
REMARK    5  A    between atoms: C_9  and  N_10
REMARK                            x       y       z     vdW  Elec       q    Type
REMARK                         _______ _______ _______ _____ _____    ______ ____
ROOT
ATOM      1  C   UNL     1      47.747   6.674  13.716  0.00  0.00    +0.000 C 
ENDROOT
BRANCH   1   2
ATOM      2  C   UNL     1      46.786   5.924  12.832  0.00  0.00    +0.000 A 
ATOM      3  C   UNL     1      46.368   4.634  13.183  0.00  0.00    +0.000 A 
ATOM      4  C   UNL     1      45.491   3.924  12.361  0.00  0.00    +0.000 A 
ATOM      5  C   UNL     1      45.034   4.481  11.158  0.00  0.00    +0.000 A 
ATOM      6  C   UNL     1      45.455   5.770  10.805  0.00  0.00    +0.000 A 
ATOM      7  C   UNL     1      46.331   6.480  11.629  0.00  0.00    +0.000 A 
BRANCH   5   8
ATOM      8  C   UNL     1      44.121   3.693  10.248  0.00  0.00    +0.000 C 
BRANCH   8   9
ATOM      9  N   UNL     1      44.739   2.422   9.890  0.00  0.00    +0.000 N 
ATOM     10  C   UNL     1      45.516   2.496   8.719  0.00  0.00    +0.000 A 
ATOM     11  C   UNL     1      46.165   1.346   8.278  0.00  0.00    +0.000 A 
ATOM     12  C   UNL     1      46.955   1.400   7.129  0.00  0.00    +0.000 A 
ATOM     13  C   UNL     1      47.081   2.602   6.449  0.00  0.00    +0.000 A 
ATOM     14  C   UNL     1      46.417   3.701   6.957  0.00  0.00    +0.000 A 
ATOM     15  N   UNL     1      45.648   3.670   8.068  0.00  0.00    +0.000 NA
ATOM     16  H   UNL     1      44.053   1.681   9.794  0.00  0.00    +0.000 HD
ENDBRANCH   8   9
ENDBRANCH   5   8
ENDBRANCH   1   2
BRANCH   1  19
ATOM     17  O   UNL     1      49.943   6.594  15.483  0.00  0.00    +0.000 OA
ATOM     18  C   UNL     1      48.851   6.188  15.869  0.00  0.00    +0.000 C 
ATOM     19  N   UNL     1      47.752   6.133  15.051  0.00  0.00    +0.000 N 
ATOM     20  H   UNL     1      46.840   5.974  15.463  0.00  0.00    +0.000 HD
BRANCH  18  21
ATOM     21  C   UNL     1      48.665   5.671  17.232  0.00  0.00    +0.000 A 
ATOM     22  C   UNL     1      48.883   4.326  17.495  0.00  0.00    +0.000 A 
ATOM     23  S   UNL     1      48.596   3.893  19.119  0.00  0.00    +0.000 S 
ATOM     24  C   UNL     1      48.219   5.499  19.540  0.00  0.00    +0.000 A 
ATOM     25  N   UNL     1      47.905   5.829  20.821  0.00  0.00    +0.000 NA
ATOM     26  C   UNL     1      47.687   7.089  21.004  0.00  0.00    +0.000 A 
ATOM     27  N   UNL     1      47.743   8.044  20.024  0.00  0.00    +0.000 N 
ATOM     28  C   UNL     1      47.975   7.743  18.705  0.00  0.00    +0.000 A 
ATOM     29  O   UNL     1      47.876   8.601  17.834  0.00  0.00    +0.000 OA
ATOM     30  C   UNL     1      48.282   6.348  18.449  0.00  0.00    +0.000 A 
ATOM     31  H   UNL     1      47.529   9.009  20.229  0.00  0.00    +0.000 HD
ENDBRANCH  18  21
ENDBRANCH   1  19
TORSDOF 5
ENDMDL
MODEL 3
REMARK VINA RESULT:    -7.844      1.541      2.510
REMARK INTER + INTRA:         -10.876
REMARK INTER:                 -10.121
REMARK INTRA:                  -0.756
REMARK UNBOUND:                -0.740
REMARK  Name = 
REMARK  5 active torsions:
REMARK  status: ('A' for Active; 'I' for Inactive)
REMARK    1  A    between atoms: C_2  and  C_19
REMARK    2  A    between atoms: N_3  and  C_4
REMARK    3  A    between atoms: C_4  and  C_5
REMARK    4  A    between atoms: C_8  and  C_9
REMARK    5  A    between atoms: C_9  and  N_10
REMARK                            x       y       z     vdW  Elec       q    Type
REMARK                         _______ _______ _______ _____ _____    ______ ____
ROOT
ATOM      1  C   UNL     1      47.046   6.646  13.620  0.00  0.00    +0.000 C 
ENDROOT
BRANCH   1   2
ATOM      2  C   UNL     1      46.339   5.829  12.571  0.00  0.00    +0.000 A 
ATOM      3  C   UNL     1      45.879   4.542  12.874  0.00  0.00    +0.000 A 
ATOM      4  C   UNL     1      45.238   3.771  11.904  0.00  0.00    +0.000 A 
ATOM      5  C   UNL     1      45.068   4.261  10.602  0.00  0.00    +0.000 A 
ATOM      6  C   UNL     1      45.532   5.549  10.297  0.00  0.00    +0.000 A 
ATOM      7  C   UNL     1      46.171   6.321  11.269  0.00  0.00    +0.000 A 
BRANCH   5   8
ATOM      8  C   UNL     1      44.415   3.407   9.540  0.00  0.00    +0.000 C 
BRANCH   8   9
ATOM      9  N   UNL     1      44.865   3.816   8.215  0.00  0.00    +0.000 N 
ATOM     10  C   UNL     1      45.749   2.895   7.624  0.00  0.00    +0.000 A 
ATOM     11  C   UNL     1      46.243   3.171   6.352  0.00  0.00    +0.000 A 
ATOM     12  C   UNL     1      47.108   2.263   5.738  0.00  0.00    +0.000 A 
ATOM     13  C   UNL     1      47.456   1.100   6.408  0.00  0.00    +0.000 A 
ATOM     14  C   UNL     1      46.914   0.892   7.661  0.00  0.00    +0.000 A 
ATOM     15  N   UNL     1      46.075   1.758   8.272  0.00  0.00    +0.000 NA
ATOM     16  H   UNL     1      45.293   4.736   8.227  0.00  0.00    +0.000 HD
ENDBRANCH   8   9
ENDBRANCH   5   8
ENDBRANCH   1   2
BRANCH   1  19
ATOM     17  O   UNL     1      49.423   6.491  15.128  0.00  0.00    +0.000 OA
ATOM     18  C   UNL     1      48.420   5.908  15.531  0.00  0.00    +0.000 C 
ATOM     19  N   UNL     1      47.247   5.881  14.824  0.00  0.00    +0.000 N 
ATOM     20  H   UNL     1      46.404   5.555  15.281  0.00  0.00    +0.000 HD
BRANCH  18  21
ATOM     21  C   UNL     1      48.434   5.141  16.785  0.00  0.00    +0.000 A 
ATOM     22  C   UNL     1      48.315   3.758  16.748  0.00  0.00    +0.000 A 
ATOM     23  S   UNL     1      48.322   3.032  18.291  0.00  0.00    +0.000 S 
ATOM     24  C   UNL     1      48.535   4.536  19.060  0.00  0.00    +0.000 A 
ATOM     25  N   UNL     1      48.652   4.617  20.412  0.00  0.00    +0.000 NA
ATOM     26  C   UNL     1      48.856   5.814  20.855  0.00  0.00    +0.000 A 
ATOM     27  N   UNL     1      48.941   6.934  20.072  0.00  0.00    +0.000 N 
ATOM     28  C   UNL     1      48.748   6.907  18.713  0.00  0.00    +0.000 A 
ATOM     29  O   UNL     1      48.689   7.946  18.063  0.00  0.00    +0.000 OA
ATOM     30  C   UNL     1      48.570   5.581  18.154  0.00  0.00    +0.000 A 
ATOM     31  H   UNL     1      49.070   7.846  20.485  0.00  0.00    +0.000 HD
ENDBRANCH  18  21
ENDBRANCH   1  19
TORSDOF 5
ENDMDL
MODEL 4
REMARK VINA RESULT:    -7.747      2.567      4.570
REMARK INTER + INTRA:         -10.751
REMARK INTER:                  -9.792
REMARK INTRA:                  -0.959
REMARK UNBOUND:                -0.740
REMARK  Name = 
REMARK  5 active torsions:
REMARK  status: ('A' for Active; 'I' for Inactive)
REMARK    1  A    between atoms: C_2  and  C_19
REMARK    2  A    between atoms: N_3  and  C_4
REMARK    3  A    between atoms: C_4  and  C_5
REMARK    4  A    between atoms: C_8  and  C_9
REMARK    5  A    between atoms: C_9  and  N_10
REMARK                            x       y       z     vdW  Elec       q    Type
REMARK                         _______ _______ _______ _____ _____    ______ ____
ROOT
ATOM      1  C   UNL     1      47.261   5.189  14.358  0.00  0.00    +0.000 C 
ENDROOT
BRANCH   1   2
ATOM      2  C   UNL     1      46.432   4.862  13.144  0.00  0.00    +0.000 A 
ATOM      3  C   UNL     1      45.896   3.579  12.983  0.00  0.00    +0.000 A 
ATOM      4  C   UNL     1      45.141   3.262  11.853  0.00  0.00    +0.000 A 
ATOM      5  C   UNL     1      44.929   4.216  10.847  0.00  0.00    +0.000 A 
ATOM      6  C   UNL     1      45.468   5.500  11.007  0.00  0.00    +0.000 A 
ATOM      7  C   UNL     1      46.222   5.816  12.139  0.00  0.00    +0.000 A 
BRANCH   5   8
ATOM      8  C   UNL     1      44.150   3.857   9.603  0.00  0.00    +0.000 C 
BRANCH   8   9
ATOM      9  N   UNL     1      44.883   4.269   8.412  0.00  0.00    +0.000 N 
ATOM     10  C   UNL     1      45.702   3.251   7.890  0.00  0.00    +0.000 A 
ATOM     11  C   UNL     1      46.449   3.521   6.745  0.00  0.00    +0.000 A 
ATOM     12  C   UNL     1      47.255   2.522   6.199  0.00  0.00    +0.000 A 
ATOM     13  C   UNL     1      47.295   1.276   6.806  0.00  0.00    +0.000 A 
ATOM     14  C   UNL     1      46.517   1.082   7.930  0.00  0.00    +0.000 A 
ATOM     15  N   UNL     1      45.729   2.036   8.474  0.00  0.00    +0.000 NA
ATOM     16  H   UNL     1      45.441   5.100   8.578  0.00  0.00    +0.000 HD
ENDBRANCH   8   9
ENDBRANCH   5   8
ENDBRANCH   1   2
BRANCH   1  19
ATOM     17  O   UNL     1      49.624   6.313  15.407  0.00  0.00    +0.000 OA
ATOM     18  C   UNL     1      48.801   7.047  14.867  0.00  0.00    +0.000 C 
ATOM     19  N   UNL     1      47.601   6.588  14.392  0.00  0.00    +0.000 N 
ATOM     20  H   UNL     1      47.048   7.188  13.791  0.00  0.00    +0.000 HD
BRANCH  18  21
ATOM     21  C   UNL     1      49.028   8.494  14.750  0.00  0.00    +0.000 A 
ATOM     22  C   UNL     1      49.201   9.260  15.895  0.00  0.00    +0.000 A 
ATOM     23  S   UNL     1      49.425  10.921  15.579  0.00  0.00    +0.000 S 
ATOM     24  C   UNL     1      49.351  10.667  13.897  0.00  0.00    +0.000 A 
ATOM     25  N   UNL     1      49.504  11.702  13.028  0.00  0.00    +0.000 NA
ATOM     26  C   UNL     1      49.471  11.358  11.783  0.00  0.00    +0.000 A 
ATOM     27  N   UNL     1      49.285  10.079  11.330  0.00  0.00    +0.000 N 
ATOM     28  C   UNL     1      49.045   9.020  12.170  0.00  0.00    +0.000 A 
ATOM     29  O   UNL     1      48.742   7.917  11.725  0.00  0.00    +0.000 OA
ATOM     30  C   UNL     1      49.126   9.339  13.582  0.00  0.00    +0.000 A 
ATOM     31  H   UNL     1      49.237   9.883  10.341  0.00  0.00    +0.000 HD
ENDBRANCH  18  21
ENDBRANCH   1  19
TORSDOF 5
ENDMDL
MODEL 5
REMARK VINA RESULT:    -7.584      1.444      1.679
REMARK INTER + INTRA:         -10.541
REMARK INTER:                 -10.120
REMARK INTRA:                  -0.421
REMARK UNBOUND:                -0.740
REMARK  Name = 
REMARK  5 active torsions:
REMARK  status: ('A' for Active; 'I' for Inactive)
REMARK    1  A    between atoms: C_2  and  C_19
REMARK    2  A    between atoms: N_3  and  C_4
REMARK    3  A    between atoms: C_4  and  C_5
REMARK    4  A    between atoms: C_8  and  C_9
REMARK    5  A    between atoms: C_9  and  N_10
REMARK                            x       y       z     vdW  Elec       q    Type
REMARK                         _______ _______ _______ _____ _____    ______ ____
ROOT
ATOM      1  C   UNL     1      48.293   6.995  13.542  0.00  0.00    +0.000 C 
ENDROOT
BRANCH   1   2
ATOM      2  C   UNL     1      47.225   6.226  12.811  0.00  0.00    +0.000 A 
ATOM      3  C   UNL     1      46.632   6.763  11.662  0.00  0.00    +0.000 A 
ATOM      4  C   UNL     1      45.630   6.066  10.987  0.00  0.00    +0.000 A 
ATOM      5  C   UNL     1      45.180   4.826  11.464  0.00  0.00    +0.000 A 
ATOM      6  C   UNL     1      45.771   4.289  12.617  0.00  0.00    +0.000 A 
ATOM      7  C   UNL     1      46.776   4.988  13.289  0.00  0.00    +0.000 A 
BRANCH   5   8
ATOM      8  C   UNL     1      44.063   4.093  10.759  0.00  0.00    +0.000 C 
BRANCH   8   9
ATOM      9  N   UNL     1      44.499   2.755  10.377  0.00  0.00    +0.000 N 
ATOM     10  C   UNL     1      45.232   2.736   9.175  0.00  0.00    +0.000 A 
ATOM     11  C   UNL     1      45.711   1.514   8.709  0.00  0.00    +0.000 A 
ATOM     12  C   UNL     1      46.455   1.473   7.529  0.00  0.00    +0.000 A 
ATOM     13  C   UNL     1      46.706   2.652   6.844  0.00  0.00    +0.000 A 
ATOM     14  C   UNL     1      46.207   3.825   7.378  0.00  0.00    +0.000 A 
ATOM     15  N   UNL     1      45.486   3.886   8.519  0.00  0.00    +0.000 NA
ATOM     16  H   UNL     1      43.721   2.108  10.309  0.00  0.00    +0.000 HD
ENDBRANCH   8   9
ENDBRANCH   5   8
ENDBRANCH   1   2
BRANCH   1  19
ATOM     17  O   UNL     1      50.317   6.667  15.477  0.00  0.00    +0.000 OA
ATOM     18  C   UNL     1      49.155   6.811  15.846  0.00  0.00    +0.000 C 
ATOM     19  N   UNL     1      48.108   6.910  14.968  0.00  0.00    +0.000 N 
ATOM     20  H   UNL     1      47.205   7.217  15.311  0.00  0.00    +0.000 HD
BRANCH  18  21
ATOM     21  C   UNL     1      48.802   6.823  17.273  0.00  0.00    +0.000 A 
ATOM     22  C   UNL     1      48.334   7.992  17.858  0.00  0.00    +0.000 A 
ATOM     23  S   UNL     1      47.999   7.836  19.522  0.00  0.00    +0.000 S 
ATOM     24  C   UNL     1      48.418   6.186  19.509  0.00  0.00    +0.000 A 
ATOM     25  N   UNL     1      48.323   5.434  20.638  0.00  0.00    +0.000 NA
ATOM     26  C   UNL     1      48.629   4.189  20.471  0.00  0.00    +0.000 A 
ATOM     27  N   UNL     1      49.032   3.634  19.286  0.00  0.00    +0.000 N 
ATOM     28  C   UNL     1      49.220   4.373  18.144  0.00  0.00    +0.000 A 
ATOM     29  O   UNL     1      49.717   3.872  17.141  0.00  0.00    +0.000 OA
ATOM     30  C   UNL     1      48.838   5.768  18.259  0.00  0.00    +0.000 A 
ATOM     31  H   UNL     1      49.289   2.659  19.232  0.00  0.00    +0.000 HD
ENDBRANCH  18  21
ENDBRANCH   1  19
TORSDOF 5
ENDMDL
MODEL 6
REMARK VINA RESULT:    -7.567      3.416      5.533
REMARK INTER + INTRA:         -10.518
REMARK INTER:                 -10.088
REMARK INTRA:                  -0.431
REMARK UNBOUND:                -0.740
REMARK  Name = 
REMARK  5 active torsions:
REMARK  status: ('A' for Active; 'I' for Inactive)
REMARK    1  A    between atoms: C_2  and  C_19
REMARK    2  A    between atoms: N_3  and  C_4
REMARK    3  A    between atoms: C_4  and  C_5
REMARK    4  A    between atoms: C_8  and  C_9
REMARK    5  A    between atoms: C_9  and  N_10
REMARK                            x       y       z     vdW  Elec       q    Type
REMARK                         _______ _______ _______ _____ _____    ______ ____
ROOT
ATOM      1  C   UNL     1      47.395   6.359  13.736  0.00  0.00    +0.000 C 
ENDROOT
BRANCH   1   2
ATOM      2  C   UNL     1      46.515   5.556  12.815  0.00  0.00    +0.000 A 
ATOM      3  C   UNL     1      46.163   4.242  13.147  0.00  0.00    +0.000 A 
ATOM      4  C   UNL     1      45.363   3.483  12.292  0.00  0.00    +0.000 A 
ATOM      5  C   UNL     1      44.920   4.015  11.072  0.00  0.00    +0.000 A 
ATOM      6  C   UNL     1      45.276   5.329  10.737  0.00  0.00    +0.000 A 
ATOM      7  C   UNL     1      46.075   6.088  11.596  0.00  0.00    +0.000 A 
BRANCH   5   8
ATOM      8  C   UNL     1      44.092   3.177  10.127  0.00  0.00    +0.000 C 
BRANCH   8   9
ATOM      9  N   UNL     1      44.835   1.990   9.721  0.00  0.00    +0.000 N 
ATOM     10  C   UNL     1      45.595   2.187   8.554  0.00  0.00    +0.000 A 
ATOM     11  C   UNL     1      46.357   1.126   8.069  0.00  0.00    +0.000 A 
ATOM     12  C   UNL     1      47.132   1.304   6.923  0.00  0.00    +0.000 A 
ATOM     13  C   UNL     1      47.131   2.537   6.288  0.00  0.00    +0.000 A 
ATOM     14  C   UNL     1      46.360   3.542   6.837  0.00  0.00    +0.000 A 
ATOM     15  N   UNL     1      45.604   3.391   7.947  0.00  0.00    +0.000 NA
ATOM     16  H   UNL     1      44.228   1.186   9.598  0.00  0.00    +0.000 HD
ENDBRANCH   8   9
ENDBRANCH   5   8
ENDBRANCH   1   2
BRANCH   1  19
ATOM     17  O   UNL     1      49.130   7.613  11.901  0.00  0.00    +0.000 OA
ATOM     18  C   UNL     1      48.234   8.271  12.421  0.00  0.00    +0.000 C 
ATOM     19  N   UNL     1      47.392   7.752  13.370  0.00  0.00    +0.000 N 
ATOM     20  H   UNL     1      46.559   8.270  13.624  0.00  0.00    +0.000 HD
BRANCH  18  21
ATOM     21  C   UNL     1      48.044   9.692  12.101  0.00  0.00    +0.000 A 
ATOM     22  C   UNL     1      49.147  10.497  11.850  0.00  0.00    +0.000 A 
ATOM     23  S   UNL     1      48.747  12.122  11.523  0.00  0.00    +0.000 S 
ATOM     24  C   UNL     1      47.081  11.797  11.653  0.00  0.00    +0.000 A 
ATOM     25  N   UNL     1      46.162  12.778  11.450  0.00  0.00    +0.000 NA
ATOM     26  C   UNL     1      44.935  12.379  11.536  0.00  0.00    +0.000 A 
ATOM     27  N   UNL     1      44.547  11.096  11.817  0.00  0.00    +0.000 N 
ATOM     28  C   UNL     1      45.441  10.096  12.108  0.00  0.00    +0.000 A 
ATOM     29  O   UNL     1      45.056   8.997  12.495  0.00  0.00    +0.000 OA
ATOM     30  C   UNL     1      46.835  10.473  11.973  0.00  0.00    +0.000 A 
ATOM     31  H   UNL     1      43.570  10.858  11.901  0.00  0.00    +0.000 HD
ENDBRANCH  18  21
ENDBRANCH   1  19
TORSDOF 5
ENDMDL
MODEL 7
REMARK VINA RESULT:    -7.216      4.021      5.862
REMARK INTER + INTRA:         -10.064
REMARK INTER:                  -9.377
REMARK INTRA:                  -0.687
REMARK UNBOUND:                -0.740
REMARK  Name = 
REMARK  5 active torsions:
REMARK  status: ('A' for Active; 'I' for Inactive)
REMARK    1  A    between atoms: C_2  and  C_19
REMARK    2  A    between atoms: N_3  and  C_4
REMARK    3  A    between atoms: C_4  and  C_5
REMARK    4  A    between atoms: C_8  and  C_9
REMARK    5  A    between atoms: C_9  and  N_10
REMARK                            x       y       z     vdW  Elec       q    Type
REMARK                         _______ _______ _______ _____ _____    ______ ____
ROOT
ATOM      1  C   UNL     1      46.397   4.092  14.199  0.00  0.00    +0.000 C 
ENDROOT
BRANCH   1   2
ATOM      2  C   UNL     1      45.952   5.286  13.397  0.00  0.00    +0.000 A 
ATOM      3  C   UNL     1      46.790   6.400  13.270  0.00  0.00    +0.000 A 
ATOM      4  C   UNL     1      46.379   7.519  12.543  0.00  0.00    +0.000 A 
ATOM      5  C   UNL     1      45.109   7.556  11.950  0.00  0.00    +0.000 A 
ATOM      6  C   UNL     1      44.268   6.442  12.080  0.00  0.00    +0.000 A 
ATOM      7  C   UNL     1      44.682   5.322  12.806  0.00  0.00    +0.000 A 
BRANCH   5   8
ATOM      8  C   UNL     1      44.648   8.785  11.203  0.00  0.00    +0.000 C 
BRANCH   8   9
ATOM      9  N   UNL     1      43.199   8.766  11.044  0.00  0.00    +0.000 N 
ATOM     10  C   UNL     1      42.661  10.030  10.737  0.00  0.00    +0.000 A 
ATOM     11  C   UNL     1      41.285  10.139  10.554  0.00  0.00    +0.000 A 
ATOM     12  C   UNL     1      40.731  11.379  10.231  0.00  0.00    +0.000 A 
ATOM     13  C   UNL     1      41.564  12.479  10.097  0.00  0.00    +0.000 A 
ATOM     14  C   UNL     1      42.919  12.287  10.282  0.00  0.00    +0.000 A 
ATOM     15  N   UNL     1      43.475  11.095  10.593  0.00  0.00    +0.000 NA
ATOM     16  H   UNL     1      42.733   8.390  11.863  0.00  0.00    +0.000 HD
ENDBRANCH   8   9
ENDBRANCH   5   8
ENDBRANCH   1   2
BRANCH   1  19
ATOM     17  O   UNL     1      46.553   3.358  16.916  0.00  0.00    +0.000 OA
ATOM     18  C   UNL     1      47.473   4.000  16.417  0.00  0.00    +0.000 C 
ATOM     19  N   UNL     1      47.442   4.450  15.123  0.00  0.00    +0.000 N 
ATOM     20  H   UNL     1      48.295   4.803  14.705  0.00  0.00    +0.000 HD
BRANCH  18  21
ATOM     21  C   UNL     1      48.653   4.384  17.204  0.00  0.00    +0.000 A 
ATOM     22  C   UNL     1      48.682   5.612  17.850  0.00  0.00    +0.000 A 
ATOM     23  S   UNL     1      50.134   5.907  18.693  0.00  0.00    +0.000 S 
ATOM     24  C   UNL     1      50.756   4.380  18.267  0.00  0.00    +0.000 A 
ATOM     25  N   UNL     1      51.980   3.980  18.704  0.00  0.00    +0.000 NA
ATOM     26  C   UNL     1      52.305   2.782  18.343  0.00  0.00    +0.000 A 
ATOM     27  N   UNL     1      51.525   1.956  17.577  0.00  0.00    +0.000 N 
ATOM     28  C   UNL     1      50.321   2.351  17.048  0.00  0.00    +0.000 A 
ATOM     29  O   UNL     1      49.717   1.640  16.252  0.00  0.00    +0.000 OA
ATOM     30  C   UNL     1      49.880   3.669  17.467  0.00  0.00    +0.000 A 
ATOM     31  H   UNL     1      51.853   1.042  17.303  0.00  0.00    +0.000 HD
ENDBRANCH  18  21
ENDBRANCH   1  19
TORSDOF 5
ENDMDL
MODEL 8
REMARK VINA RESULT:    -7.121      4.864      7.409
REMARK INTER + INTRA:          -9.942
REMARK INTER:                  -9.057
REMARK INTRA:                  -0.886
REMARK UNBOUND:                -0.740
REMARK  Name = 
REMARK  5 active torsions:
REMARK  status: ('A' for Active; 'I' for Inactive)
REMARK    1  A    between atoms: C_2  and  C_19
REMARK    2  A    between atoms: N_3  and  C_4
REMARK    3  A    between atoms: C_4  and  C_5
REMARK    4  A    between atoms: C_8  and  C_9
REMARK    5  A    between atoms: C_9  and  N_10
REMARK                            x       y       z     vdW  Elec       q    Type
REMARK                         _______ _______ _______ _____ _____    ______ ____
ROOT
ATOM      1  C   UNL     1      46.383   8.422  12.497  0.00  0.00    +0.000 C 
ENDROOT
BRANCH   1   2
ATOM      2  C   UNL     1      47.844   8.515  12.148  0.00  0.00    +0.000 A 
ATOM      3  C   UNL     1      48.401   9.744  11.772  0.00  0.00    +0.000 A 
ATOM      4  C   UNL     1      49.750   9.837  11.430  0.00  0.00    +0.000 A 
ATOM      5  C   UNL     1      50.566   8.696  11.432  0.00  0.00    +0.000 A 
ATOM      6  C   UNL     1      50.009   7.465  11.806  0.00  0.00    +0.000 A 
ATOM      7  C   UNL     1      48.658   7.374  12.150  0.00  0.00    +0.000 A 
BRANCH   5   8
ATOM      8  C   UNL     1      52.016   8.790  11.018  0.00  0.00    +0.000 C 
BRANCH   8   9
ATOM      9  N   UNL     1      52.629   7.467  11.020  0.00  0.00    +0.000 N 
ATOM     10  C   UNL     1      52.942   7.003   9.730  0.00  0.00    +0.000 A 
ATOM     11  C   UNL     1      53.540   5.751   9.601  0.00  0.00    +0.000 A 
ATOM     12  C   UNL     1      53.876   5.277   8.332  0.00  0.00    +0.000 A 
ATOM     13  C   UNL     1      53.609   6.064   7.222  0.00  0.00    +0.000 A 
ATOM     14  C   UNL     1      53.026   7.298   7.433  0.00  0.00    +0.000 A 
ATOM     15  N   UNL     1      52.695   7.776   8.653  0.00  0.00    +0.000 NA
ATOM     16  H   UNL     1      52.051   6.783  11.495  0.00  0.00    +0.000 HD
ENDBRANCH   8   9
ENDBRANCH   5   8
ENDBRANCH   1   2
BRANCH   1  19
ATOM     17  O   UNL     1      44.026   7.658  11.151  0.00  0.00    +0.000 OA
ATOM     18  C   UNL     1      44.766   6.788  11.601  0.00  0.00    +0.000 C 
ATOM     19  N   UNL     1      45.893   7.078  12.323  0.00  0.00    +0.000 N 
ATOM     20  H   UNL     1      46.565   6.341  12.505  0.00  0.00    +0.000 HD
BRANCH  18  21
ATOM     21  C   UNL     1      44.451   5.361  11.445  0.00  0.00    +0.000 A 
ATOM     22  C   UNL     1      43.703   4.709  12.416  0.00  0.00    +0.000 A 
ATOM     23  S   UNL     1      43.456   3.053  12.090  0.00  0.00    +0.000 S 
ATOM     24  C   UNL     1      44.297   3.161  10.614  0.00  0.00    +0.000 A 
ATOM     25  N   UNL     1      44.428   2.075   9.806  0.00  0.00    +0.000 NA
ATOM     26  C   UNL     1      45.049   2.313   8.697  0.00  0.00    +0.000 A 
ATOM     27  N   UNL     1      45.559   3.530   8.331  0.00  0.00    +0.000 N 
ATOM     28  C   UNL     1      45.521   4.629   9.153  0.00  0.00    +0.000 A 
ATOM     29  O   UNL     1      46.112   5.661   8.853  0.00  0.00    +0.000 OA
ATOM     30  C   UNL     1      44.786   4.435  10.388  0.00  0.00    +0.000 A 
ATOM     31  H   UNL     1      46.063   3.639   7.464  0.00  0.00    +0.000 HD
ENDBRANCH  18  21
ENDBRANCH   1  19
TORSDOF 5
ENDMDL
MODEL 9
REMARK VINA RESULT:    -6.819      3.759      8.596
REMARK INTER + INTRA:          -9.552
REMARK INTER:                  -8.559
REMARK INTRA:                  -0.993
REMARK UNBOUND:                -0.740
REMARK  Name = 
REMARK  5 active torsions:
REMARK  status: ('A' for Active; 'I' for Inactive)
REMARK    1  A    between atoms: C_2  and  C_19
REMARK    2  A    between atoms: N_3  and  C_4
REMARK    3  A    between atoms: C_4  and  C_5
REMARK    4  A    between atoms: C_8  and  C_9
REMARK    5  A    between atoms: C_9  and  N_10
REMARK                            x       y       z     vdW  Elec       q    Type
REMARK                         _______ _______ _______ _____ _____    ______ ____
ROOT
ATOM      1  C   UNL     1      48.512   7.938  15.039  0.00  0.00    +0.000 C 
ENDROOT
BRANCH   1   2
ATOM      2  C   UNL     1      49.298   7.115  16.026  0.00  0.00    +0.000 A 
ATOM      3  C   UNL     1      50.676   6.939  15.855  0.00  0.00    +0.000 A 
ATOM      4  C   UNL     1      51.409   6.163  16.753  0.00  0.00    +0.000 A 
ATOM      5  C   UNL     1      50.774   5.527  17.829  0.00  0.00    +0.000 A 
ATOM      6  C   UNL     1      49.393   5.701  17.999  0.00  0.00    +0.000 A 
ATOM      7  C   UNL     1      48.661   6.479  17.100  0.00  0.00    +0.000 A 
BRANCH   5   8
ATOM      8  C   UNL     1      51.561   4.651  18.775  0.00  0.00    +0.000 C 
BRANCH   8   9
ATOM      9  N   UNL     1      51.321   3.243  18.479  0.00  0.00    +0.000 N 
ATOM     10  C   UNL     1      52.468   2.574  18.016  0.00  0.00    +0.000 A 
ATOM     11  C   UNL     1      52.367   1.219  17.706  0.00  0.00    +0.000 A 
ATOM     12  C   UNL     1      53.496   0.529  17.261  0.00  0.00    +0.000 A 
ATOM     13  C   UNL     1      54.699   1.207  17.139  0.00  0.00    +0.000 A 
ATOM     14  C   UNL     1      54.722   2.546  17.478  0.00  0.00    +0.000 A 
ATOM     15  N   UNL     1      53.641   3.231  17.911  0.00  0.00    +0.000 NA
ATOM     16  H   UNL     1      50.565   3.120  17.813  0.00  0.00    +0.000 HD
ENDBRANCH   8   9
ENDBRANCH   5   8
ENDBRANCH   1   2
BRANCH   1  19
ATOM     17  O   UNL     1      48.823   6.121  12.907  0.00  0.00    +0.000 OA
ATOM     18  C   UNL     1      47.719   6.247  13.428  0.00  0.00    +0.000 C 
ATOM     19  N   UNL     1      47.472   7.155  14.424  0.00  0.00    +0.000 N 
ATOM     20  H   UNL     1      46.607   7.089  14.947  0.00  0.00    +0.000 HD
BRANCH  18  21
ATOM     21  C   UNL     1      46.562   5.465  12.969  0.00  0.00    +0.000 A 
ATOM     22  C   UNL     1      46.541   4.090  13.155  0.00  0.00    +0.000 A 
ATOM     23  S   UNL     1      45.139   3.339  12.539  0.00  0.00    +0.000 S 
ATOM     24  C   UNL     1      44.488   4.833  12.047  0.00  0.00    +0.000 A 
ATOM     25  N   UNL     1      43.262   4.899  11.461  0.00  0.00    +0.000 NA
ATOM     26  C   UNL     1      42.874   6.100  11.182  0.00  0.00    +0.000 A 
ATOM     27  N   UNL     1      43.602   7.234  11.424  0.00  0.00    +0.000 N 
ATOM     28  C   UNL     1      44.875   7.205  11.937  0.00  0.00    +0.000 A 
ATOM     29  O   UNL     1      45.552   8.226  12.007  0.00  0.00    +0.000 OA
ATOM     30  C   UNL     1      45.341   5.886  12.321  0.00  0.00    +0.000 A 
ATOM     31  H   UNL     1      43.253   8.141  11.150  0.00  0.00    +0.000 HD
ENDBRANCH  18  21
ENDBRANCH   1  19
TORSDOF 5
ENDMDL
