MODEL 1
REMARK VINA RESULT:    -6.831      0.000      0.000
REMARK INTER + INTRA:         -10.309
REMARK INTER:                  -9.228
REMARK INTRA:                  -1.081
REMARK UNBOUND:                -1.081
REMARK  Name = 
REMARK  8 active torsions:
REMARK  status: ('A' for Active; 'I' for Inactive)
REMARK    1  A    between atoms: C_1  and  C_2
REMARK    2  A    between atoms: C_2  and  C_3
REMARK    3  A    between atoms: C_3  and  N_4
REMARK    4  A    between atoms: C_3  and  C_17
REMARK    5  A    between atoms: C_5  and  C_7
REMARK    6  A    between atoms: C_20  and  C_21
REMARK    7  A    between atoms: C_21  and  C_22
REMARK    8  A    between atoms: C_21  and  N_23
REMARK                            x       y       z     vdW  Elec       q    Type
REMARK                         _______ _______ _______ _____ _____    ______ ____
ROOT
ATOM      1  C   UNL     1      45.661   5.221  13.026  0.00  0.00    +0.000 C 
ENDROOT
BRANCH   1   2
ATOM      2  C   UNL     1      45.590   6.670  12.550  0.00  0.00    +0.000 A 
ATOM      3  C   UNL     1      46.426   7.594  13.197  0.00  0.00    +0.000 A 
ATOM      4  C   UNL     1      46.353   8.955  12.912  0.00  0.00    +0.000 A 
ATOM      5  C   UNL     1      45.471   9.454  11.944  0.00  0.00    +0.000 A 
ATOM      6  C   UNL     1      44.644   8.536  11.275  0.00  0.00    +0.000 A 
ATOM      7  C   UNL     1      44.693   7.163  11.583  0.00  0.00    +0.000 A 
BRANCH   5   8
ATOM      8  C   UNL     1      45.498  10.952  11.658  0.00  0.00    +0.000 C 
ATOM      9  C   UNL     1      46.889  11.392  11.180  0.00  0.00    +0.000 C 
BRANCH   8  10
ATOM     10  N   UNL     1      44.372  11.436  10.876  0.00  0.00    +0.000 NA
ATOM     11  C   UNL     1      43.059  11.519  11.507  0.00  0.00    +0.000 C 
ATOM     12  C   UNL     1      42.008  10.668  10.781  0.00  0.00    +0.000 C 
ATOM     13  O   UNL     1      41.961  10.976   9.382  0.00  0.00    +0.000 OA
ATOM     14  C   UNL     1      43.236  10.716   8.779  0.00  0.00    +0.000 C 
ATOM     15  C   UNL     1      44.363  11.536   9.428  0.00  0.00    +0.000 C 
ENDBRANCH   8  10
ENDBRANCH   5   8
ENDBRANCH   1   2
BRANCH   1  16
ATOM     16  N   UNL     1      46.277   5.189  14.350  0.00  0.00    +0.000 N 
ATOM     17  C   UNL     1      47.077   4.161  14.789  0.00  0.00    +0.000 C 
ATOM     18  O   UNL     1      47.296   3.175  14.088  0.00  0.00    +0.000 OA
ATOM     19  H   UNL     1      46.070   5.974  14.966  0.00  0.00    +0.000 HD
BRANCH  17  20
ATOM     20  C   UNL     1      47.694   4.287  16.125  0.00  0.00    +0.000 A 
ATOM     21  C   UNL     1      47.310   3.409  17.136  0.00  0.00    +0.000 A 
ATOM     22  S   UNL     1      48.144   3.633  18.605  0.00  0.00    +0.000 S 
ATOM     23  C   UNL     1      49.034   4.930  17.961  0.00  0.00    +0.000 A 
ATOM     24  N   UNL     1      49.951   5.585  18.723  0.00  0.00    +0.000 NA
ATOM     25  C   UNL     1      50.552   6.555  18.120  0.00  0.00    +0.000 A 
ATOM     26  N   UNL     1      50.317   6.928  16.822  0.00  0.00    +0.000 N 
ATOM     27  C   UNL     1      49.390   6.306  16.023  0.00  0.00    +0.000 A 
ATOM     28  O   UNL     1      49.178   6.700  14.878  0.00  0.00    +0.000 OA
ATOM     29  C   UNL     1      48.697   5.192  16.643  0.00  0.00    +0.000 A 
ATOM     30  H   UNL     1      50.807   7.709  16.413  0.00  0.00    +0.000 HD
ENDBRANCH  17  20
ENDBRANCH   1  16
BRANCH   1  32
ATOM     31  C   UNL     1      44.381   3.222  12.076  0.00  0.00    +0.000 C 
ATOM     32  C   UNL     1      44.344   4.421  13.015  0.00  0.00    +0.000 C 
ENDBRANCH   1  32
TORSDOF 6
ENDMDL
MODEL 2
REMARK VINA RESULT:    -6.640      3.697      5.582
REMARK INTER + INTRA:         -10.050
REMARK INTER:                  -9.272
REMARK INTRA:                  -0.778
REMARK UNBOUND:                -1.081
REMARK  Name = 
REMARK  8 active torsions:
REMARK  status: ('A' for Active; 'I' for Inactive)
REMARK    1  A    between atoms: C_1  and  C_2
REMARK    2  A    between atoms: C_2  and  C_3
REMARK    3  A    between atoms: C_3  and  N_4
REMARK    4  A    between atoms: C_3  and  C_17
REMARK    5  A    between atoms: C_5  and  C_7
REMARK    6  A    between atoms: C_20  and  C_21
REMARK    7  A    between atoms: C_21  and  C_22
REMARK    8  A    between atoms: C_21  and  N_23
REMARK                            x       y       z     vdW  Elec       q    Type
REMARK                         _______ _______ _______ _____ _____    ______ ____
ROOT
ATOM      1  C   UNL     1      48.220   7.445  13.411  0.00  0.00    +0.000 C 
ENDROOT
BRANCH   1   2
ATOM      2  C   UNL     1      47.134   6.573  12.785  0.00  0.00    +0.000 A 
ATOM      3  C   UNL     1      46.981   5.277  13.302  0.00  0.00    +0.000 A 
ATOM      4  C   UNL     1      46.096   4.371  12.725  0.00  0.00    +0.000 A 
ATOM      5  C   UNL     1      45.298   4.723  11.630  0.00  0.00    +0.000 A 
ATOM      6  C   UNL     1      45.427   6.024  11.116  0.00  0.00    +0.000 A 
ATOM      7  C   UNL     1      46.343   6.934  11.678  0.00  0.00    +0.000 A 
BRANCH   5   8
ATOM      8  C   UNL     1      44.316   3.684  11.096  0.00  0.00    +0.000 C 
ATOM      9  C   UNL     1      42.889   3.984  11.575  0.00  0.00    +0.000 C 
BRANCH   8  10
ATOM     10  N   UNL     1      44.465   3.385   9.681  0.00  0.00    +0.000 NA
ATOM     11  C   UNL     1      44.622   1.995   9.267  0.00  0.00    +0.000 C 
ATOM     12  C   UNL     1      45.935   1.755   8.510  0.00  0.00    +0.000 C 
ATOM     13  O   UNL     1      46.081   2.670   7.415  0.00  0.00    +0.000 OA
ATOM     14  C   UNL     1      46.089   4.019   7.901  0.00  0.00    +0.000 C 
ATOM     15  C   UNL     1      44.802   4.367   8.668  0.00  0.00    +0.000 C 
ENDBRANCH   8  10
ENDBRANCH   5   8
ENDBRANCH   1   2
BRANCH   1  16
ATOM     16  N   UNL     1      48.227   7.224  14.856  0.00  0.00    +0.000 N 
ATOM     17  C   UNL     1      48.545   8.201  15.770  0.00  0.00    +0.000 C 
ATOM     18  O   UNL     1      48.880   9.328  15.412  0.00  0.00    +0.000 OA
ATOM     19  H   UNL     1      47.999   6.283  15.172  0.00  0.00    +0.000 HD
BRANCH  17  20
ATOM     20  C   UNL     1      48.445   7.864  17.204  0.00  0.00    +0.000 A 
ATOM     21  C   UNL     1      48.077   8.856  18.110  0.00  0.00    +0.000 A 
ATOM     22  S   UNL     1      47.946   8.314  19.720  0.00  0.00    +0.000 S 
ATOM     23  C   UNL     1      48.402   6.736  19.279  0.00  0.00    +0.000 A 
ATOM     24  N   UNL     1      48.488   5.754  20.217  0.00  0.00    +0.000 NA
ATOM     25  C   UNL     1      48.852   4.605  19.755  0.00  0.00    +0.000 A 
ATOM     26  N   UNL     1      49.138   4.352  18.439  0.00  0.00    +0.000 N 
ATOM     27  C   UNL     1      49.080   5.316  17.462  0.00  0.00    +0.000 A 
ATOM     28  O   UNL     1      49.387   5.057  16.301  0.00  0.00    +0.000 OA
ATOM     29  C   UNL     1      48.655   6.625  17.922  0.00  0.00    +0.000 A 
ATOM     30  H   UNL     1      49.436   3.435  18.142  0.00  0.00    +0.000 HD
ENDBRANCH  17  20
ENDBRANCH   1  16
BRANCH   1  32
ATOM     31  C   UNL     1      50.024   8.467  11.915  0.00  0.00    +0.000 C 
ATOM     32  C   UNL     1      49.640   7.310  12.830  0.00  0.00    +0.000 C 
ENDBRANCH   1  32
TORSDOF 6
ENDMDL
MODEL 3
REMARK VINA RESULT:    -6.528      2.762      3.896
REMARK INTER + INTRA:          -9.898
REMARK INTER:                  -8.188
REMARK INTRA:                  -1.710
REMARK UNBOUND:                -1.081
REMARK  Name = 
REMARK  8 active torsions:
REMARK  status: ('A' for Active; 'I' for Inactive)
REMARK    1  A    between atoms: C_1  and  C_2
REMARK    2  A    between atoms: C_2  and  C_3
REMARK    3  A    between atoms: C_3  and  N_4
REMARK    4  A    between atoms: C_3  and  C_17
REMARK    5  A    between atoms: C_5  and  C_7
REMARK    6  A    between atoms: C_20  and  C_21
REMARK    7  A    between atoms: C_21  and  C_22
REMARK    8  A    between atoms: C_21  and  N_23
REMARK                            x       y       z     vdW  Elec       q    Type
REMARK                         _______ _______ _______ _____ _____    ______ ____
ROOT
ATOM      1  C   UNL     1      46.145   5.495  13.180  0.00  0.00    +0.000 C 
ENDROOT
BRANCH   1   2
ATOM      2  C   UNL     1      46.588   6.863  12.666  0.00  0.00    +0.000 A 
ATOM      3  C   UNL     1      47.915   6.977  12.220  0.00  0.00    +0.000 A 
ATOM      4  C   UNL     1      48.444   8.206  11.839  0.00  0.00    +0.000 A 
ATOM      5  C   UNL     1      47.668   9.373  11.850  0.00  0.00    +0.000 A 
ATOM      6  C   UNL     1      46.333   9.269  12.275  0.00  0.00    +0.000 A 
ATOM      7  C   UNL     1      45.803   8.032  12.691  0.00  0.00    +0.000 A 
BRANCH   5   8
ATOM      8  C   UNL     1      48.315  10.666  11.364  0.00  0.00    +0.000 C 
ATOM      9  C   UNL     1      47.249  11.675  10.913  0.00  0.00    +0.000 C 
BRANCH   8  10
ATOM     10  N   UNL     1      49.356  11.185  12.236  0.00  0.00    +0.000 NA
ATOM     11  C   UNL     1      50.739  11.167  11.772  0.00  0.00    +0.000 C 
ATOM     12  C   UNL     1      51.654  10.354  12.697  0.00  0.00    +0.000 C 
ATOM     13  O   UNL     1      51.542  10.789  14.059  0.00  0.00    +0.000 OA
ATOM     14  C   UNL     1      50.192  10.627  14.516  0.00  0.00    +0.000 C 
ATOM     15  C   UNL     1      49.190  11.419  13.659  0.00  0.00    +0.000 C 
ENDBRANCH   8  10
ENDBRANCH   5   8
ENDBRANCH   1   2
BRANCH   1  16
ATOM     16  N   UNL     1      46.665   5.309  14.532  0.00  0.00    +0.000 N 
ATOM     17  C   UNL     1      47.252   4.143  14.964  0.00  0.00    +0.000 C 
ATOM     18  O   UNL     1      47.346   3.162  14.228  0.00  0.00    +0.000 OA
ATOM     19  H   UNL     1      46.554   6.093  15.173  0.00  0.00    +0.000 HD
BRANCH  17  20
ATOM     20  C   UNL     1      47.799   4.111  16.335  0.00  0.00    +0.000 A 
ATOM     21  C   UNL     1      47.333   3.151  17.230  0.00  0.00    +0.000 A 
ATOM     22  S   UNL     1      48.091   3.195  18.755  0.00  0.00    +0.000 S 
ATOM     23  C   UNL     1      49.056   4.516  18.294  0.00  0.00    +0.000 A 
ATOM     24  N   UNL     1      49.949   5.057  19.165  0.00  0.00    +0.000 NA
ATOM     25  C   UNL     1      50.613   6.060  18.697  0.00  0.00    +0.000 A 
ATOM     26  N   UNL     1      50.461   6.571  17.434  0.00  0.00    +0.000 N 
ATOM     27  C   UNL     1      49.561   6.067  16.528  0.00  0.00    +0.000 A 
ATOM     28  O   UNL     1      49.425   6.581  15.420  0.00  0.00    +0.000 OA
ATOM     29  C   UNL     1      48.800   4.923  16.995  0.00  0.00    +0.000 A 
ATOM     30  H   UNL     1      50.998   7.370  17.132  0.00  0.00    +0.000 HD
ENDBRANCH  17  20
ENDBRANCH   1  16
BRANCH   1  32
ATOM     31  C   UNL     1      44.324   3.823  12.526  0.00  0.00    +0.000 C 
ATOM     32  C   UNL     1      44.636   5.189  13.125  0.00  0.00    +0.000 C 
ENDBRANCH   1  32
TORSDOF 6
ENDMDL
MODEL 4
REMARK VINA RESULT:    -6.461      3.447      9.070
REMARK INTER + INTRA:          -9.809
REMARK INTER:                  -8.311
REMARK INTRA:                  -1.498
REMARK UNBOUND:                -1.081
REMARK  Name = 
REMARK  8 active torsions:
REMARK  status: ('A' for Active; 'I' for Inactive)
REMARK    1  A    between atoms: C_1  and  C_2
REMARK    2  A    between atoms: C_2  and  C_3
REMARK    3  A    between atoms: C_3  and  N_4
REMARK    4  A    between atoms: C_3  and  C_17
REMARK    5  A    between atoms: C_5  and  C_7
REMARK    6  A    between atoms: C_20  and  C_21
REMARK    7  A    between atoms: C_21  and  C_22
REMARK    8  A    between atoms: C_21  and  N_23
REMARK                            x       y       z     vdW  Elec       q    Type
REMARK                         _______ _______ _______ _____ _____    ______ ____
ROOT
ATOM      1  C   UNL     1      48.512   7.613  14.408  0.00  0.00    +0.000 C 
ENDROOT
BRANCH   1   2
ATOM      2  C   UNL     1      49.002   6.694  15.524  0.00  0.00    +0.000 A 
ATOM      3  C   UNL     1      50.329   6.862  15.951  0.00  0.00    +0.000 A 
ATOM      4  C   UNL     1      50.901   6.001  16.883  0.00  0.00    +0.000 A 
ATOM      5  C   UNL     1      50.169   4.955  17.460  0.00  0.00    +0.000 A 
ATOM      6  C   UNL     1      48.834   4.788  17.056  0.00  0.00    +0.000 A 
ATOM      7  C   UNL     1      48.261   5.639  16.090  0.00  0.00    +0.000 A 
BRANCH   5   8
ATOM      8  C   UNL     1      50.860   4.094  18.513  0.00  0.00    +0.000 C 
ATOM      9  C   UNL     1      52.115   3.425  17.935  0.00  0.00    +0.000 C 
BRANCH   8  10
ATOM     10  N   UNL     1      51.019   4.738  19.807  0.00  0.00    +0.000 NA
ATOM     11  C   UNL     1      49.827   5.072  20.580  0.00  0.00    +0.000 C 
ATOM     12  C   UNL     1      49.728   6.574  20.879  0.00  0.00    +0.000 C 
ATOM     13  O   UNL     1      50.928   7.066  21.489  0.00  0.00    +0.000 OA
ATOM     14  C   UNL     1      52.044   6.862  20.612  0.00  0.00    +0.000 C 
ATOM     15  C   UNL     1      52.241   5.378  20.259  0.00  0.00    +0.000 C 
ENDBRANCH   8  10
ENDBRANCH   5   8
ENDBRANCH   1   2
BRANCH   1  16
ATOM     16  N   UNL     1      47.237   7.105  13.906  0.00  0.00    +0.000 N 
ATOM     17  C   UNL     1      46.923   7.036  12.569  0.00  0.00    +0.000 C 
ATOM     18  O   UNL     1      47.703   7.435  11.706  0.00  0.00    +0.000 OA
ATOM     19  H   UNL     1      46.557   6.814  14.607  0.00  0.00    +0.000 HD
BRANCH  17  20
ATOM     20  C   UNL     1      45.626   6.437  12.194  0.00  0.00    +0.000 A 
ATOM     21  C   UNL     1      44.642   7.246  11.633  0.00  0.00    +0.000 A 
ATOM     22  S   UNL     1      43.221   6.413  11.197  0.00  0.00    +0.000 S 
ATOM     23  C   UNL     1      43.850   4.939  11.766  0.00  0.00    +0.000 A 
ATOM     24  N   UNL     1      43.116   3.797  11.686  0.00  0.00    +0.000 NA
ATOM     25  C   UNL     1      43.703   2.750  12.159  0.00  0.00    +0.000 A 
ATOM     26  N   UNL     1      44.960   2.744  12.706  0.00  0.00    +0.000 N 
ATOM     27  C   UNL     1      45.730   3.875  12.822  0.00  0.00    +0.000 A 
ATOM     28  O   UNL     1      46.834   3.835  13.357  0.00  0.00    +0.000 OA
ATOM     29  C   UNL     1      45.126   5.082  12.285  0.00  0.00    +0.000 A 
ATOM     30  H   UNL     1      45.358   1.894  13.077  0.00  0.00    +0.000 HD
ENDBRANCH  17  20
ENDBRANCH   1  16
BRANCH   1  32
ATOM     31  C   UNL     1      49.323   9.978  13.873  0.00  0.00    +0.000 C 
ATOM     32  C   UNL     1      48.413   9.114  14.737  0.00  0.00    +0.000 C 
ENDBRANCH   1  32
TORSDOF 6
ENDMDL
MODEL 5
REMARK VINA RESULT:    -6.429      3.520      8.104
REMARK INTER + INTRA:          -9.765
REMARK INTER:                  -8.866
REMARK INTRA:                  -0.899
REMARK UNBOUND:                -1.081
REMARK  Name = 
REMARK  8 active torsions:
REMARK  status: ('A' for Active; 'I' for Inactive)
REMARK    1  A    between atoms: C_1  and  C_2
REMARK    2  A    between atoms: C_2  and  C_3
REMARK    3  A    between atoms: C_3  and  N_4
REMARK    4  A    between atoms: C_3  and  C_17
REMARK    5  A    between atoms: C_5  and  C_7
REMARK    6  A    between atoms: C_20  and  C_21
REMARK    7  A    between atoms: C_21  and  C_22
REMARK    8  A    between atoms: C_21  and  N_23
REMARK                            x       y       z     vdW  Elec       q    Type
REMARK                         _______ _______ _______ _____ _____    ______ ____
ROOT
ATOM      1  C   UNL     1      48.363   8.349  12.244  0.00  0.00    +0.000 C 
ENDROOT
BRANCH   1   2
ATOM      2  C   UNL     1      48.545   8.087  13.737  0.00  0.00    +0.000 A 
ATOM      3  C   UNL     1      49.172   6.885  14.101  0.00  0.00    +0.000 A 
ATOM      4  C   UNL     1      49.283   6.506  15.436  0.00  0.00    +0.000 A 
ATOM      5  C   UNL     1      48.808   7.321  16.471  0.00  0.00    +0.000 A 
ATOM      6  C   UNL     1      48.197   8.537  16.120  0.00  0.00    +0.000 A 
ATOM      7  C   UNL     1      48.055   8.910  14.769  0.00  0.00    +0.000 A 
BRANCH   5   8
ATOM      8  C   UNL     1      49.022   6.852  17.907  0.00  0.00    +0.000 C 
ATOM      9  C   UNL     1      48.564   7.924  18.906  0.00  0.00    +0.000 C 
BRANCH   8  10
ATOM     10  N   UNL     1      48.566   5.497  18.172  0.00  0.00    +0.000 NA
ATOM     11  C   UNL     1      49.557   4.460  18.441  0.00  0.00    +0.000 C 
ATOM     12  C   UNL     1      49.478   3.302  17.437  0.00  0.00    +0.000 C 
ATOM     13  O   UNL     1      48.147   2.776  17.350  0.00  0.00    +0.000 OA
ATOM     14  C   UNL     1      47.242   3.800  16.918  0.00  0.00    +0.000 C 
ATOM     15  C   UNL     1      47.234   5.008  17.870  0.00  0.00    +0.000 C 
ENDBRANCH   8  10
ENDBRANCH   5   8
ENDBRANCH   1   2
BRANCH   1  16
ATOM     16  N   UNL     1      47.651   7.219  11.651  0.00  0.00    +0.000 N 
ATOM     17  C   UNL     1      46.287   7.057  11.730  0.00  0.00    +0.000 C 
ATOM     18  O   UNL     1      45.582   7.856  12.344  0.00  0.00    +0.000 OA
ATOM     19  H   UNL     1      48.221   6.520  11.179  0.00  0.00    +0.000 HD
BRANCH  17  20
ATOM     20  C   UNL     1      45.686   5.906  11.028  0.00  0.00    +0.000 A 
ATOM     21  C   UNL     1      45.909   5.753   9.661  0.00  0.00    +0.000 A 
ATOM     22  S   UNL     1      45.204   4.353   8.994  0.00  0.00    +0.000 S 
ATOM     23  C   UNL     1      44.547   3.906  10.497  0.00  0.00    +0.000 A 
ATOM     24  N   UNL     1      43.808   2.770  10.619  0.00  0.00    +0.000 NA
ATOM     25  C   UNL     1      43.360   2.549  11.809  0.00  0.00    +0.000 A 
ATOM     26  N   UNL     1      43.585   3.363  12.888  0.00  0.00    +0.000 N 
ATOM     27  C   UNL     1      44.311   4.526  12.808  0.00  0.00    +0.000 A 
ATOM     28  O   UNL     1      44.454   5.250  13.790  0.00  0.00    +0.000 OA
ATOM     29  C   UNL     1      44.858   4.815  11.495  0.00  0.00    +0.000 A 
ATOM     30  H   UNL     1      43.192   3.145  13.791  0.00  0.00    +0.000 HD
ENDBRANCH  17  20
ENDBRANCH   1  16
BRANCH   1  32
ATOM     31  C   UNL     1      48.709  10.772  11.506  0.00  0.00    +0.000 C 
ATOM     32  C   UNL     1      47.701   9.682  11.848  0.00  0.00    +0.000 C 
ENDBRANCH   1  32
TORSDOF 6
ENDMDL
MODEL 6
REMARK VINA RESULT:    -6.226      3.070      5.063
REMARK INTER + INTRA:          -9.491
REMARK INTER:                  -8.053
REMARK INTRA:                  -1.438
REMARK UNBOUND:                -1.081
REMARK  Name = 
REMARK  8 active torsions:
REMARK  status: ('A' for Active; 'I' for Inactive)
REMARK    1  A    between atoms: C_1  and  C_2
REMARK    2  A    between atoms: C_2  and  C_3
REMARK    3  A    between atoms: C_3  and  N_4
REMARK    4  A    between atoms: C_3  and  C_17
REMARK    5  A    between atoms: C_5  and  C_7
REMARK    6  A    between atoms: C_20  and  C_21
REMARK    7  A    between atoms: C_21  and  C_22
REMARK    8  A    between atoms: C_21  and  N_23
REMARK                            x       y       z     vdW  Elec       q    Type
REMARK                         _______ _______ _______ _____ _____    ______ ____
ROOT
ATOM      1  C   UNL     1      48.004   9.103  14.122  0.00  0.00    +0.000 C 
ENDROOT
BRANCH   1   2
ATOM      2  C   UNL     1      47.108   8.304  13.179  0.00  0.00    +0.000 A 
ATOM      3  C   UNL     1      47.593   7.061  12.741  0.00  0.00    +0.000 A 
ATOM      4  C   UNL     1      46.901   6.310  11.795  0.00  0.00    +0.000 A 
ATOM      5  C   UNL     1      45.678   6.745  11.268  0.00  0.00    +0.000 A 
ATOM      6  C   UNL     1      45.172   7.977  11.713  0.00  0.00    +0.000 A 
ATOM      7  C   UNL     1      45.885   8.754  12.648  0.00  0.00    +0.000 A 
BRANCH   5   8
ATOM      8  C   UNL     1      44.962   5.832  10.277  0.00  0.00    +0.000 C 
ATOM      9  C   UNL     1      45.915   5.383   9.160  0.00  0.00    +0.000 C 
BRANCH   8  10
ATOM     10  N   UNL     1      44.162   4.785  10.891  0.00  0.00    +0.000 NA
ATOM     11  C   UNL     1      43.009   5.164  11.702  0.00  0.00    +0.000 C 
ATOM     12  C   UNL     1      43.115   4.650  13.144  0.00  0.00    +0.000 C 
ATOM     13  O   UNL     1      43.367   3.239  13.179  0.00  0.00    +0.000 OA
ATOM     14  C   UNL     1      44.601   2.944  12.511  0.00  0.00    +0.000 C 
ATOM     15  C   UNL     1      44.592   3.408  11.044  0.00  0.00    +0.000 C 
ENDBRANCH   8  10
ENDBRANCH   5   8
ENDBRANCH   1   2
BRANCH   1  16
ATOM     16  N   UNL     1      48.664   8.179  15.042  0.00  0.00    +0.000 N 
ATOM     17  C   UNL     1      48.581   8.284  16.410  0.00  0.00    +0.000 C 
ATOM     18  O   UNL     1      47.960   9.200  16.946  0.00  0.00    +0.000 OA
ATOM     19  H   UNL     1      49.224   7.441  14.619  0.00  0.00    +0.000 HD
BRANCH  17  20
ATOM     20  C   UNL     1      49.238   7.242  17.225  0.00  0.00    +0.000 A 
ATOM     21  C   UNL     1      50.201   7.618  18.159  0.00  0.00    +0.000 A 
ATOM     22  S   UNL     1      50.832   6.321  19.066  0.00  0.00    +0.000 S 
ATOM     23  C   UNL     1      49.867   5.199  18.229  0.00  0.00    +0.000 A 
ATOM     24  N   UNL     1      49.930   3.874  18.530  0.00  0.00    +0.000 NA
ATOM     25  C   UNL     1      49.154   3.127  17.818  0.00  0.00    +0.000 A 
ATOM     26  N   UNL     1      48.322   3.589  16.831  0.00  0.00    +0.000 N 
ATOM     27  C   UNL     1      48.239   4.915  16.484  0.00  0.00    +0.000 A 
ATOM     28  O   UNL     1      47.512   5.282  15.564  0.00  0.00    +0.000 OA
ATOM     29  C   UNL     1      49.076   5.805  17.267  0.00  0.00    +0.000 A 
ATOM     30  H   UNL     1      47.752   2.951  16.296  0.00  0.00    +0.000 HD
ENDBRANCH  17  20
ENDBRANCH   1  16
BRANCH   1  32
ATOM     31  C   UNL     1      49.073   9.930  11.952  0.00  0.00    +0.000 C 
ATOM     32  C   UNL     1      49.028  10.051  13.470  0.00  0.00    +0.000 C 
ENDBRANCH   1  32
TORSDOF 6
ENDMDL
MODEL 7
REMARK VINA RESULT:    -6.177      3.706      8.223
REMARK INTER + INTRA:          -9.425
REMARK INTER:                  -8.690
REMARK INTRA:                  -0.735
REMARK UNBOUND:                -1.081
REMARK  Name = 
REMARK  8 active torsions:
REMARK  status: ('A' for Active; 'I' for Inactive)
REMARK    1  A    between atoms: C_1  and  C_2
REMARK    2  A    between atoms: C_2  and  C_3
REMARK    3  A    between atoms: C_3  and  N_4
REMARK    4  A    between atoms: C_3  and  C_17
REMARK    5  A    between atoms: C_5  and  C_7
REMARK    6  A    between atoms: C_20  and  C_21
REMARK    7  A    between atoms: C_21  and  C_22
REMARK    8  A    between atoms: C_21  and  N_23
REMARK                            x       y       z     vdW  Elec       q    Type
REMARK                         _______ _______ _______ _____ _____    ______ ____
ROOT
ATOM      1  C   UNL     1      49.157   7.921  13.065  0.00  0.00    +0.000 C 
ENDROOT
BRANCH   1   2
ATOM      2  C   UNL     1      49.106   7.976  14.589  0.00  0.00    +0.000 A 
ATOM      3  C   UNL     1      48.167   8.848  15.165  0.00  0.00    +0.000 A 
ATOM      4  C   UNL     1      48.121   9.051  16.541  0.00  0.00    +0.000 A 
ATOM      5  C   UNL     1      48.983   8.370  17.411  0.00  0.00    +0.000 A 
ATOM      6  C   UNL     1      49.913   7.479  16.849  0.00  0.00    +0.000 A 
ATOM      7  C   UNL     1      49.983   7.295  15.455  0.00  0.00    +0.000 A 
BRANCH   5   8
ATOM      8  C   UNL     1      48.825   8.613  18.909  0.00  0.00    +0.000 C 
ATOM      9  C   UNL     1      47.858   9.776  19.175  0.00  0.00    +0.000 C 
BRANCH   8  10
ATOM     10  N   UNL     1      48.606   7.409  19.695  0.00  0.00    +0.000 NA
ATOM     11  C   UNL     1      49.664   6.948  20.588  0.00  0.00    +0.000 C 
ATOM     12  C   UNL     1      50.138   5.529  20.248  0.00  0.00    +0.000 C 
ATOM     13  O   UNL     1      49.038   4.611  20.187  0.00  0.00    +0.000 OA
ATOM     14  C   UNL     1      48.111   5.024  19.175  0.00  0.00    +0.000 C 
ATOM     15  C   UNL     1      47.562   6.438  19.431  0.00  0.00    +0.000 C 
ENDBRANCH   8  10
ENDBRANCH   5   8
ENDBRANCH   1   2
BRANCH   1  16
ATOM     16  N   UNL     1      47.847   7.511  12.565  0.00  0.00    +0.000 N 
ATOM     17  C   UNL     1      47.350   6.236  12.701  0.00  0.00    +0.000 C 
ATOM     18  O   UNL     1      48.008   5.345  13.235  0.00  0.00    +0.000 OA
ATOM     19  H   UNL     1      47.304   8.221  12.076  0.00  0.00    +0.000 HD
BRANCH  17  20
ATOM     20  C   UNL     1      45.982   5.971  12.212  0.00  0.00    +0.000 A 
ATOM     21  C   UNL     1      45.244   7.016  11.661  0.00  0.00    +0.000 A 
ATOM     22  S   UNL     1      43.707   6.555  11.087  0.00  0.00    +0.000 S 
ATOM     23  C   UNL     1      43.951   4.945  11.575  0.00  0.00    +0.000 A 
ATOM     24  N   UNL     1      42.988   4.007  11.369  0.00  0.00    +0.000 NA
ATOM     25  C   UNL     1      43.294   2.826  11.792  0.00  0.00    +0.000 A 
ATOM     26  N   UNL     1      44.476   2.502  12.404  0.00  0.00    +0.000 N 
ATOM     27  C   UNL     1      45.468   3.419  12.647  0.00  0.00    +0.000 A 
ATOM     28  O   UNL     1      46.496   3.097  13.237  0.00  0.00    +0.000 OA
ATOM     29  C   UNL     1      45.188   4.762  12.173  0.00  0.00    +0.000 A 
ATOM     30  H   UNL     1      44.648   1.563  12.730  0.00  0.00    +0.000 HD
ENDBRANCH  17  20
ENDBRANCH   1  16
BRANCH   1  32
ATOM     31  C   UNL     1      48.539   9.912  11.583  0.00  0.00    +0.000 C 
ATOM     32  C   UNL     1      49.647   9.189  12.340  0.00  0.00    +0.000 C 
ENDBRANCH   1  32
TORSDOF 6
ENDMDL
MODEL 8
REMARK VINA RESULT:    -6.015      3.521      8.607
REMARK INTER + INTRA:          -9.206
REMARK INTER:                  -8.020
REMARK INTRA:                  -1.186
REMARK UNBOUND:                -1.081
REMARK  Name = 
REMARK  8 active torsions:
REMARK  status: ('A' for Active; 'I' for Inactive)
REMARK    1  A    between atoms: C_1  and  C_2
REMARK    2  A    between atoms: C_2  and  C_3
REMARK    3  A    between atoms: C_3  and  N_4
REMARK    4  A    between atoms: C_3  and  C_17
REMARK    5  A    between atoms: C_5  and  C_7
REMARK    6  A    between atoms: C_20  and  C_21
REMARK    7  A    between atoms: C_21  and  C_22
REMARK    8  A    between atoms: C_21  and  N_23
REMARK                            x       y       z     vdW  Elec       q    Type
REMARK                         _______ _______ _______ _____ _____    ______ ____
ROOT
ATOM      1  C   UNL     1      49.070   8.750  13.829  0.00  0.00    +0.000 C 
ENDROOT
BRANCH   1   2
ATOM      2  C   UNL     1      49.345   8.142  15.202  0.00  0.00    +0.000 A 
ATOM      3  C   UNL     1      50.494   7.344  15.327  0.00  0.00    +0.000 A 
ATOM      4  C   UNL     1      50.770   6.658  16.507  0.00  0.00    +0.000 A 
ATOM      5  C   UNL     1      49.935   6.761  17.627  0.00  0.00    +0.000 A 
ATOM      6  C   UNL     1      48.793   7.573  17.521  0.00  0.00    +0.000 A 
ATOM      7  C   UNL     1      48.494   8.245  16.320  0.00  0.00    +0.000 A 
BRANCH   5   8
ATOM      8  C   UNL     1      50.344   6.018  18.895  0.00  0.00    +0.000 C 
ATOM      9  C   UNL     1      49.793   6.722  20.143  0.00  0.00    +0.000 C 
BRANCH   8  10
ATOM     10  N   UNL     1      50.152   4.578  18.837  0.00  0.00    +0.000 NA
ATOM     11  C   UNL     1      51.316   3.718  18.652  0.00  0.00    +0.000 C 
ATOM     12  C   UNL     1      51.208   2.853  17.389  0.00  0.00    +0.000 C 
ATOM     13  O   UNL     1      49.977   2.118  17.362  0.00  0.00    +0.000 OA
ATOM     14  C   UNL     1      48.865   3.023  17.377  0.00  0.00    +0.000 C 
ATOM     15  C   UNL     1      48.872   3.931  18.618  0.00  0.00    +0.000 C 
ENDBRANCH   8  10
ENDBRANCH   5   8
ENDBRANCH   1   2
BRANCH   1  16
ATOM     16  N   UNL     1      47.819   8.198  13.312  0.00  0.00    +0.000 N 
ATOM     17  C   UNL     1      47.705   6.926  12.804  0.00  0.00    +0.000 C 
ATOM     18  O   UNL     1      48.678   6.178  12.726  0.00  0.00    +0.000 OA
ATOM     19  H   UNL     1      47.011   8.819  13.323  0.00  0.00    +0.000 HD
BRANCH  17  20
ATOM     20  C   UNL     1      46.367   6.469  12.379  0.00  0.00    +0.000 A 
ATOM     21  C   UNL     1      45.498   7.377  11.780  0.00  0.00    +0.000 A 
ATOM     22  S   UNL     1      44.014   6.700  11.289  0.00  0.00    +0.000 S 
ATOM     23  C   UNL     1      44.458   5.169  11.881  0.00  0.00    +0.000 A 
ATOM     24  N   UNL     1      43.608   4.113  11.773  0.00  0.00    +0.000 NA
ATOM     25  C   UNL     1      44.061   3.010  12.268  0.00  0.00    +0.000 A 
ATOM     26  N   UNL     1      45.288   2.871  12.864  0.00  0.00    +0.000 N 
ATOM     27  C   UNL     1      46.170   3.913  13.009  0.00  0.00    +0.000 A 
ATOM     28  O   UNL     1      47.242   3.757  13.587  0.00  0.00    +0.000 OA
ATOM     29  C   UNL     1      45.721   5.176  12.450  0.00  0.00    +0.000 A 
ATOM     30  H   UNL     1      45.577   1.985  13.249  0.00  0.00    +0.000 HD
ENDBRANCH  17  20
ENDBRANCH   1  16
BRANCH   1  32
ATOM     31  C   UNL     1      50.175  10.936  14.563  0.00  0.00    +0.000 C 
ATOM     32  C   UNL     1      49.070  10.287  13.737  0.00  0.00    +0.000 C 
ENDBRANCH   1  32
TORSDOF 6
ENDMDL
MODEL 9
REMARK VINA RESULT:    -5.956      3.792      5.406
REMARK INTER + INTRA:          -9.126
REMARK INTER:                  -8.272
REMARK INTRA:                  -0.854
REMARK UNBOUND:                -1.081
REMARK  Name = 
REMARK  8 active torsions:
REMARK  status: ('A' for Active; 'I' for Inactive)
REMARK    1  A    between atoms: C_1  and  C_2
REMARK    2  A    between atoms: C_2  and  C_3
REMARK    3  A    between atoms: C_3  and  N_4
REMARK    4  A    between atoms: C_3  and  C_17
REMARK    5  A    between atoms: C_5  and  C_7
REMARK    6  A    between atoms: C_20  and  C_21
REMARK    7  A    between atoms: C_21  and  C_22
REMARK    8  A    between atoms: C_21  and  N_23
REMARK                            x       y       z     vdW  Elec       q    Type
REMARK                         _______ _______ _______ _____ _____    ______ ____
ROOT
ATOM      1  C   UNL     1      48.454   4.916  16.285  0.00  0.00    +0.000 C 
ENDROOT
BRANCH   1   2
ATOM      2  C   UNL     1      47.719   5.094  14.959  0.00  0.00    +0.000 A 
ATOM      3  C   UNL     1      47.702   6.385  14.407  0.00  0.00    +0.000 A 
ATOM      4  C   UNL     1      46.965   6.670  13.261  0.00  0.00    +0.000 A 
ATOM      5  C   UNL     1      46.239   5.676  12.591  0.00  0.00    +0.000 A 
ATOM      6  C   UNL     1      46.264   4.376  13.122  0.00  0.00    +0.000 A 
ATOM      7  C   UNL     1      46.984   4.090  14.299  0.00  0.00    +0.000 A 
BRANCH   5   8
ATOM      8  C   UNL     1      45.505   6.067  11.312  0.00  0.00    +0.000 C 
ATOM      9  C   UNL     1      46.499   6.455  10.208  0.00  0.00    +0.000 C 
BRANCH   8  10
ATOM     10  N   UNL     1      44.445   5.152  10.923  0.00  0.00    +0.000 NA
ATOM     11  C   UNL     1      43.348   4.907  11.853  0.00  0.00    +0.000 C 
ATOM     12  C   UNL     1      43.225   3.425  12.233  0.00  0.00    +0.000 C 
ATOM     13  O   UNL     1      43.149   2.591  11.069  0.00  0.00    +0.000 OA
ATOM     14  C   UNL     1      44.332   2.749  10.274  0.00  0.00    +0.000 C 
ATOM     15  C   UNL     1      44.541   4.206   9.827  0.00  0.00    +0.000 C 
ENDBRANCH   8  10
ENDBRANCH   5   8
ENDBRANCH   1   2
BRANCH   1  16
ATOM     16  N   UNL     1      47.980   5.929  17.225  0.00  0.00    +0.000 N 
ATOM     17  C   UNL     1      48.780   6.510  18.180  0.00  0.00    +0.000 C 
ATOM     18  O   UNL     1      49.957   6.179  18.318  0.00  0.00    +0.000 OA
ATOM     19  H   UNL     1      46.995   6.182  17.161  0.00  0.00    +0.000 HD
BRANCH  17  20
ATOM     20  C   UNL     1      48.193   7.571  19.022  0.00  0.00    +0.000 A 
ATOM     21  C   UNL     1      47.894   7.294  20.354  0.00  0.00    +0.000 A 
ATOM     22  S   UNL     1      47.276   8.624  21.220  0.00  0.00    +0.000 S 
ATOM     23  C   UNL     1      47.356   9.621  19.845  0.00  0.00    +0.000 A 
ATOM     24  N   UNL     1      46.961  10.921  19.910  0.00  0.00    +0.000 NA
ATOM     25  C   UNL     1      47.063  11.567  18.797  0.00  0.00    +0.000 A 
ATOM     26  N   UNL     1      47.524  11.027  17.625  0.00  0.00    +0.000 N 
ATOM     27  C   UNL     1      47.917   9.716  17.510  0.00  0.00    +0.000 A 
ATOM     28  O   UNL     1      48.284   9.260  16.430  0.00  0.00    +0.000 OA
ATOM     29  C   UNL     1      47.843   8.946  18.738  0.00  0.00    +0.000 A 
ATOM     30  H   UNL     1      47.563  11.579  16.782  0.00  0.00    +0.000 HD
ENDBRANCH  17  20
ENDBRANCH   1  16
BRANCH   1  32
ATOM     31  C   UNL     1      47.119   3.242  17.682  0.00  0.00    +0.000 C 
ATOM     32  C   UNL     1      48.411   3.514  16.921  0.00  0.00    +0.000 C 
ENDBRANCH   1  32
TORSDOF 6
ENDMDL
