MODEL 1
REMARK VINA RESULT:    -7.876      0.000      0.000
REMARK INTER + INTRA:         -10.307
REMARK INTER:                  -9.718
REMARK INTRA:                  -0.590
REMARK UNBOUND:                -0.590
REMARK  Name = 
REMARK  5 active torsions:
REMARK  status: ('A' for Active; 'I' for Inactive)
REMARK    1  A    between atoms: C_1  and  C_2
REMARK    2  A    between atoms: C_9  and  C_10
REMARK    3  A    between atoms: C_10  and  N_11
REMARK    4  A    between atoms: N_11  and  C_12
REMARK    5  A    between atoms: C_15  and  C_16
REMARK                            x       y       z     vdW  Elec       q    Type
REMARK                         _______ _______ _______ _____ _____    ______ ____
ROOT
ATOM      1  C   UNL     1      48.693   7.450  15.446  0.00  0.00    +0.000 C 
ATOM      2  C   UNL     1      49.200   8.034  14.124  0.00  0.00    +0.000 C 
ATOM      3  C   UNL     1      49.098   7.012  12.955  0.00  0.00    +0.000 C 
ATOM      4  N   UNL     1      47.737   6.919  12.425  0.00  0.00    +0.000 N 
ATOM      5  C   UNL     1      46.977   5.791  12.628  0.00  0.00    +0.000 A 
ATOM      6  N   UNL     1      47.509   4.764  13.308  0.00  0.00    +0.000 NA
ATOM      7  C   UNL     1      46.765   3.653  13.453  0.00  0.00    +0.000 A 
ATOM      8  C   UNL     1      45.503   3.509  12.933  0.00  0.00    +0.000 A 
ATOM      9  C   UNL     1      45.029   4.583  12.212  0.00  0.00    +0.000 A 
ATOM     10  N   UNL     1      45.749   5.726  12.083  0.00  0.00    +0.000 NA
ATOM     11  C   UNL     1      47.086   8.188  12.115  0.00  0.00    +0.000 C 
ATOM     12  C   UNL     1      47.188   9.156  13.314  0.00  0.00    +0.000 C 
ATOM     13  N   UNL     1      48.559   9.338  13.827  0.00  0.00    +0.000 NA
ATOM     14  H   UNL     1      48.529   9.906  14.673  0.00  0.00    +0.000 HD
ENDROOT
BRANCH   9  15
ATOM     15  C   UNL     1      43.712   4.473  11.457  0.00  0.00    +0.000 C 
BRANCH  15  16
ATOM     16  N   UNL     1      43.852   4.737  10.025  0.00  0.00    +0.000 N 
ATOM     17  H   UNL     1      42.969   4.856   9.540  0.00  0.00    +0.000 HD
BRANCH  16  18
ATOM     18  C   UNL     1      44.792   4.034   9.262  0.00  0.00    +0.000 A 
ATOM     19  C   UNL     1      45.728   4.634   8.410  0.00  0.00    +0.000 A 
ATOM     20  C   UNL     1      46.610   3.868   7.640  0.00  0.00    +0.000 A 
ATOM     21  C   UNL     1      46.559   2.475   7.678  0.00  0.00    +0.000 A 
ATOM     22  C   UNL     1      45.600   1.853   8.481  0.00  0.00    +0.000 A 
ATOM     23  C   UNL     1      44.722   2.631   9.251  0.00  0.00    +0.000 A 
BRANCH  21  24
ATOM     24  C   UNL     1      47.493   1.706   6.818  0.00  0.00    +0.000 C 
ATOM     25  N   UNL     1      48.491   2.388   6.174  0.00  0.00    +0.000 N 
ATOM     26  O   UNL     1      47.375   0.496   6.659  0.00  0.00    +0.000 OA
ATOM     27  H   UNL     1      48.535   3.396   6.124  0.00  0.00    +0.000 HD
ATOM     28  H   UNL     1      49.072   1.852   5.540  0.00  0.00    +0.000 HD
ENDBRANCH  21  24
ENDBRANCH  16  18
ENDBRANCH  15  16
ENDBRANCH   9  15
TORSDOF 4
ENDMDL
MODEL 2
REMARK VINA RESULT:    -6.836      3.201      5.493
REMARK INTER + INTRA:          -9.024
REMARK INTER:                  -8.650
REMARK INTRA:                  -0.374
REMARK UNBOUND:                -0.590
REMARK  Name = 
REMARK  5 active torsions:
REMARK  status: ('A' for Active; 'I' for Inactive)
REMARK    1  A    between atoms: C_1  and  C_2
REMARK    2  A    between atoms: C_9  and  C_10
REMARK    3  A    between atoms: C_10  and  N_11
REMARK    4  A    between atoms: N_11  and  C_12
REMARK    5  A    between atoms: C_15  and  C_16
REMARK                            x       y       z     vdW  Elec       q    Type
REMARK                         _______ _______ _______ _____ _____    ______ ____
ROOT
ATOM      1  C   UNL     1      50.542   4.475  19.111  0.00  0.00    +0.000 C 
ATOM      2  C   UNL     1      49.034   4.452  19.380  0.00  0.00    +0.000 C 
ATOM      3  C   UNL     1      48.309   5.683  18.764  0.00  0.00    +0.000 C 
ATOM      4  N   UNL     1      48.084   5.524  17.327  0.00  0.00    +0.000 N 
ATOM      5  C   UNL     1      48.779   6.283  16.415  0.00  0.00    +0.000 A 
ATOM      6  N   UNL     1      49.661   7.190  16.864  0.00  0.00    +0.000 NA
ATOM      7  C   UNL     1      50.294   7.953  15.957  0.00  0.00    +0.000 A 
ATOM      8  C   UNL     1      50.078   7.866  14.604  0.00  0.00    +0.000 A 
ATOM      9  C   UNL     1      49.132   6.945  14.210  0.00  0.00    +0.000 A 
ATOM     10  N   UNL     1      48.507   6.140  15.105  0.00  0.00    +0.000 NA
ATOM     11  C   UNL     1      47.484   4.259  16.913  0.00  0.00    +0.000 C 
ATOM     12  C   UNL     1      48.255   3.068  17.525  0.00  0.00    +0.000 C 
ATOM     13  N   UNL     1      48.433   3.154  18.987  0.00  0.00    +0.000 NA
ATOM     14  H   UNL     1      49.033   2.391  19.298  0.00  0.00    +0.000 HD
ENDROOT
BRANCH   9  15
ATOM     15  C   UNL     1      48.695   6.876  12.753  0.00  0.00    +0.000 C 
BRANCH  15  16
ATOM     16  N   UNL     1      47.259   7.090  12.578  0.00  0.00    +0.000 N 
ATOM     17  H   UNL     1      46.842   7.688  13.283  0.00  0.00    +0.000 HD
BRANCH  16  18
ATOM     18  C   UNL     1      46.423   6.028  12.213  0.00  0.00    +0.000 A 
ATOM     19  C   UNL     1      46.206   4.887  12.996  0.00  0.00    +0.000 A 
ATOM     20  C   UNL     1      45.393   3.840  12.550  0.00  0.00    +0.000 A 
ATOM     21  C   UNL     1      44.796   3.892  11.290  0.00  0.00    +0.000 A 
ATOM     22  C   UNL     1      45.038   4.997  10.470  0.00  0.00    +0.000 A 
ATOM     23  C   UNL     1      45.854   6.041  10.929  0.00  0.00    +0.000 A 
BRANCH  21  24
ATOM     24  C   UNL     1      43.968   2.742  10.847  0.00  0.00    +0.000 C 
ATOM     25  N   UNL     1      44.368   2.045   9.738  0.00  0.00    +0.000 N 
ATOM     26  O   UNL     1      42.940   2.425  11.435  0.00  0.00    +0.000 OA
ATOM     27  H   UNL     1      45.098   2.361   9.115  0.00  0.00    +0.000 HD
ATOM     28  H   UNL     1      43.749   1.310   9.417  0.00  0.00    +0.000 HD
ENDBRANCH  21  24
ENDBRANCH  16  18
ENDBRANCH  15  16
ENDBRANCH   9  15
TORSDOF 4
ENDMDL
MODEL 3
REMARK VINA RESULT:    -6.464      4.943      8.178
REMARK INTER + INTRA:          -8.566
REMARK INTER:                  -8.154
REMARK INTRA:                  -0.411
REMARK UNBOUND:                -0.590
REMARK  Name = 
REMARK  5 active torsions:
REMARK  status: ('A' for Active; 'I' for Inactive)
REMARK    1  A    between atoms: C_1  and  C_2
REMARK    2  A    between atoms: C_9  and  C_10
REMARK    3  A    between atoms: C_10  and  N_11
REMARK    4  A    between atoms: N_11  and  C_12
REMARK    5  A    between atoms: C_15  and  C_16
REMARK                            x       y       z     vdW  Elec       q    Type
REMARK                         _______ _______ _______ _____ _____    ______ ____
ROOT
ATOM      1  C   UNL     1      44.165   7.369  11.425  0.00  0.00    +0.000 C 
ATOM      2  C   UNL     1      44.003   5.949  10.875  0.00  0.00    +0.000 C 
ATOM      3  C   UNL     1      45.276   5.083  11.100  0.00  0.00    +0.000 C 
ATOM      4  N   UNL     1      45.357   4.574  12.469  0.00  0.00    +0.000 N 
ATOM      5  C   UNL     1      46.305   5.050  13.344  0.00  0.00    +0.000 A 
ATOM      6  N   UNL     1      47.172   5.982  12.918  0.00  0.00    +0.000 NA
ATOM      7  C   UNL     1      48.120   6.398  13.776  0.00  0.00    +0.000 A 
ATOM      8  C   UNL     1      48.257   5.913  15.052  0.00  0.00    +0.000 A 
ATOM      9  C   UNL     1      47.363   4.929  15.416  0.00  0.00    +0.000 A 
ATOM     10  N   UNL     1      46.377   4.521  14.580  0.00  0.00    +0.000 NA
ATOM     11  C   UNL     1      44.149   3.934  12.984  0.00  0.00    +0.000 C 
ATOM     12  C   UNL     1      42.920   4.844  12.764  0.00  0.00    +0.000 C 
ATOM     13  N   UNL     1      42.759   5.313  11.375  0.00  0.00    +0.000 NA
ATOM     14  H   UNL     1      41.992   5.983  11.333  0.00  0.00    +0.000 HD
ENDROOT
BRANCH   9  15
ATOM     15  C   UNL     1      47.524   4.208  16.747  0.00  0.00    +0.000 C 
BRANCH  15  16
ATOM     16  N   UNL     1      48.748   4.582  17.454  0.00  0.00    +0.000 N 
ATOM     17  H   UNL     1      49.033   5.545  17.303  0.00  0.00    +0.000 HD
BRANCH  16  18
ATOM     18  C   UNL     1      49.835   3.703  17.507  0.00  0.00    +0.000 A 
ATOM     19  C   UNL     1      49.783   2.356  17.125  0.00  0.00    +0.000 A 
ATOM     20  C   UNL     1      50.897   1.520  17.247  0.00  0.00    +0.000 A 
ATOM     21  C   UNL     1      52.091   2.001  17.785  0.00  0.00    +0.000 A 
ATOM     22  C   UNL     1      52.152   3.327  18.221  0.00  0.00    +0.000 A 
ATOM     23  C   UNL     1      51.029   4.157  18.092  0.00  0.00    +0.000 A 
BRANCH  21  24
ATOM     24  C   UNL     1      53.236   1.066  17.925  0.00  0.00    +0.000 C 
ATOM     25  N   UNL     1      53.369   0.062  17.002  0.00  0.00    +0.000 N 
ATOM     26  O   UNL     1      54.036   1.161  18.848  0.00  0.00    +0.000 OA
ATOM     27  H   UNL     1      52.653  -0.174  16.329  0.00  0.00    +0.000 HD
ATOM     28  H   UNL     1      54.117  -0.603  17.159  0.00  0.00    +0.000 HD
ENDBRANCH  21  24
ENDBRANCH  16  18
ENDBRANCH  15  16
ENDBRANCH   9  15
TORSDOF 4
ENDMDL
MODEL 4
REMARK VINA RESULT:    -6.246      3.967      6.326
REMARK INTER + INTRA:          -8.296
REMARK INTER:                  -7.919
REMARK INTRA:                  -0.378
REMARK UNBOUND:                -0.590
REMARK  Name = 
REMARK  5 active torsions:
REMARK  status: ('A' for Active; 'I' for Inactive)
REMARK    1  A    between atoms: C_1  and  C_2
REMARK    2  A    between atoms: C_9  and  C_10
REMARK    3  A    between atoms: C_10  and  N_11
REMARK    4  A    between atoms: N_11  and  C_12
REMARK    5  A    between atoms: C_15  and  C_16
REMARK                            x       y       z     vdW  Elec       q    Type
REMARK                         _______ _______ _______ _____ _____    ______ ____
ROOT
ATOM      1  C   UNL     1      53.724   3.446  17.485  0.00  0.00    +0.000 C 
ATOM      2  C   UNL     1      52.701   3.127  18.580  0.00  0.00    +0.000 C 
ATOM      3  C   UNL     1      51.780   4.341  18.893  0.00  0.00    +0.000 C 
ATOM      4  N   UNL     1      50.714   4.490  17.901  0.00  0.00    +0.000 N 
ATOM      5  C   UNL     1      50.718   5.540  17.013  0.00  0.00    +0.000 A 
ATOM      6  N   UNL     1      51.710   6.441  17.079  0.00  0.00    +0.000 NA
ATOM      7  C   UNL     1      51.669   7.485  16.232  0.00  0.00    +0.000 A 
ATOM      8  C   UNL     1      50.664   7.684  15.319  0.00  0.00    +0.000 A 
ATOM      9  C   UNL     1      49.654   6.747  15.328  0.00  0.00    +0.000 A 
ATOM     10  N   UNL     1      49.694   5.668  16.149  0.00  0.00    +0.000 NA
ATOM     11  C   UNL     1      49.957   3.280  17.592  0.00  0.00    +0.000 C 
ATOM     12  C   UNL     1      50.913   2.114  17.260  0.00  0.00    +0.000 C 
ATOM     13  N   UNL     1      51.956   1.881  18.279  0.00  0.00    +0.000 NA
ATOM     14  H   UNL     1      52.601   1.168  17.942  0.00  0.00    +0.000 HD
ENDROOT
BRANCH   9  15
ATOM     15  C   UNL     1      48.412   6.955  14.473  0.00  0.00    +0.000 C 
BRANCH  15  16
ATOM     16  N   UNL     1      47.402   5.917  14.673  0.00  0.00    +0.000 N 
ATOM     17  H   UNL     1      47.697   5.169  15.293  0.00  0.00    +0.000 HD
BRANCH  16  18
ATOM     18  C   UNL     1      46.639   5.451  13.596  0.00  0.00    +0.000 A 
ATOM     19  C   UNL     1      46.047   4.183  13.535  0.00  0.00    +0.000 A 
ATOM     20  C   UNL     1      45.335   3.765  12.405  0.00  0.00    +0.000 A 
ATOM     21  C   UNL     1      45.222   4.594  11.290  0.00  0.00    +0.000 A 
ATOM     22  C   UNL     1      45.847   5.844  11.307  0.00  0.00    +0.000 A 
ATOM     23  C   UNL     1      46.556   6.253  12.446  0.00  0.00    +0.000 A 
BRANCH  21  24
ATOM     24  C   UNL     1      44.484   4.093  10.103  0.00  0.00    +0.000 C 
ATOM     25  N   UNL     1      44.717   4.693   8.894  0.00  0.00    +0.000 N 
ATOM     26  O   UNL     1      43.669   3.181  10.189  0.00  0.00    +0.000 OA
ATOM     27  H   UNL     1      45.238   5.553   8.790  0.00  0.00    +0.000 HD
ATOM     28  H   UNL     1      44.151   4.379   8.115  0.00  0.00    +0.000 HD
ENDBRANCH  21  24
ENDBRANCH  16  18
ENDBRANCH  15  16
ENDBRANCH   9  15
TORSDOF 4
ENDMDL
MODEL 5
REMARK VINA RESULT:    -6.123      3.791      6.026
REMARK INTER + INTRA:          -8.144
REMARK INTER:                  -7.845
REMARK INTRA:                  -0.300
REMARK UNBOUND:                -0.590
REMARK  Name = 
REMARK  5 active torsions:
REMARK  status: ('A' for Active; 'I' for Inactive)
REMARK    1  A    between atoms: C_1  and  C_2
REMARK    2  A    between atoms: C_9  and  C_10
REMARK    3  A    between atoms: C_10  and  N_11
REMARK    4  A    between atoms: N_11  and  C_12
REMARK    5  A    between atoms: C_15  and  C_16
REMARK                            x       y       z     vdW  Elec       q    Type
REMARK                         _______ _______ _______ _____ _____    ______ ____
ROOT
ATOM      1  C   UNL     1      52.204   6.388  20.078  0.00  0.00    +0.000 C 
ATOM      2  C   UNL     1      51.455   5.067  20.273  0.00  0.00    +0.000 C 
ATOM      3  C   UNL     1      49.970   5.162  19.819  0.00  0.00    +0.000 C 
ATOM      4  N   UNL     1      49.834   5.057  18.365  0.00  0.00    +0.000 N 
ATOM      5  C   UNL     1      49.466   6.146  17.611  0.00  0.00    +0.000 A 
ATOM      6  N   UNL     1      49.216   7.310  18.230  0.00  0.00    +0.000 NA
ATOM      7  C   UNL     1      48.813   8.348  17.478  0.00  0.00    +0.000 A 
ATOM      8  C   UNL     1      48.630   8.278  16.119  0.00  0.00    +0.000 A 
ATOM      9  C   UNL     1      48.864   7.047  15.549  0.00  0.00    +0.000 A 
ATOM     10  N   UNL     1      49.306   5.996  16.283  0.00  0.00    +0.000 NA
ATOM     11  C   UNL     1      50.539   3.943  17.738  0.00  0.00    +0.000 C 
ATOM     12  C   UNL     1      52.014   3.909  18.197  0.00  0.00    +0.000 C 
ATOM     13  N   UNL     1      52.189   3.932  19.662  0.00  0.00    +0.000 NA
ATOM     14  H   UNL     1      53.182   4.009  19.881  0.00  0.00    +0.000 HD
ENDROOT
BRANCH   9  15
ATOM     15  C   UNL     1      48.538   6.812  14.080  0.00  0.00    +0.000 C 
BRANCH  15  16
ATOM     16  N   UNL     1      47.137   7.082  13.757  0.00  0.00    +0.000 N 
ATOM     17  H   UNL     1      46.560   7.285  14.566  0.00  0.00    +0.000 HD
BRANCH  16  18
ATOM     18  C   UNL     1      46.468   6.310  12.800  0.00  0.00    +0.000 A 
ATOM     19  C   UNL     1      46.174   6.742  11.500  0.00  0.00    +0.000 A 
ATOM     20  C   UNL     1      45.460   5.934  10.608  0.00  0.00    +0.000 A 
ATOM     21  C   UNL     1      44.992   4.681  11.004  0.00  0.00    +0.000 A 
ATOM     22  C   UNL     1      45.229   4.250  12.311  0.00  0.00    +0.000 A 
ATOM     23  C   UNL     1      45.948   5.067  13.196  0.00  0.00    +0.000 A 
BRANCH  21  24
ATOM     24  C   UNL     1      44.211   3.874  10.032  0.00  0.00    +0.000 C 
ATOM     25  N   UNL     1      44.052   4.365   8.763  0.00  0.00    +0.000 N 
ATOM     26  O   UNL     1      43.696   2.807  10.347  0.00  0.00    +0.000 OA
ATOM     27  H   UNL     1      44.298   5.308   8.495  0.00  0.00    +0.000 HD
ATOM     28  H   UNL     1      43.457   3.830   8.141  0.00  0.00    +0.000 HD
ENDBRANCH  21  24
ENDBRANCH  16  18
ENDBRANCH  15  16
ENDBRANCH   9  15
TORSDOF 4
ENDMDL
MODEL 6
REMARK VINA RESULT:    -6.122      4.174      7.818
REMARK INTER + INTRA:          -8.143
REMARK INTER:                  -7.733
REMARK INTRA:                  -0.410
REMARK UNBOUND:                -0.590
REMARK  Name = 
REMARK  5 active torsions:
REMARK  status: ('A' for Active; 'I' for Inactive)
REMARK    1  A    between atoms: C_1  and  C_2
REMARK    2  A    between atoms: C_9  and  C_10
REMARK    3  A    between atoms: C_10  and  N_11
REMARK    4  A    between atoms: N_11  and  C_12
REMARK    5  A    between atoms: C_15  and  C_16
REMARK                            x       y       z     vdW  Elec       q    Type
REMARK                         _______ _______ _______ _____ _____    ______ ____
ROOT
ATOM      1  C   UNL     1      43.294   6.493  11.409  0.00  0.00    +0.000 C 
ATOM      2  C   UNL     1      43.981   5.224  10.895  0.00  0.00    +0.000 C 
ATOM      3  C   UNL     1      45.528   5.380  10.830  0.00  0.00    +0.000 C 
ATOM      4  N   UNL     1      46.150   5.219  12.144  0.00  0.00    +0.000 N 
ATOM      5  C   UNL     1      46.712   6.292  12.796  0.00  0.00    +0.000 A 
ATOM      6  N   UNL     1      46.695   7.494  12.199  0.00  0.00    +0.000 NA
ATOM      7  C   UNL     1      47.291   8.519  12.833  0.00  0.00    +0.000 A 
ATOM      8  C   UNL     1      47.924   8.399  14.045  0.00  0.00    +0.000 A 
ATOM      9  C   UNL     1      47.942   7.132  14.586  0.00  0.00    +0.000 A 
ATOM     10  N   UNL     1      47.317   6.092  13.981  0.00  0.00    +0.000 NA
ATOM     11  C   UNL     1      45.740   4.041  12.904  0.00  0.00    +0.000 C 
ATOM     12  C   UNL     1      44.199   3.947  12.965  0.00  0.00    +0.000 C 
ATOM     13  N   UNL     1      43.538   4.025  11.648  0.00  0.00    +0.000 NA
ATOM     14  H   UNL     1      42.529   4.057  11.780  0.00  0.00    +0.000 HD
ENDROOT
BRANCH   9  15
ATOM     15  C   UNL     1      48.753   6.852  15.844  0.00  0.00    +0.000 C 
BRANCH  15  16
ATOM     16  N   UNL     1      48.293   5.666  16.566  0.00  0.00    +0.000 N 
ATOM     17  H   UNL     1      47.631   5.867  17.308  0.00  0.00    +0.000 HD
BRANCH  16  18
ATOM     18  C   UNL     1      49.193   4.651  16.910  0.00  0.00    +0.000 A 
ATOM     19  C   UNL     1      50.511   4.871  17.330  0.00  0.00    +0.000 A 
ATOM     20  C   UNL     1      51.373   3.806  17.615  0.00  0.00    +0.000 A 
ATOM     21  C   UNL     1      50.948   2.487  17.457  0.00  0.00    +0.000 A 
ATOM     22  C   UNL     1      49.654   2.242  16.991  0.00  0.00    +0.000 A 
ATOM     23  C   UNL     1      48.798   3.318  16.711  0.00  0.00    +0.000 A 
BRANCH  21  24
ATOM     24  C   UNL     1      51.910   1.392  17.740  0.00  0.00    +0.000 C 
ATOM     25  N   UNL     1      51.416   0.195  18.186  0.00  0.00    +0.000 N 
ATOM     26  O   UNL     1      53.119   1.546  17.605  0.00  0.00    +0.000 OA
ATOM     27  H   UNL     1      50.459   0.063  18.482  0.00  0.00    +0.000 HD
ATOM     28  H   UNL     1      52.097  -0.512  18.438  0.00  0.00    +0.000 HD
ENDBRANCH  21  24
ENDBRANCH  16  18
ENDBRANCH  15  16
ENDBRANCH   9  15
TORSDOF 4
ENDMDL
MODEL 7
REMARK VINA RESULT:    -5.965      3.781      4.815
REMARK INTER + INTRA:          -7.950
REMARK INTER:                  -7.599
REMARK INTRA:                  -0.351
REMARK UNBOUND:                -0.590
REMARK  Name = 
REMARK  5 active torsions:
REMARK  status: ('A' for Active; 'I' for Inactive)
REMARK    1  A    between atoms: C_1  and  C_2
REMARK    2  A    between atoms: C_9  and  C_10
REMARK    3  A    between atoms: C_10  and  N_11
REMARK    4  A    between atoms: N_11  and  C_12
REMARK    5  A    between atoms: C_15  and  C_16
REMARK                            x       y       z     vdW  Elec       q    Type
REMARK                         _______ _______ _______ _____ _____    ______ ____
ROOT
ATOM      1  C   UNL     1      42.711  12.800  12.135  0.00  0.00    +0.000 C 
ATOM      2  C   UNL     1      42.670  12.741  10.605  0.00  0.00    +0.000 C 
ATOM      3  C   UNL     1      43.813  11.861  10.021  0.00  0.00    +0.000 C 
ATOM      4  N   UNL     1      43.506  10.433  10.113  0.00  0.00    +0.000 N 
ATOM      5  C   UNL     1      44.191   9.618  10.983  0.00  0.00    +0.000 A 
ATOM      6  N   UNL     1      45.163  10.150  11.741  0.00  0.00    +0.000 NA
ATOM      7  C   UNL     1      45.852   9.327  12.550  0.00  0.00    +0.000 A 
ATOM      8  C   UNL     1      45.625   7.975  12.632  0.00  0.00    +0.000 A 
ATOM      9  C   UNL     1      44.643   7.484  11.800  0.00  0.00    +0.000 A 
ATOM     10  N   UNL     1      43.912   8.302  11.003  0.00  0.00    +0.000 NA
ATOM     11  C   UNL     1      42.189  10.031   9.627  0.00  0.00    +0.000 C 
ATOM     12  C   UNL     1      41.088  10.914  10.256  0.00  0.00    +0.000 C 
ATOM     13  N   UNL     1      41.322  12.363  10.113  0.00  0.00    +0.000 NA
ATOM     14  H   UNL     1      40.611  12.872  10.636  0.00  0.00    +0.000 HD
ENDROOT
BRANCH   9  15
ATOM     15  C   UNL     1      44.418   5.982  11.690  0.00  0.00    +0.000 C 
BRANCH  15  16
ATOM     16  N   UNL     1      44.005   5.565  10.350  0.00  0.00    +0.000 N 
ATOM     17  H   UNL     1      43.000   5.496  10.232  0.00  0.00    +0.000 HD
BRANCH  16  18
ATOM     18  C   UNL     1      44.696   4.548   9.680  0.00  0.00    +0.000 A 
ATOM     19  C   UNL     1      45.649   4.767   8.677  0.00  0.00    +0.000 A 
ATOM     20  C   UNL     1      46.268   3.702   8.015  0.00  0.00    +0.000 A 
ATOM     21  C   UNL     1      45.927   2.384   8.316  0.00  0.00    +0.000 A 
ATOM     22  C   UNL     1      44.942   2.141   9.276  0.00  0.00    +0.000 A 
ATOM     23  C   UNL     1      44.329   3.217   9.936  0.00  0.00    +0.000 A 
BRANCH  21  24
ATOM     24  C   UNL     1      46.588   1.288   7.563  0.00  0.00    +0.000 C 
ATOM     25  N   UNL     1      47.175   1.590   6.363  0.00  0.00    +0.000 N 
ATOM     26  O   UNL     1      46.597   0.135   7.978  0.00  0.00    +0.000 OA
ATOM     27  H   UNL     1      47.050   2.473   5.888  0.00  0.00    +0.000 HD
ATOM     28  H   UNL     1      47.558   0.813   5.836  0.00  0.00    +0.000 HD
ENDBRANCH  21  24
ENDBRANCH  16  18
ENDBRANCH  15  16
ENDBRANCH   9  15
TORSDOF 4
ENDMDL
MODEL 8
REMARK VINA RESULT:    -5.921      4.910      8.216
REMARK INTER + INTRA:          -7.895
REMARK INTER:                  -7.494
REMARK INTRA:                  -0.401
REMARK UNBOUND:                -0.590
REMARK  Name = 
REMARK  5 active torsions:
REMARK  status: ('A' for Active; 'I' for Inactive)
REMARK    1  A    between atoms: C_1  and  C_2
REMARK    2  A    between atoms: C_9  and  C_10
REMARK    3  A    between atoms: C_10  and  N_11
REMARK    4  A    between atoms: N_11  and  C_12
REMARK    5  A    between atoms: C_15  and  C_16
REMARK                            x       y       z     vdW  Elec       q    Type
REMARK                         _______ _______ _______ _____ _____    ______ ____
ROOT
ATOM      1  C   UNL     1      45.249   8.076  12.328  0.00  0.00    +0.000 C 
ATOM      2  C   UNL     1      45.720   6.803  11.617  0.00  0.00    +0.000 C 
ATOM      3  C   UNL     1      47.244   6.555  11.808  0.00  0.00    +0.000 C 
ATOM      4  N   UNL     1      47.544   5.969  13.115  0.00  0.00    +0.000 N 
ATOM      5  C   UNL     1      48.194   6.699  14.083  0.00  0.00    +0.000 A 
ATOM      6  N   UNL     1      48.566   7.959  13.805  0.00  0.00    +0.000 NA
ATOM      7  C   UNL     1      49.240   8.638  14.749  0.00  0.00    +0.000 A 
ATOM      8  C   UNL     1      49.580   8.110  15.970  0.00  0.00    +0.000 A 
ATOM      9  C   UNL     1      49.207   6.800  16.178  0.00  0.00    +0.000 A 
ATOM     10  N   UNL     1      48.494   6.109  15.254  0.00  0.00    +0.000 NA
ATOM     11  C   UNL     1      46.739   4.813  13.496  0.00  0.00    +0.000 C 
ATOM     12  C   UNL     1      45.235   5.118  13.317  0.00  0.00    +0.000 C 
ATOM     13  N   UNL     1      44.880   5.636  11.982  0.00  0.00    +0.000 NA
ATOM     14  H   UNL     1      43.898   5.906  11.976  0.00  0.00    +0.000 HD
ENDROOT
BRANCH   9  15
ATOM     15  C   UNL     1      49.671   6.064  17.427  0.00  0.00    +0.000 C 
BRANCH  15  16
ATOM     16  N   UNL     1      49.321   4.644  17.415  0.00  0.00    +0.000 N 
ATOM     17  H   UNL     1      48.478   4.423  17.936  0.00  0.00    +0.000 HD
BRANCH  16  18
ATOM     18  C   UNL     1      50.312   3.667  17.561  0.00  0.00    +0.000 A 
ATOM     19  C   UNL     1      51.619   3.925  17.996  0.00  0.00    +0.000 A 
ATOM     20  C   UNL     1      52.575   2.906  18.075  0.00  0.00    +0.000 A 
ATOM     21  C   UNL     1      52.259   1.604  17.689  0.00  0.00    +0.000 A 
ATOM     22  C   UNL     1      50.977   1.333  17.203  0.00  0.00    +0.000 A 
ATOM     23  C   UNL     1      50.026   2.361  17.130  0.00  0.00    +0.000 A 
BRANCH  21  24
ATOM     24  C   UNL     1      53.317   0.565  17.759  0.00  0.00    +0.000 C 
ATOM     25  N   UNL     1      53.069  -0.563  18.495  0.00  0.00    +0.000 N 
ATOM     26  O   UNL     1      54.397   0.707  17.197  0.00  0.00    +0.000 OA
ATOM     27  H   UNL     1      52.279  -0.660  19.117  0.00  0.00    +0.000 HD
ATOM     28  H   UNL     1      53.832  -1.224  18.584  0.00  0.00    +0.000 HD
ENDBRANCH  21  24
ENDBRANCH  16  18
ENDBRANCH  15  16
ENDBRANCH   9  15
TORSDOF 4
ENDMDL
MODEL 9
REMARK VINA RESULT:    -5.852      3.302      4.970
REMARK INTER + INTRA:          -7.810
REMARK INTER:                  -7.503
REMARK INTRA:                  -0.307
REMARK UNBOUND:                -0.590
REMARK  Name = 
REMARK  5 active torsions:
REMARK  status: ('A' for Active; 'I' for Inactive)
REMARK    1  A    between atoms: C_1  and  C_2
REMARK    2  A    between atoms: C_9  and  C_10
REMARK    3  A    between atoms: C_10  and  N_11
REMARK    4  A    between atoms: N_11  and  C_12
REMARK    5  A    between atoms: C_15  and  C_16
REMARK                            x       y       z     vdW  Elec       q    Type
REMARK                         _______ _______ _______ _____ _____    ______ ____
ROOT
ATOM      1  C   UNL     1      49.678   8.564  19.849  0.00  0.00    +0.000 C 
ATOM      2  C   UNL     1      50.924   8.569  18.959  0.00  0.00    +0.000 C 
ATOM      3  C   UNL     1      51.302   7.142  18.468  0.00  0.00    +0.000 C 
ATOM      4  N   UNL     1      50.468   6.710  17.346  0.00  0.00    +0.000 N 
ATOM      5  C   UNL     1      49.534   5.713  17.504  0.00  0.00    +0.000 A 
ATOM      6  N   UNL     1      49.408   5.127  18.705  0.00  0.00    +0.000 NA
ATOM      7  C   UNL     1      48.521   4.123  18.825  0.00  0.00    +0.000 A 
ATOM      8  C   UNL     1      47.753   3.658  17.786  0.00  0.00    +0.000 A 
ATOM      9  C   UNL     1      47.958   4.273  16.571  0.00  0.00    +0.000 A 
ATOM     10  N   UNL     1      48.821   5.311  16.436  0.00  0.00    +0.000 NA
ATOM     11  C   UNL     1      50.337   7.660  16.246  0.00  0.00    +0.000 C 
ATOM     12  C   UNL     1      49.933   9.053  16.780  0.00  0.00    +0.000 C 
ATOM     13  N   UNL     1      50.801   9.559  17.860  0.00  0.00    +0.000 NA
ATOM     14  H   UNL     1      50.413  10.428  18.224  0.00  0.00    +0.000 HD
ENDROOT
BRANCH   9  15
ATOM     15  C   UNL     1      47.281   3.733  15.319  0.00  0.00    +0.000 C 
BRANCH  15  16
ATOM     16  N   UNL     1      46.309   4.666  14.749  0.00  0.00    +0.000 N 
ATOM     17  H   UNL     1      45.445   4.733  15.277  0.00  0.00    +0.000 HD
BRANCH  16  18
ATOM     18  C   UNL     1      46.099   4.716  13.366  0.00  0.00    +0.000 A 
ATOM     19  C   UNL     1      46.353   5.837  12.567  0.00  0.00    +0.000 A 
ATOM     20  C   UNL     1      46.076   5.833  11.196  0.00  0.00    +0.000 A 
ATOM     21  C   UNL     1      45.505   4.714  10.590  0.00  0.00    +0.000 A 
ATOM     22  C   UNL     1      45.196   3.601  11.376  0.00  0.00    +0.000 A 
ATOM     23  C   UNL     1      45.480   3.616  12.749  0.00  0.00    +0.000 A 
BRANCH  21  24
ATOM     24  C   UNL     1      45.199   4.770   9.138  0.00  0.00    +0.000 C 
ATOM     25  N   UNL     1      43.967   4.343   8.719  0.00  0.00    +0.000 N 
ATOM     26  O   UNL     1      46.024   5.163   8.321  0.00  0.00    +0.000 OA
ATOM     27  H   UNL     1      43.316   3.849   9.314  0.00  0.00    +0.000 HD
ATOM     28  H   UNL     1      43.808   4.326   7.719  0.00  0.00    +0.000 HD
ENDBRANCH  21  24
ENDBRANCH  16  18
ENDBRANCH  15  16
ENDBRANCH   9  15
TORSDOF 4
ENDMDL
