MODEL 1
REMARK VINA RESULT:    -7.808      0.000      0.000
REMARK INTER + INTRA:         -12.198
REMARK INTER:                 -11.231
REMARK INTRA:                  -0.966
REMARK UNBOUND:                -0.966
REMARK  Name = 
REMARK  8 active torsions:
REMARK  status: ('A' for Active; 'I' for Inactive)
REMARK    1  A    between atoms: N_1  and  C_2
REMARK    2  A    between atoms: C_7  and  C_8
REMARK    3  A    between atoms: N_10  and  C_11
REMARK    4  A    between atoms: C_11  and  C_12
REMARK    5  A    between atoms: C_15  and  N_16
REMARK    6  A    between atoms: N_16  and  C_17
REMARK    7  A    between atoms: C_17  and  C_18
REMARK    8  A    between atoms: C_18  and  C_19
REMARK                            x       y       z     vdW  Elec       q    Type
REMARK                         _______ _______ _______ _____ _____    ______ ____
ROOT
ATOM      1  C   UNL     1      47.091   8.027  13.160  0.00  0.00    +0.000 C 
ENDROOT
BRANCH   1   2
ATOM      2  C   UNL     1      46.221   7.015  12.463  0.00  0.00    +0.000 A 
ATOM      3  C   UNL     1      45.111   7.441  11.731  0.00  0.00    +0.000 A 
ATOM      4  C   UNL     1      44.258   6.514  11.119  0.00  0.00    +0.000 A 
ATOM      5  C   UNL     1      44.494   5.137  11.200  0.00  0.00    +0.000 A 
ATOM      6  C   UNL     1      45.591   4.717  11.964  0.00  0.00    +0.000 A 
ATOM      7  C   UNL     1      46.456   5.641  12.573  0.00  0.00    +0.000 A 
BRANCH   5   8
ATOM      8  N   UNL     1      43.607   4.176  10.676  0.00  0.00    +0.000 N 
ATOM      9  H   UNL     1      43.024   3.777  11.406  0.00  0.00    +0.000 HD
BRANCH   8  10
ATOM     10  C   UNL     1      44.173   3.162   9.777  0.00  0.00    +0.000 C 
BRANCH  10  11
ATOM     11  C   UNL     1      44.783   3.802   8.523  0.00  0.00    +0.000 C 
BRANCH  11  12
ATOM     12  C   UNL     1      45.886   2.939   7.955  0.00  0.00    +0.000 A 
ATOM     13  C   UNL     1      46.838   3.466   7.079  0.00  0.00    +0.000 A 
ATOM     14  C   UNL     1      47.795   2.615   6.544  0.00  0.00    +0.000 A 
ATOM     15  N   UNL     1      47.865   1.294   6.817  0.00  0.00    +0.000 NA
ATOM     16  C   UNL     1      46.939   0.804   7.667  0.00  0.00    +0.000 A 
ATOM     17  C   UNL     1      45.945   1.573   8.253  0.00  0.00    +0.000 A 
ENDBRANCH  11  12
ENDBRANCH  10  11
ENDBRANCH   8  10
ENDBRANCH   5   8
ENDBRANCH   1   2
BRANCH   1  20
ATOM     18  C   UNL     1      48.761   7.031  14.638  0.00  0.00    +0.000 C 
ATOM     19  O   UNL     1      49.550   6.937  13.701  0.00  0.00    +0.000 OA
ATOM     20  N   UNL     1      47.496   7.559  14.470  0.00  0.00    +0.000 N 
ATOM     21  H   UNL     1      47.024   7.929  15.280  0.00  0.00    +0.000 HD
BRANCH  18  27
ATOM     22  C   UNL     1      49.211   4.360  18.923  0.00  0.00    +0.000 A 
ATOM     23  N   UNL     1      48.309   3.402  18.634  0.00  0.00    +0.000 NA
ATOM     24  C   UNL     1      47.645   3.449  17.467  0.00  0.00    +0.000 A 
ATOM     25  C   UNL     1      47.812   4.439  16.511  0.00  0.00    +0.000 A 
ATOM     26  C   UNL     1      48.713   5.492  16.790  0.00  0.00    +0.000 A 
ATOM     27  C   UNL     1      49.132   6.645  16.003  0.00  0.00    +0.000 A 
ATOM     28  C   UNL     1      50.069   7.396  16.688  0.00  0.00    +0.000 A 
ATOM     29  S   UNL     1      50.458   6.769  18.214  0.00  0.00    +0.000 S 
ATOM     30  C   UNL     1      49.398   5.424  18.015  0.00  0.00    +0.000 A 
BRANCH  22  31
ATOM     31  N   UNL     1      49.922   4.220  20.102  0.00  0.00    +0.000 N 
ATOM     32  H   UNL     1      49.328   4.126  20.915  0.00  0.00    +0.000 HD
ATOM     33  H   UNL     1      50.781   4.746  20.186  0.00  0.00    +0.000 HD
ENDBRANCH  22  31
ENDBRANCH  18  27
ENDBRANCH   1  20
TORSDOF 8
ENDMDL
MODEL 2
REMARK VINA RESULT:    -7.747      1.793      2.420
REMARK INTER + INTRA:         -12.109
REMARK INTER:                 -11.367
REMARK INTRA:                  -0.743
REMARK UNBOUND:                -0.966
REMARK  Name = 
REMARK  8 active torsions:
REMARK  status: ('A' for Active; 'I' for Inactive)
REMARK    1  A    between atoms: N_1  and  C_2
REMARK    2  A    between atoms: C_7  and  C_8
REMARK    3  A    between atoms: N_10  and  C_11
REMARK    4  A    between atoms: C_11  and  C_12
REMARK    5  A    between atoms: C_15  and  N_16
REMARK    6  A    between atoms: N_16  and  C_17
REMARK    7  A    between atoms: C_17  and  C_18
REMARK    8  A    between atoms: C_18  and  C_19
REMARK                            x       y       z     vdW  Elec       q    Type
REMARK                         _______ _______ _______ _____ _____    ______ ____
ROOT
ATOM      1  C   UNL     1      47.761   6.821  13.696  0.00  0.00    +0.000 C 
ENDROOT
BRANCH   1   2
ATOM      2  C   UNL     1      46.723   6.192  12.806  0.00  0.00    +0.000 A 
ATOM      3  C   UNL     1      45.883   5.199  13.313  0.00  0.00    +0.000 A 
ATOM      4  C   UNL     1      44.946   4.563  12.488  0.00  0.00    +0.000 A 
ATOM      5  C   UNL     1      44.801   4.912  11.141  0.00  0.00    +0.000 A 
ATOM      6  C   UNL     1      45.670   5.887  10.633  0.00  0.00    +0.000 A 
ATOM      7  C   UNL     1      46.606   6.535  11.455  0.00  0.00    +0.000 A 
BRANCH   5   8
ATOM      8  N   UNL     1      43.936   4.231  10.263  0.00  0.00    +0.000 N 
ATOM      9  H   UNL     1      43.083   3.944  10.735  0.00  0.00    +0.000 HD
BRANCH   8  10
ATOM     10  C   UNL     1      44.519   3.166   9.438  0.00  0.00    +0.000 C 
BRANCH  10  11
ATOM     11  C   UNL     1      44.850   3.667   8.026  0.00  0.00    +0.000 C 
BRANCH  11  12
ATOM     12  C   UNL     1      45.920   2.813   7.385  0.00  0.00    +0.000 A 
ATOM     13  C   UNL     1      46.336   1.615   7.970  0.00  0.00    +0.000 A 
ATOM     14  C   UNL     1      47.362   0.899   7.366  0.00  0.00    +0.000 A 
ATOM     15  N   UNL     1      47.993   1.294   6.239  0.00  0.00    +0.000 NA
ATOM     16  C   UNL     1      47.576   2.452   5.688  0.00  0.00    +0.000 A 
ATOM     17  C   UNL     1      46.559   3.236   6.214  0.00  0.00    +0.000 A 
ENDBRANCH  11  12
ENDBRANCH  10  11
ENDBRANCH   8  10
ENDBRANCH   5   8
ENDBRANCH   1   2
BRANCH   1  20
ATOM     18  C   UNL     1      48.852   6.222  15.797  0.00  0.00    +0.000 C 
ATOM     19  O   UNL     1      49.934   6.602  15.357  0.00  0.00    +0.000 OA
ATOM     20  N   UNL     1      47.699   6.281  15.039  0.00  0.00    +0.000 N 
ATOM     21  H   UNL     1      46.814   6.291  15.521  0.00  0.00    +0.000 HD
BRANCH  18  27
ATOM     22  C   UNL     1      47.706   6.026  20.732  0.00  0.00    +0.000 A 
ATOM     23  N   UNL     1      47.439   7.336  20.907  0.00  0.00    +0.000 NA
ATOM     24  C   UNL     1      47.557   8.179  19.868  0.00  0.00    +0.000 A 
ATOM     25  C   UNL     1      47.953   7.802  18.594  0.00  0.00    +0.000 A 
ATOM     26  C   UNL     1      48.289   6.447  18.373  0.00  0.00    +0.000 A 
ATOM     27  C   UNL     1      48.705   5.733  17.172  0.00  0.00    +0.000 A 
ATOM     28  C   UNL     1      48.900   4.391  17.438  0.00  0.00    +0.000 A 
ATOM     29  S   UNL     1      48.601   3.968  19.052  0.00  0.00    +0.000 S 
ATOM     30  C   UNL     1      48.159   5.581  19.471  0.00  0.00    +0.000 A 
BRANCH  22  31
ATOM     31  N   UNL     1      47.492   5.190  21.814  0.00  0.00    +0.000 N 
ATOM     32  H   UNL     1      48.059   5.428  22.617  0.00  0.00    +0.000 HD
ATOM     33  H   UNL     1      47.317   4.215  21.614  0.00  0.00    +0.000 HD
ENDBRANCH  22  31
ENDBRANCH  18  27
ENDBRANCH   1  20
TORSDOF 8
ENDMDL
MODEL 3
REMARK VINA RESULT:    -7.320      2.304      2.916
REMARK INTER + INTRA:         -11.496
REMARK INTER:                 -10.760
REMARK INTRA:                  -0.736
REMARK UNBOUND:                -0.966
REMARK  Name = 
REMARK  8 active torsions:
REMARK  status: ('A' for Active; 'I' for Inactive)
REMARK    1  A    between atoms: N_1  and  C_2
REMARK    2  A    between atoms: C_7  and  C_8
REMARK    3  A    between atoms: N_10  and  C_11
REMARK    4  A    between atoms: C_11  and  C_12
REMARK    5  A    between atoms: C_15  and  N_16
REMARK    6  A    between atoms: N_16  and  C_17
REMARK    7  A    between atoms: C_17  and  C_18
REMARK    8  A    between atoms: C_18  and  C_19
REMARK                            x       y       z     vdW  Elec       q    Type
REMARK                         _______ _______ _______ _____ _____    ______ ____
ROOT
ATOM      1  C   UNL     1      47.221   4.071  15.129  0.00  0.00    +0.000 C 
ENDROOT
BRANCH   1   2
ATOM      2  C   UNL     1      46.607   4.498  13.823  0.00  0.00    +0.000 A 
ATOM      3  C   UNL     1      45.832   3.597  13.091  0.00  0.00    +0.000 A 
ATOM      4  C   UNL     1      45.296   3.956  11.848  0.00  0.00    +0.000 A 
ATOM      5  C   UNL     1      45.496   5.230  11.305  0.00  0.00    +0.000 A 
ATOM      6  C   UNL     1      46.301   6.118  12.031  0.00  0.00    +0.000 A 
ATOM      7  C   UNL     1      46.836   5.768  13.282  0.00  0.00    +0.000 A 
BRANCH   5   8
ATOM      8  N   UNL     1      45.050   5.594  10.020  0.00  0.00    +0.000 N 
ATOM      9  H   UNL     1      44.044   5.486   9.935  0.00  0.00    +0.000 HD
BRANCH   8  10
ATOM     10  C   UNL     1      45.783   5.040   8.874  0.00  0.00    +0.000 C 
BRANCH  10  11
ATOM     11  C   UNL     1      45.067   3.816   8.289  0.00  0.00    +0.000 C 
BRANCH  11  12
ATOM     12  C   UNL     1      46.041   2.911   7.570  0.00  0.00    +0.000 A 
ATOM     13  C   UNL     1      46.656   3.310   6.380  0.00  0.00    +0.000 A 
ATOM     14  C   UNL     1      47.499   2.416   5.734  0.00  0.00    +0.000 A 
ATOM     15  N   UNL     1      47.762   1.170   6.183  0.00  0.00    +0.000 NA
ATOM     16  C   UNL     1      47.161   0.804   7.334  0.00  0.00    +0.000 A 
ATOM     17  C   UNL     1      46.306   1.625   8.053  0.00  0.00    +0.000 A 
ENDBRANCH  11  12
ENDBRANCH  10  11
ENDBRANCH   8  10
ENDBRANCH   5   8
ENDBRANCH   1   2
BRANCH   1  20
ATOM     18  C   UNL     1      48.443   5.253  16.882  0.00  0.00    +0.000 C 
ATOM     19  O   UNL     1      49.303   4.377  16.888  0.00  0.00    +0.000 OA
ATOM     20  N   UNL     1      47.350   5.190  16.040  0.00  0.00    +0.000 N 
ATOM     21  H   UNL     1      46.871   6.049  15.818  0.00  0.00    +0.000 HD
BRANCH  18  27
ATOM     22  C   UNL     1      48.331   8.309  20.925  0.00  0.00    +0.000 A 
ATOM     23  N   UNL     1      47.685   7.476  21.764  0.00  0.00    +0.000 NA
ATOM     24  C   UNL     1      47.307   6.262  21.329  0.00  0.00    +0.000 A 
ATOM     25  C   UNL     1      47.524   5.789  20.044  0.00  0.00    +0.000 A 
ATOM     26  C   UNL     1      48.156   6.645  19.114  0.00  0.00    +0.000 A 
ATOM     27  C   UNL     1      48.549   6.449  17.725  0.00  0.00    +0.000 A 
ATOM     28  C   UNL     1      49.171   7.577  17.223  0.00  0.00    +0.000 A 
ATOM     29  S   UNL     1      49.298   8.838  18.348  0.00  0.00    +0.000 S 
ATOM     30  C   UNL     1      48.544   7.909  19.588  0.00  0.00    +0.000 A 
BRANCH  22  31
ATOM     31  N   UNL     1      48.767   9.515  21.447  0.00  0.00    +0.000 N 
ATOM     32  H   UNL     1      48.695   9.559  22.455  0.00  0.00    +0.000 HD
ATOM     33  H   UNL     1      48.572  10.347  20.909  0.00  0.00    +0.000 HD
ENDBRANCH  22  31
ENDBRANCH  18  27
ENDBRANCH   1  20
TORSDOF 8
ENDMDL
MODEL 4
REMARK VINA RESULT:    -7.237      2.394      3.045
REMARK INTER + INTRA:         -11.377
REMARK INTER:                 -10.485
REMARK INTRA:                  -0.892
REMARK UNBOUND:                -0.966
REMARK  Name = 
REMARK  8 active torsions:
REMARK  status: ('A' for Active; 'I' for Inactive)
REMARK    1  A    between atoms: N_1  and  C_2
REMARK    2  A    between atoms: C_7  and  C_8
REMARK    3  A    between atoms: N_10  and  C_11
REMARK    4  A    between atoms: C_11  and  C_12
REMARK    5  A    between atoms: C_15  and  N_16
REMARK    6  A    between atoms: N_16  and  C_17
REMARK    7  A    between atoms: C_17  and  C_18
REMARK    8  A    between atoms: C_18  and  C_19
REMARK                            x       y       z     vdW  Elec       q    Type
REMARK                         _______ _______ _______ _____ _____    ______ ____
ROOT
ATOM      1  C   UNL     1      48.410   7.023  13.773  0.00  0.00    +0.000 C 
ENDROOT
BRANCH   1   2
ATOM      2  C   UNL     1      47.357   6.258  13.016  0.00  0.00    +0.000 A 
ATOM      3  C   UNL     1      46.958   6.692  11.751  0.00  0.00    +0.000 A 
ATOM      4  C   UNL     1      45.942   6.026  11.053  0.00  0.00    +0.000 A 
ATOM      5  C   UNL     1      45.309   4.896  11.582  0.00  0.00    +0.000 A 
ATOM      6  C   UNL     1      45.694   4.486  12.866  0.00  0.00    +0.000 A 
ATOM      7  C   UNL     1      46.717   5.144  13.569  0.00  0.00    +0.000 A 
BRANCH   5   8
ATOM      8  N   UNL     1      44.225   4.259  10.949  0.00  0.00    +0.000 N 
ATOM      9  H   UNL     1      43.915   3.447  11.477  0.00  0.00    +0.000 HD
BRANCH   8  10
ATOM     10  C   UNL     1      44.351   3.992   9.511  0.00  0.00    +0.000 C 
BRANCH  10  11
ATOM     11  C   UNL     1      44.610   2.504   9.237  0.00  0.00    +0.000 C 
BRANCH  11  12
ATOM     12  C   UNL     1      45.769   2.322   8.285  0.00  0.00    +0.000 A 
ATOM     13  C   UNL     1      46.311   1.058   8.040  0.00  0.00    +0.000 A 
ATOM     14  C   UNL     1      47.411   0.956   7.199  0.00  0.00    +0.000 A 
ATOM     15  N   UNL     1      48.001   2.013   6.599  0.00  0.00    +0.000 NA
ATOM     16  C   UNL     1      47.462   3.225   6.846  0.00  0.00    +0.000 A 
ATOM     17  C   UNL     1      46.364   3.428   7.669  0.00  0.00    +0.000 A 
ENDBRANCH  11  12
ENDBRANCH  10  11
ENDBRANCH   8  10
ENDBRANCH   5   8
ENDBRANCH   1   2
BRANCH   1  20
ATOM     18  C   UNL     1      48.991   6.674  16.119  0.00  0.00    +0.000 C 
ATOM     19  O   UNL     1      50.069   6.186  15.791  0.00  0.00    +0.000 OA
ATOM     20  N   UNL     1      48.081   7.119  15.180  0.00  0.00    +0.000 N 
ATOM     21  H   UNL     1      47.395   7.799  15.468  0.00  0.00    +0.000 HD
BRANCH  18  27
ATOM     22  C   UNL     1      47.346   8.825  20.405  0.00  0.00    +0.000 A 
ATOM     23  N   UNL     1      47.297  10.096  19.962  0.00  0.00    +0.000 NA
ATOM     24  C   UNL     1      47.663  10.371  18.699  0.00  0.00    +0.000 A 
ATOM     25  C   UNL     1      48.111   9.424  17.790  0.00  0.00    +0.000 A 
ATOM     26  C   UNL     1      48.225   8.083  18.224  0.00  0.00    +0.000 A 
ATOM     27  C   UNL     1      48.625   6.868  17.526  0.00  0.00    +0.000 A 
ATOM     28  C   UNL     1      48.554   5.771  18.365  0.00  0.00    +0.000 A 
ATOM     29  S   UNL     1      48.029   6.147  19.931  0.00  0.00    +0.000 S 
ATOM     30  C   UNL     1      47.837   7.817  19.547  0.00  0.00    +0.000 A 
BRANCH  22  31
ATOM     31  N   UNL     1      46.884   8.587  21.688  0.00  0.00    +0.000 N 
ATOM     32  H   UNL     1      47.071   7.646  22.009  0.00  0.00    +0.000 HD
ATOM     33  H   UNL     1      46.013   9.026  21.952  0.00  0.00    +0.000 HD
ENDBRANCH  22  31
ENDBRANCH  18  27
ENDBRANCH   1  20
TORSDOF 8
ENDMDL
MODEL 5
REMARK VINA RESULT:    -7.234      2.202      3.801
REMARK INTER + INTRA:         -11.372
REMARK INTER:                 -10.460
REMARK INTRA:                  -0.911
REMARK UNBOUND:                -0.966
REMARK  Name = 
REMARK  8 active torsions:
REMARK  status: ('A' for Active; 'I' for Inactive)
REMARK    1  A    between atoms: N_1  and  C_2
REMARK    2  A    between atoms: C_7  and  C_8
REMARK    3  A    between atoms: N_10  and  C_11
REMARK    4  A    between atoms: C_11  and  C_12
REMARK    5  A    between atoms: C_15  and  N_16
REMARK    6  A    between atoms: N_16  and  C_17
REMARK    7  A    between atoms: C_17  and  C_18
REMARK    8  A    between atoms: C_18  and  C_19
REMARK                            x       y       z     vdW  Elec       q    Type
REMARK                         _______ _______ _______ _____ _____    ______ ____
ROOT
ATOM      1  C   UNL     1      46.900   4.477  14.511  0.00  0.00    +0.000 C 
ENDROOT
BRANCH   1   2
ATOM      2  C   UNL     1      46.178   4.515  13.191  0.00  0.00    +0.000 A 
ATOM      3  C   UNL     1      46.086   5.715  12.484  0.00  0.00    +0.000 A 
ATOM      4  C   UNL     1      45.373   5.784  11.280  0.00  0.00    +0.000 A 
ATOM      5  C   UNL     1      44.750   4.657  10.732  0.00  0.00    +0.000 A 
ATOM      6  C   UNL     1      44.821   3.464  11.464  0.00  0.00    +0.000 A 
ATOM      7  C   UNL     1      45.540   3.385  12.668  0.00  0.00    +0.000 A 
BRANCH   5   8
ATOM      8  N   UNL     1      43.951   4.712   9.574  0.00  0.00    +0.000 N 
ATOM      9  H   UNL     1      42.967   4.600   9.800  0.00  0.00    +0.000 HD
BRANCH   8  10
ATOM     10  C   UNL     1      44.371   3.892   8.430  0.00  0.00    +0.000 C 
BRANCH  10  11
ATOM     11  C   UNL     1      45.820   4.195   8.025  0.00  0.00    +0.000 C 
BRANCH  11  12
ATOM     12  C   UNL     1      46.421   3.041   7.256  0.00  0.00    +0.000 A 
ATOM     13  C   UNL     1      46.567   1.780   7.841  0.00  0.00    +0.000 A 
ATOM     14  C   UNL     1      47.177   0.772   7.107  0.00  0.00    +0.000 A 
ATOM     15  N   UNL     1      47.646   0.933   5.851  0.00  0.00    +0.000 NA
ATOM     16  C   UNL     1      47.493   2.156   5.302  0.00  0.00    +0.000 A 
ATOM     17  C   UNL     1      46.897   3.226   5.954  0.00  0.00    +0.000 A 
ENDBRANCH  11  12
ENDBRANCH  10  11
ENDBRANCH   8  10
ENDBRANCH   5   8
ENDBRANCH   1   2
BRANCH   1  20
ATOM     18  C   UNL     1      48.447   5.849  15.811  0.00  0.00    +0.000 C 
ATOM     19  O   UNL     1      48.832   4.856  16.422  0.00  0.00    +0.000 OA
ATOM     20  N   UNL     1      47.473   5.767  14.835  0.00  0.00    +0.000 N 
ATOM     21  H   UNL     1      47.431   6.499  14.142  0.00  0.00    +0.000 HD
BRANCH  18  27
ATOM     22  C   UNL     1      50.610  10.355  14.963  0.00  0.00    +0.000 A 
ATOM     23  N   UNL     1      50.943  10.156  13.672  0.00  0.00    +0.000 NA
ATOM     24  C   UNL     1      50.654   8.980  13.089  0.00  0.00    +0.000 A 
ATOM     25  C   UNL     1      50.031   7.920  13.730  0.00  0.00    +0.000 A 
ATOM     26  C   UNL     1      49.706   8.065  15.098  0.00  0.00    +0.000 A 
ATOM     27  C   UNL     1      49.036   7.173  16.036  0.00  0.00    +0.000 A 
ATOM     28  C   UNL     1      48.914   7.765  17.279  0.00  0.00    +0.000 A 
ATOM     29  S   UNL     1      49.563   9.329  17.353  0.00  0.00    +0.000 S 
ATOM     30  C   UNL     1      50.016   9.301  15.690  0.00  0.00    +0.000 A 
BRANCH  22  31
ATOM     31  N   UNL     1      50.860  11.609  15.491  0.00  0.00    +0.000 N 
ATOM     32  H   UNL     1      51.304  11.576  16.400  0.00  0.00    +0.000 HD
ATOM     33  H   UNL     1      50.175  12.329  15.311  0.00  0.00    +0.000 HD
ENDBRANCH  22  31
ENDBRANCH  18  27
ENDBRANCH   1  20
TORSDOF 8
ENDMDL
MODEL 6
REMARK VINA RESULT:    -7.061      2.186      2.971
REMARK INTER + INTRA:         -11.123
REMARK INTER:                 -10.344
REMARK INTRA:                  -0.780
REMARK UNBOUND:                -0.966
REMARK  Name = 
REMARK  8 active torsions:
REMARK  status: ('A' for Active; 'I' for Inactive)
REMARK    1  A    between atoms: N_1  and  C_2
REMARK    2  A    between atoms: C_7  and  C_8
REMARK    3  A    between atoms: N_10  and  C_11
REMARK    4  A    between atoms: C_11  and  C_12
REMARK    5  A    between atoms: C_15  and  N_16
REMARK    6  A    between atoms: N_16  and  C_17
REMARK    7  A    between atoms: C_17  and  C_18
REMARK    8  A    between atoms: C_18  and  C_19
REMARK                            x       y       z     vdW  Elec       q    Type
REMARK                         _______ _______ _______ _____ _____    ______ ____
ROOT
ATOM      1  C   UNL     1      46.879   4.239  14.569  0.00  0.00    +0.000 C 
ENDROOT
BRANCH   1   2
ATOM      2  C   UNL     1      46.178   4.448  13.253  0.00  0.00    +0.000 A 
ATOM      3  C   UNL     1      45.493   3.389  12.655  0.00  0.00    +0.000 A 
ATOM      4  C   UNL     1      44.879   3.547  11.406  0.00  0.00    +0.000 A 
ATOM      5  C   UNL     1      44.909   4.768  10.724  0.00  0.00    +0.000 A 
ATOM      6  C   UNL     1      45.627   5.816  11.317  0.00  0.00    +0.000 A 
ATOM      7  C   UNL     1      46.238   5.669  12.572  0.00  0.00    +0.000 A 
BRANCH   5   8
ATOM      8  N   UNL     1      44.383   4.935   9.429  0.00  0.00    +0.000 N 
ATOM      9  H   UNL     1      43.389   5.146   9.459  0.00  0.00    +0.000 HD
BRANCH   8  10
ATOM     10  C   UNL     1      44.720   3.912   8.431  0.00  0.00    +0.000 C 
BRANCH  10  11
ATOM     11  C   UNL     1      46.090   4.180   7.794  0.00  0.00    +0.000 C 
BRANCH  11  12
ATOM     12  C   UNL     1      46.605   2.953   7.078  0.00  0.00    +0.000 A 
ATOM     13  C   UNL     1      46.961   2.999   5.728  0.00  0.00    +0.000 A 
ATOM     14  C   UNL     1      47.375   1.829   5.107  0.00  0.00    +0.000 A 
ATOM     15  N   UNL     1      47.453   0.633   5.730  0.00  0.00    +0.000 NA
ATOM     16  C   UNL     1      47.107   0.608   7.034  0.00  0.00    +0.000 A 
ATOM     17  C   UNL     1      46.684   1.723   7.742  0.00  0.00    +0.000 A 
ENDBRANCH  11  12
ENDBRANCH  10  11
ENDBRANCH   8  10
ENDBRANCH   5   8
ENDBRANCH   1   2
BRANCH   1  20
ATOM     18  C   UNL     1      48.359   5.470  16.071  0.00  0.00    +0.000 C 
ATOM     19  O   UNL     1      48.826   4.416  16.493  0.00  0.00    +0.000 OA
ATOM     20  N   UNL     1      47.370   5.491  15.107  0.00  0.00    +0.000 N 
ATOM     21  H   UNL     1      47.262   6.327  14.555  0.00  0.00    +0.000 HD
BRANCH  18  27
ATOM     22  C   UNL     1      50.391   9.103  18.965  0.00  0.00    +0.000 A 
ATOM     23  N   UNL     1      50.374   8.433  20.134  0.00  0.00    +0.000 NA
ATOM     24  C   UNL     1      49.877   7.186  20.174  0.00  0.00    +0.000 A 
ATOM     25  C   UNL     1      49.357   6.515  19.078  0.00  0.00    +0.000 A 
ATOM     26  C   UNL     1      49.310   7.194  17.839  0.00  0.00    +0.000 A 
ATOM     27  C   UNL     1      48.862   6.774  16.518  0.00  0.00    +0.000 A 
ATOM     28  C   UNL     1      49.035   7.786  15.593  0.00  0.00    +0.000 A 
ATOM     29  S   UNL     1      49.710   9.196  16.248  0.00  0.00    +0.000 S 
ATOM     30  C   UNL     1      49.834   8.498  17.818  0.00  0.00    +0.000 A 
BRANCH  22  31
ATOM     31  N   UNL     1      50.984  10.354  18.965  0.00  0.00    +0.000 N 
ATOM     32  H   UNL     1      51.197  10.692  19.894  0.00  0.00    +0.000 HD
ATOM     33  H   UNL     1      50.666  11.013  18.268  0.00  0.00    +0.000 HD
ENDBRANCH  22  31
ENDBRANCH  18  27
ENDBRANCH   1  20
TORSDOF 8
ENDMDL
MODEL 7
REMARK VINA RESULT:    -6.841      3.929      8.958
REMARK INTER + INTRA:         -10.807
REMARK INTER:                  -9.691
REMARK INTRA:                  -1.115
REMARK UNBOUND:                -0.966
REMARK  Name = 
REMARK  8 active torsions:
REMARK  status: ('A' for Active; 'I' for Inactive)
REMARK    1  A    between atoms: N_1  and  C_2
REMARK    2  A    between atoms: C_7  and  C_8
REMARK    3  A    between atoms: N_10  and  C_11
REMARK    4  A    between atoms: C_11  and  C_12
REMARK    5  A    between atoms: C_15  and  N_16
REMARK    6  A    between atoms: N_16  and  C_17
REMARK    7  A    between atoms: C_17  and  C_18
REMARK    8  A    between atoms: C_18  and  C_19
REMARK                            x       y       z     vdW  Elec       q    Type
REMARK                         _______ _______ _______ _____ _____    ______ ____
ROOT
ATOM      1  C   UNL     1      47.386   3.388  16.852  0.00  0.00    +0.000 C 
ENDROOT
BRANCH   1   2
ATOM      2  C   UNL     1      48.864   3.503  17.115  0.00  0.00    +0.000 A 
ATOM      3  C   UNL     1      49.662   2.358  17.112  0.00  0.00    +0.000 A 
ATOM      4  C   UNL     1      51.029   2.436  17.407  0.00  0.00    +0.000 A 
ATOM      5  C   UNL     1      51.648   3.658  17.693  0.00  0.00    +0.000 A 
ATOM      6  C   UNL     1      50.833   4.798  17.726  0.00  0.00    +0.000 A 
ATOM      7  C   UNL     1      49.464   4.729  17.423  0.00  0.00    +0.000 A 
BRANCH   5   8
ATOM      8  N   UNL     1      52.997   3.760  18.083  0.00  0.00    +0.000 N 
ATOM      9  H   UNL     1      53.154   3.320  18.985  0.00  0.00    +0.000 HD
BRANCH   8  10
ATOM     10  C   UNL     1      53.628   5.081  17.973  0.00  0.00    +0.000 C 
BRANCH  10  11
ATOM     11  C   UNL     1      54.650   5.122  16.830  0.00  0.00    +0.000 C 
BRANCH  11  12
ATOM     12  C   UNL     1      54.283   6.176  15.811  0.00  0.00    +0.000 A 
ATOM     13  C   UNL     1      53.119   6.936  15.944  0.00  0.00    +0.000 A 
ATOM     14  C   UNL     1      52.803   7.851  14.949  0.00  0.00    +0.000 A 
ATOM     15  N   UNL     1      53.554   8.053  13.846  0.00  0.00    +0.000 NA
ATOM     16  C   UNL     1      54.676   7.312  13.736  0.00  0.00    +0.000 A 
ATOM     17  C   UNL     1      55.077   6.375  14.676  0.00  0.00    +0.000 A 
ENDBRANCH  11  12
ENDBRANCH  10  11
ENDBRANCH   8  10
ENDBRANCH   5   8
ENDBRANCH   1   2
BRANCH   1  20
ATOM     18  C   UNL     1      46.959   4.099  14.555  0.00  0.00    +0.000 C 
ATOM     19  O   UNL     1      47.355   3.015  14.134  0.00  0.00    +0.000 OA
ATOM     20  N   UNL     1      46.941   4.390  15.905  0.00  0.00    +0.000 N 
ATOM     21  H   UNL     1      46.317   5.112  16.227  0.00  0.00    +0.000 HD
BRANCH  18  27
ATOM     22  C   UNL     1      43.785   6.731  11.605  0.00  0.00    +0.000 A 
ATOM     23  N   UNL     1      42.801   5.814  11.534  0.00  0.00    +0.000 NA
ATOM     24  C   UNL     1      42.948   4.637  12.166  0.00  0.00    +0.000 A 
ATOM     25  C   UNL     1      44.068   4.277  12.900  0.00  0.00    +0.000 A 
ATOM     26  C   UNL     1      45.147   5.188  12.963  0.00  0.00    +0.000 A 
ATOM     27  C   UNL     1      46.426   5.130  13.658  0.00  0.00    +0.000 A 
ATOM     28  C   UNL     1      47.156   6.285  13.446  0.00  0.00    +0.000 A 
ATOM     29  S   UNL     1      46.365   7.416  12.462  0.00  0.00    +0.000 S 
ATOM     30  C   UNL     1      44.974   6.412  12.296  0.00  0.00    +0.000 A 
BRANCH  22  31
ATOM     31  N   UNL     1      43.550   7.955  11.002  0.00  0.00    +0.000 N 
ATOM     32  H   UNL     1      43.607   7.917   9.993  0.00  0.00    +0.000 HD
ATOM     33  H   UNL     1      43.896   8.776  11.478  0.00  0.00    +0.000 HD
ENDBRANCH  22  31
ENDBRANCH  18  27
ENDBRANCH   1  20
TORSDOF 8
ENDMDL
MODEL 8
REMARK VINA RESULT:    -6.756      3.779      9.518
REMARK INTER + INTRA:         -10.685
REMARK INTER:                  -9.235
REMARK INTRA:                  -1.450
REMARK UNBOUND:                -0.966
REMARK  Name = 
REMARK  8 active torsions:
REMARK  status: ('A' for Active; 'I' for Inactive)
REMARK    1  A    between atoms: N_1  and  C_2
REMARK    2  A    between atoms: C_7  and  C_8
REMARK    3  A    between atoms: N_10  and  C_11
REMARK    4  A    between atoms: C_11  and  C_12
REMARK    5  A    between atoms: C_15  and  N_16
REMARK    6  A    between atoms: N_16  and  C_17
REMARK    7  A    between atoms: C_17  and  C_18
REMARK    8  A    between atoms: C_18  and  C_19
REMARK                            x       y       z     vdW  Elec       q    Type
REMARK                         _______ _______ _______ _____ _____    ______ ____
ROOT
ATOM      1  C   UNL     1      47.722   3.716  16.704  0.00  0.00    +0.000 C 
ENDROOT
BRANCH   1   2
ATOM      2  C   UNL     1      47.937   4.369  18.043  0.00  0.00    +0.000 A 
ATOM      3  C   UNL     1      47.039   5.336  18.497  0.00  0.00    +0.000 A 
ATOM      4  C   UNL     1      47.249   5.994  19.715  0.00  0.00    +0.000 A 
ATOM      5  C   UNL     1      48.347   5.695  20.529  0.00  0.00    +0.000 A 
ATOM      6  C   UNL     1      49.261   4.746  20.051  0.00  0.00    +0.000 A 
ATOM      7  C   UNL     1      49.054   4.076  18.834  0.00  0.00    +0.000 A 
BRANCH   5   8
ATOM      8  N   UNL     1      48.638   6.400  21.713  0.00  0.00    +0.000 N 
ATOM      9  H   UNL     1      48.130   6.016  22.504  0.00  0.00    +0.000 HD
BRANCH   8  10
ATOM     10  C   UNL     1      48.579   7.866  21.651  0.00  0.00    +0.000 C 
BRANCH  10  11
ATOM     11  C   UNL     1      49.746   8.441  20.838  0.00  0.00    +0.000 C 
BRANCH  11  12
ATOM     12  C   UNL     1      49.310   8.785  19.432  0.00  0.00    +0.000 A 
ATOM     13  C   UNL     1      48.211   9.616  19.199  0.00  0.00    +0.000 A 
ATOM     14  C   UNL     1      47.822   9.854  17.888  0.00  0.00    +0.000 A 
ATOM     15  N   UNL     1      48.441   9.325  16.811  0.00  0.00    +0.000 NA
ATOM     16  C   UNL     1      49.502   8.528  17.056  0.00  0.00    +0.000 A 
ATOM     17  C   UNL     1      49.967   8.232  18.328  0.00  0.00    +0.000 A 
ENDBRANCH  11  12
ENDBRANCH  10  11
ENDBRANCH   8  10
ENDBRANCH   5   8
ENDBRANCH   1   2
BRANCH   1  20
ATOM     18  C   UNL     1      46.947   4.246  14.450  0.00  0.00    +0.000 C 
ATOM     19  O   UNL     1      47.345   3.158  14.044  0.00  0.00    +0.000 OA
ATOM     20  N   UNL     1      47.095   4.627  15.769  0.00  0.00    +0.000 N 
ATOM     21  H   UNL     1      46.478   5.338  16.131  0.00  0.00    +0.000 HD
BRANCH  18  27
ATOM     22  C   UNL     1      43.378   6.307  11.497  0.00  0.00    +0.000 A 
ATOM     23  N   UNL     1      42.603   5.213  11.360  0.00  0.00    +0.000 NA
ATOM     24  C   UNL     1      42.970   4.064  11.952  0.00  0.00    +0.000 A 
ATOM     25  C   UNL     1      44.122   3.907  12.708  0.00  0.00    +0.000 A 
ATOM     26  C   UNL     1      44.991   5.014  12.841  0.00  0.00    +0.000 A 
ATOM     27  C   UNL     1      46.238   5.186  13.574  0.00  0.00    +0.000 A 
ATOM     28  C   UNL     1      46.722   6.473  13.430  0.00  0.00    +0.000 A 
ATOM     29  S   UNL     1      45.742   7.462  12.464  0.00  0.00    +0.000 S 
ATOM     30  C   UNL     1      44.589   6.205  12.215  0.00  0.00    +0.000 A 
BRANCH  22  31
ATOM     31  N   UNL     1      42.913   7.482  10.932  0.00  0.00    +0.000 N 
ATOM     32  H   UNL     1      43.624   7.980  10.413  0.00  0.00    +0.000 HD
ATOM     33  H   UNL     1      42.238   8.012  11.464  0.00  0.00    +0.000 HD
ENDBRANCH  22  31
ENDBRANCH  18  27
ENDBRANCH   1  20
TORSDOF 8
ENDMDL
MODEL 9
REMARK VINA RESULT:    -6.740      2.759      8.249
REMARK INTER + INTRA:         -10.661
REMARK INTER:                  -9.043
REMARK INTRA:                  -1.618
REMARK UNBOUND:                -0.966
REMARK  Name = 
REMARK  8 active torsions:
REMARK  status: ('A' for Active; 'I' for Inactive)
REMARK    1  A    between atoms: N_1  and  C_2
REMARK    2  A    between atoms: C_7  and  C_8
REMARK    3  A    between atoms: N_10  and  C_11
REMARK    4  A    between atoms: C_11  and  C_12
REMARK    5  A    between atoms: C_15  and  N_16
REMARK    6  A    between atoms: N_16  and  C_17
REMARK    7  A    between atoms: C_17  and  C_18
REMARK    8  A    between atoms: C_18  and  C_19
REMARK                            x       y       z     vdW  Elec       q    Type
REMARK                         _______ _______ _______ _____ _____    ______ ____
ROOT
ATOM      1  C   UNL     1      47.792   8.309  12.618  0.00  0.00    +0.000 C 
ENDROOT
BRANCH   1   2
ATOM      2  C   UNL     1      48.517   8.201  13.933  0.00  0.00    +0.000 A 
ATOM      3  C   UNL     1      49.680   7.435  14.024  0.00  0.00    +0.000 A 
ATOM      4  C   UNL     1      50.341   7.279  15.249  0.00  0.00    +0.000 A 
ATOM      5  C   UNL     1      49.876   7.896  16.416  0.00  0.00    +0.000 A 
ATOM      6  C   UNL     1      48.690   8.637  16.321  0.00  0.00    +0.000 A 
ATOM      7  C   UNL     1      48.026   8.805  15.095  0.00  0.00    +0.000 A 
BRANCH   5   8
ATOM      8  N   UNL     1      50.462   7.686  17.679  0.00  0.00    +0.000 N 
ATOM      9  H   UNL     1      51.327   8.210  17.776  0.00  0.00    +0.000 HD
BRANCH   8  10
ATOM     10  C   UNL     1      50.581   6.297  18.140  0.00  0.00    +0.000 C 
BRANCH  10  11
ATOM     11  C   UNL     1      49.210   5.702  18.487  0.00  0.00    +0.000 C 
BRANCH  11  12
ATOM     12  C   UNL     1      48.794   4.667  17.467  0.00  0.00    +0.000 A 
ATOM     13  C   UNL     1      47.829   4.954  16.497  0.00  0.00    +0.000 A 
ATOM     14  C   UNL     1      47.446   3.948  15.621  0.00  0.00    +0.000 A 
ATOM     15  N   UNL     1      47.947   2.694  15.648  0.00  0.00    +0.000 NA
ATOM     16  C   UNL     1      48.878   2.436  16.589  0.00  0.00    +0.000 A 
ATOM     17  C   UNL     1      49.328   3.374  17.507  0.00  0.00    +0.000 A 
ENDBRANCH  11  12
ENDBRANCH  10  11
ENDBRANCH   8  10
ENDBRANCH   5   8
ENDBRANCH   1   2
BRANCH   1  20
ATOM     18  C   UNL     1      45.820   6.881  12.426  0.00  0.00    +0.000 C 
ATOM     19  O   UNL     1      45.117   7.770  12.899  0.00  0.00    +0.000 OA
ATOM     20  N   UNL     1      47.180   7.048  12.250  0.00  0.00    +0.000 N 
ATOM     21  H   UNL     1      47.646   6.467  11.572  0.00  0.00    +0.000 HD
BRANCH  18  27
ATOM     22  C   UNL     1      44.741   2.874   9.514  0.00  0.00    +0.000 A 
ATOM     23  N   UNL     1      45.251   3.347   8.360  0.00  0.00    +0.000 NA
ATOM     24  C   UNL     1      45.799   4.574   8.332  0.00  0.00    +0.000 A 
ATOM     25  C   UNL     1      45.876   5.421   9.427  0.00  0.00    +0.000 A 
ATOM     26  C   UNL     1      45.313   4.987  10.649  0.00  0.00    +0.000 A 
ATOM     27  C   UNL     1      45.254   5.609  11.966  0.00  0.00    +0.000 A 
ATOM     28  C   UNL     1      44.617   4.783  12.873  0.00  0.00    +0.000 A 
ATOM     29  S   UNL     1      44.102   3.312  12.208  0.00  0.00    +0.000 S 
ATOM     30  C   UNL     1      44.745   3.702  10.657  0.00  0.00    +0.000 A 
BRANCH  22  31
ATOM     31  N   UNL     1      44.260   1.576   9.504  0.00  0.00    +0.000 N 
ATOM     32  H   UNL     1      43.319   1.500   9.866  0.00  0.00    +0.000 HD
ATOM     33  H   UNL     1      44.921   0.839   9.708  0.00  0.00    +0.000 HD
ENDBRANCH  22  31
ENDBRANCH  18  27
ENDBRANCH   1  20
TORSDOF 8
ENDMDL
