MODEL 1
REMARK VINA RESULT:    -8.872      0.000      0.000
REMARK INTER + INTRA:         -13.153
REMARK INTER:                 -13.280
REMARK INTRA:                   0.127
REMARK UNBOUND:                 0.127
REMARK  Name = 
REMARK  9 active torsions:
REMARK  status: ('A' for Active; 'I' for Inactive)
REMARK    1  A    between atoms: C_2  and  C_24
REMARK    2  A    between atoms: N_3  and  C_4
REMARK    3  A    between atoms: C_4  and  C_5
REMARK    4  A    between atoms: C_8  and  C_9
REMARK    5  A    between atoms: C_9  and  N_10
REMARK    6  A    between atoms: N_10  and  C_11
REMARK    7  A    between atoms: C_11  and  C_12
REMARK    8  A    between atoms: C_12  and  O_13
REMARK    9  A    between atoms: C_14  and  C_16
REMARK                            x       y       z     vdW  Elec       q    Type
REMARK                         _______ _______ _______ _____ _____    ______ ____
ROOT
ATOM      1  C   UNL     1      46.685   7.679  12.845  0.00  0.00    +0.000 A 
ATOM      2  C   UNL     1      45.533   8.251  12.295  0.00  0.00    +0.000 A 
ATOM      3  C   UNL     1      44.713   7.528  11.417  0.00  0.00    +0.000 A 
ATOM      4  C   UNL     1      45.005   6.195  11.093  0.00  0.00    +0.000 A 
ATOM      5  C   UNL     1      46.214   5.659  11.567  0.00  0.00    +0.000 A 
ATOM      6  C   UNL     1      47.043   6.389  12.434  0.00  0.00    +0.000 A 
ENDROOT
BRANCH   1   7
ATOM      7  C   UNL     1      47.467   8.418  13.904  0.00  0.00    +0.000 C 
BRANCH   7  10
ATOM      8  O   UNL     1      50.003   7.345  14.444  0.00  0.00    +0.000 OA
ATOM      9  C   UNL     1      49.083   7.080  15.219  0.00  0.00    +0.000 C 
ATOM     10  N   UNL     1      47.813   7.560  15.023  0.00  0.00    +0.000 N 
ATOM     11  H   UNL     1      47.110   7.435  15.745  0.00  0.00    +0.000 HD
BRANCH   9  12
ATOM     12  C   UNL     1      49.308   6.191  16.374  0.00  0.00    +0.000 A 
ATOM     13  C   UNL     1      50.316   6.504  17.279  0.00  0.00    +0.000 A 
ATOM     14  S   UNL     1      50.442   5.409  18.578  0.00  0.00    +0.000 S 
ATOM     15  C   UNL     1      49.128   4.492  18.008  0.00  0.00    +0.000 A 
ATOM     16  N   UNL     1      48.675   3.418  18.698  0.00  0.00    +0.000 NA
ATOM     17  C   UNL     1      47.650   2.835  18.171  0.00  0.00    +0.000 A 
ATOM     18  N   UNL     1      47.059   3.218  16.994  0.00  0.00    +0.000 N 
ATOM     19  C   UNL     1      47.533   4.254  16.220  0.00  0.00    +0.000 A 
ATOM     20  O   UNL     1      47.065   4.484  15.113  0.00  0.00    +0.000 OA
ATOM     21  C   UNL     1      48.635   4.989  16.805  0.00  0.00    +0.000 A 
ATOM     22  H   UNL     1      46.285   2.698  16.615  0.00  0.00    +0.000 HD
ENDBRANCH   9  12
ENDBRANCH   7  10
ENDBRANCH   1   7
BRANCH   4  23
ATOM     23  C   UNL     1      43.942   5.314  10.451  0.00  0.00    +0.000 C 
BRANCH  23  24
ATOM     24  N   UNL     1      44.369   4.101   9.741  0.00  0.00    +0.000 N 
ATOM     25  C   UNL     1      45.334   4.268   8.721  0.00  0.00    +0.000 C 
ATOM     26  O   UNL     1      45.807   5.370   8.439  0.00  0.00    +0.000 OA
BRANCH  25  27
ATOM     27  C   UNL     1      45.910   3.085   7.994  0.00  0.00    +0.000 A 
ATOM     28  C   UNL     1      45.868   1.775   8.482  0.00  0.00    +0.000 A 
ATOM     29  C   UNL     1      46.556   0.745   7.835  0.00  0.00    +0.000 A 
ATOM     30  C   UNL     1      47.200   0.992   6.627  0.00  0.00    +0.000 A 
ATOM     31  C   UNL     1      47.151   2.266   6.065  0.00  0.00    +0.000 A 
ATOM     32  C   UNL     1      46.522   3.310   6.750  0.00  0.00    +0.000 A 
ENDBRANCH  25  27
BRANCH  24  33
ATOM     33  C   UNL     1      44.074   2.766  10.307  0.00  0.00    +0.000 C 
BRANCH  33  34
ATOM     34  C   UNL     1      43.578   2.589  11.742  0.00  0.00    +0.000 C 
BRANCH  34  35
ATOM     35  O   UNL     1      44.670   2.663  12.650  0.00  0.00    +0.000 OA
ATOM     36  H   UNL     1      44.649   3.542  13.062  0.00  0.00    +0.000 HD
ENDBRANCH  34  35
ENDBRANCH  33  34
ENDBRANCH  24  33
ENDBRANCH  23  24
ENDBRANCH   4  23
TORSDOF 9
ENDMDL
MODEL 2
REMARK VINA RESULT:    -8.630      1.393      1.762
REMARK INTER + INTRA:         -12.791
REMARK INTER:                 -12.806
REMARK INTRA:                   0.015
REMARK UNBOUND:                 0.127
REMARK  Name = 
REMARK  9 active torsions:
REMARK  status: ('A' for Active; 'I' for Inactive)
REMARK    1  A    between atoms: C_2  and  C_24
REMARK    2  A    between atoms: N_3  and  C_4
REMARK    3  A    between atoms: C_4  and  C_5
REMARK    4  A    between atoms: C_8  and  C_9
REMARK    5  A    between atoms: C_9  and  N_10
REMARK    6  A    between atoms: N_10  and  C_11
REMARK    7  A    between atoms: C_11  and  C_12
REMARK    8  A    between atoms: C_12  and  O_13
REMARK    9  A    between atoms: C_14  and  C_16
REMARK                            x       y       z     vdW  Elec       q    Type
REMARK                         _______ _______ _______ _____ _____    ______ ____
ROOT
ATOM      1  C   UNL     1      47.084   6.887  13.049  0.00  0.00    +0.000 A 
ATOM      2  C   UNL     1      46.830   5.511  13.015  0.00  0.00    +0.000 A 
ATOM      3  C   UNL     1      45.746   4.993  12.292  0.00  0.00    +0.000 A 
ATOM      4  C   UNL     1      44.905   5.836  11.551  0.00  0.00    +0.000 A 
ATOM      5  C   UNL     1      45.104   7.222  11.670  0.00  0.00    +0.000 A 
ATOM      6  C   UNL     1      46.180   7.742  12.408  0.00  0.00    +0.000 A 
ENDROOT
BRANCH   1   7
ATOM      7  C   UNL     1      48.339   7.410  13.705  0.00  0.00    +0.000 C 
BRANCH   7  10
ATOM      8  O   UNL     1      50.322   6.545  15.492  0.00  0.00    +0.000 OA
ATOM      9  C   UNL     1      49.263   6.965  15.959  0.00  0.00    +0.000 C 
ATOM     10  N   UNL     1      48.241   7.401  15.154  0.00  0.00    +0.000 N 
ATOM     11  H   UNL     1      47.436   7.862  15.565  0.00  0.00    +0.000 HD
BRANCH   9  12
ATOM     12  C   UNL     1      49.036   6.972  17.415  0.00  0.00    +0.000 A 
ATOM     13  C   UNL     1      48.857   8.190  18.063  0.00  0.00    +0.000 A 
ATOM     14  S   UNL     1      48.575   8.046  19.738  0.00  0.00    +0.000 S 
ATOM     15  C   UNL     1      48.638   6.349  19.661  0.00  0.00    +0.000 A 
ATOM     16  N   UNL     1      48.422   5.592  20.764  0.00  0.00    +0.000 NA
ATOM     17  C   UNL     1      48.465   4.318  20.557  0.00  0.00    +0.000 A 
ATOM     18  N   UNL     1      48.737   3.737  19.344  0.00  0.00    +0.000 N 
ATOM     19  C   UNL     1      49.038   4.464  18.215  0.00  0.00    +0.000 A 
ATOM     20  O   UNL     1      49.405   3.915  17.185  0.00  0.00    +0.000 OA
ATOM     21  C   UNL     1      48.929   5.900  18.376  0.00  0.00    +0.000 A 
ATOM     22  H   UNL     1      48.793   2.735  19.256  0.00  0.00    +0.000 HD
ENDBRANCH   9  12
ENDBRANCH   7  10
ENDBRANCH   1   7
BRANCH   4  23
ATOM     23  C   UNL     1      43.978   5.253  10.495  0.00  0.00    +0.000 C 
BRANCH  23  24
ATOM     24  N   UNL     1      44.421   4.069   9.746  0.00  0.00    +0.000 N 
ATOM     25  C   UNL     1      45.396   4.280   8.743  0.00  0.00    +0.000 C 
ATOM     26  O   UNL     1      45.864   5.394   8.506  0.00  0.00    +0.000 OA
BRANCH  25  27
ATOM     27  C   UNL     1      45.989   3.128   7.980  0.00  0.00    +0.000 A 
ATOM     28  C   UNL     1      45.993   1.807   8.442  0.00  0.00    +0.000 A 
ATOM     29  C   UNL     1      46.694   0.811   7.760  0.00  0.00    +0.000 A 
ATOM     30  C   UNL     1      47.306   1.099   6.544  0.00  0.00    +0.000 A 
ATOM     31  C   UNL     1      47.211   2.382   6.010  0.00  0.00    +0.000 A 
ATOM     32  C   UNL     1      46.568   3.395   6.729  0.00  0.00    +0.000 A 
ENDBRANCH  25  27
BRANCH  24  33
ATOM     33  C   UNL     1      44.131   2.712  10.260  0.00  0.00    +0.000 C 
BRANCH  33  34
ATOM     34  C   UNL     1      43.187   2.482  11.441  0.00  0.00    +0.000 C 
BRANCH  34  35
ATOM     35  O   UNL     1      43.933   2.344  12.643  0.00  0.00    +0.000 OA
ATOM     36  H   UNL     1      44.871   2.281  12.400  0.00  0.00    +0.000 HD
ENDBRANCH  34  35
ENDBRANCH  33  34
ENDBRANCH  24  33
ENDBRANCH  23  24
ENDBRANCH   4  23
TORSDOF 9
ENDMDL
MODEL 3
REMARK VINA RESULT:    -8.442      2.231      2.876
REMARK INTER + INTRA:         -12.510
REMARK INTER:                 -12.418
REMARK INTRA:                  -0.092
REMARK UNBOUND:                 0.127
REMARK  Name = 
REMARK  9 active torsions:
REMARK  status: ('A' for Active; 'I' for Inactive)
REMARK    1  A    between atoms: C_2  and  C_24
REMARK    2  A    between atoms: N_3  and  C_4
REMARK    3  A    between atoms: C_4  and  C_5
REMARK    4  A    between atoms: C_8  and  C_9
REMARK    5  A    between atoms: C_9  and  N_10
REMARK    6  A    between atoms: N_10  and  C_11
REMARK    7  A    between atoms: C_11  and  C_12
REMARK    8  A    between atoms: C_12  and  O_13
REMARK    9  A    between atoms: C_14  and  C_16
REMARK                            x       y       z     vdW  Elec       q    Type
REMARK                         _______ _______ _______ _____ _____    ______ ____
ROOT
ATOM      1  C   UNL     1      47.081   6.740  13.332  0.00  0.00    +0.000 A 
ATOM      2  C   UNL     1      46.888   5.370  13.119  0.00  0.00    +0.000 A 
ATOM      3  C   UNL     1      45.843   4.903  12.309  0.00  0.00    +0.000 A 
ATOM      4  C   UNL     1      44.981   5.798  11.658  0.00  0.00    +0.000 A 
ATOM      5  C   UNL     1      45.116   7.164  11.955  0.00  0.00    +0.000 A 
ATOM      6  C   UNL     1      46.153   7.632  12.779  0.00  0.00    +0.000 A 
ENDROOT
BRANCH   1   7
ATOM      7  C   UNL     1      48.298   7.227  14.080  0.00  0.00    +0.000 C 
BRANCH   7  10
ATOM      8  O   UNL     1      49.782   5.858  16.028  0.00  0.00    +0.000 OA
ATOM      9  C   UNL     1      48.852   6.573  16.403  0.00  0.00    +0.000 C 
ATOM     10  N   UNL     1      48.074   7.272  15.514  0.00  0.00    +0.000 N 
ATOM     11  H   UNL     1      47.403   7.952  15.856  0.00  0.00    +0.000 HD
BRANCH   9  12
ATOM     12  C   UNL     1      48.510   6.670  17.833  0.00  0.00    +0.000 A 
ATOM     13  C   UNL     1      48.599   5.532  18.626  0.00  0.00    +0.000 A 
ATOM     14  S   UNL     1      48.204   5.796  20.263  0.00  0.00    +0.000 S 
ATOM     15  C   UNL     1      47.936   7.453  19.989  0.00  0.00    +0.000 A 
ATOM     16  N   UNL     1      47.609   8.284  21.008  0.00  0.00    +0.000 NA
ATOM     17  C   UNL     1      47.468   9.522  20.666  0.00  0.00    +0.000 A 
ATOM     18  N   UNL     1      47.597   9.994  19.384  0.00  0.00    +0.000 N 
ATOM     19  C   UNL     1      47.851   9.175  18.307  0.00  0.00    +0.000 A 
ATOM     20  O   UNL     1      47.828   9.606  17.162  0.00  0.00    +0.000 OA
ATOM     21  C   UNL     1      48.092   7.787  18.647  0.00  0.00    +0.000 A 
ATOM     22  H   UNL     1      47.438  10.965  19.176  0.00  0.00    +0.000 HD
ENDBRANCH   9  12
ENDBRANCH   7  10
ENDBRANCH   1   7
BRANCH   4  23
ATOM     23  C   UNL     1      44.102   5.315  10.513  0.00  0.00    +0.000 C 
BRANCH  23  24
ATOM     24  N   UNL     1      44.511   4.116   9.771  0.00  0.00    +0.000 N 
ATOM     25  C   UNL     1      45.477   4.297   8.753  0.00  0.00    +0.000 C 
ATOM     26  O   UNL     1      45.964   5.399   8.499  0.00  0.00    +0.000 OA
BRANCH  25  27
ATOM     27  C   UNL     1      46.035   3.126   7.993  0.00  0.00    +0.000 A 
ATOM     28  C   UNL     1      45.975   1.803   8.446  0.00  0.00    +0.000 A 
ATOM     29  C   UNL     1      46.648   0.783   7.770  0.00  0.00    +0.000 A 
ATOM     30  C   UNL     1      47.295   1.052   6.568  0.00  0.00    +0.000 A 
ATOM     31  C   UNL     1      47.263   2.342   6.041  0.00  0.00    +0.000 A 
ATOM     32  C   UNL     1      46.649   3.376   6.755  0.00  0.00    +0.000 A 
ENDBRANCH  25  27
BRANCH  24  33
ATOM     33  C   UNL     1      44.200   2.770  10.301  0.00  0.00    +0.000 C 
BRANCH  33  34
ATOM     34  C   UNL     1      43.198   2.563  11.437  0.00  0.00    +0.000 C 
BRANCH  34  35
ATOM     35  O   UNL     1      43.883   2.242  12.641  0.00  0.00    +0.000 OA
ATOM     36  H   UNL     1      43.526   2.812  13.342  0.00  0.00    +0.000 HD
ENDBRANCH  34  35
ENDBRANCH  33  34
ENDBRANCH  24  33
ENDBRANCH  23  24
ENDBRANCH   4  23
TORSDOF 9
ENDMDL
MODEL 4
REMARK VINA RESULT:    -7.648      3.395      8.565
REMARK INTER + INTRA:         -11.320
REMARK INTER:                 -10.447
REMARK INTRA:                  -0.874
REMARK UNBOUND:                 0.127
REMARK  Name = 
REMARK  9 active torsions:
REMARK  status: ('A' for Active; 'I' for Inactive)
REMARK    1  A    between atoms: C_2  and  C_24
REMARK    2  A    between atoms: N_3  and  C_4
REMARK    3  A    between atoms: C_4  and  C_5
REMARK    4  A    between atoms: C_8  and  C_9
REMARK    5  A    between atoms: C_9  and  N_10
REMARK    6  A    between atoms: N_10  and  C_11
REMARK    7  A    between atoms: C_11  and  C_12
REMARK    8  A    between atoms: C_12  and  O_13
REMARK    9  A    between atoms: C_14  and  C_16
REMARK                            x       y       z     vdW  Elec       q    Type
REMARK                         _______ _______ _______ _____ _____    ______ ____
ROOT
ATOM      1  C   UNL     1      48.515   7.653  13.897  0.00  0.00    +0.000 A 
ATOM      2  C   UNL     1      49.117   8.616  14.714  0.00  0.00    +0.000 A 
ATOM      3  C   UNL     1      49.407   8.345  16.059  0.00  0.00    +0.000 A 
ATOM      4  C   UNL     1      49.134   7.088  16.616  0.00  0.00    +0.000 A 
ATOM      5  C   UNL     1      48.439   6.161  15.822  0.00  0.00    +0.000 A 
ATOM      6  C   UNL     1      48.134   6.437  14.479  0.00  0.00    +0.000 A 
ENDROOT
BRANCH   1   7
ATOM      7  C   UNL     1      48.351   7.908  12.418  0.00  0.00    +0.000 C 
BRANCH   7  10
ATOM      8  O   UNL     1      45.613   7.926  11.810  0.00  0.00    +0.000 OA
ATOM      9  C   UNL     1      46.271   6.934  11.494  0.00  0.00    +0.000 C 
ATOM     10  N   UNL     1      47.614   6.844  11.761  0.00  0.00    +0.000 N 
ATOM     11  H   UNL     1      48.155   6.077  11.374  0.00  0.00    +0.000 HD
BRANCH   9  12
ATOM     12  C   UNL     1      45.623   5.777  10.851  0.00  0.00    +0.000 A 
ATOM     13  C   UNL     1      45.836   5.553   9.495  0.00  0.00    +0.000 A 
ATOM     14  S   UNL     1      45.051   4.166   8.892  0.00  0.00    +0.000 S 
ATOM     15  C   UNL     1      44.426   3.782  10.427  0.00  0.00    +0.000 A 
ATOM     16  N   UNL     1      43.689   2.662  10.619  0.00  0.00    +0.000 NA
ATOM     17  C   UNL     1      43.307   2.475  11.840  0.00  0.00    +0.000 A 
ATOM     18  N   UNL     1      43.576   3.331  12.877  0.00  0.00    +0.000 N 
ATOM     19  C   UNL     1      44.253   4.518  12.713  0.00  0.00    +0.000 A 
ATOM     20  O   UNL     1      44.360   5.320  13.631  0.00  0.00    +0.000 OA
ATOM     21  C   UNL     1      44.769   4.739  11.378  0.00  0.00    +0.000 A 
ATOM     22  H   UNL     1      43.217   3.148  13.800  0.00  0.00    +0.000 HD
ENDBRANCH   9  12
ENDBRANCH   7  10
ENDBRANCH   1   7
BRANCH   4  23
ATOM     23  C   UNL     1      49.771   6.683  17.937  0.00  0.00    +0.000 C 
BRANCH  23  24
ATOM     24  N   UNL     1      50.150   5.277  18.133  0.00  0.00    +0.000 N 
ATOM     25  C   UNL     1      51.374   4.862  17.559  0.00  0.00    +0.000 C 
ATOM     26  O   UNL     1      52.099   5.634  16.930  0.00  0.00    +0.000 OA
BRANCH  25  27
ATOM     27  C   UNL     1      51.904   3.472  17.775  0.00  0.00    +0.000 A 
ATOM     28  C   UNL     1      53.125   3.192  18.398  0.00  0.00    +0.000 A 
ATOM     29  C   UNL     1      53.632   1.891  18.430  0.00  0.00    +0.000 A 
ATOM     30  C   UNL     1      52.871   0.835  17.939  0.00  0.00    +0.000 A 
ATOM     31  C   UNL     1      51.600   1.081  17.422  0.00  0.00    +0.000 A 
ATOM     32  C   UNL     1      51.124   2.393  17.327  0.00  0.00    +0.000 A 
ENDBRANCH  25  27
BRANCH  24  33
ATOM     33  C   UNL     1      49.472   4.460  19.165  0.00  0.00    +0.000 C 
BRANCH  33  34
ATOM     34  C   UNL     1      49.072   5.044  20.520  0.00  0.00    +0.000 C 
BRANCH  34  35
ATOM     35  O   UNL     1      48.098   4.214  21.142  0.00  0.00    +0.000 OA
ATOM     36  H   UNL     1      47.623   3.743  20.438  0.00  0.00    +0.000 HD
ENDBRANCH  34  35
ENDBRANCH  33  34
ENDBRANCH  24  33
ENDBRANCH  23  24
ENDBRANCH   4  23
TORSDOF 9
ENDMDL
MODEL 5
REMARK VINA RESULT:    -7.358      3.020      9.097
REMARK INTER + INTRA:         -10.887
REMARK INTER:                  -9.487
REMARK INTRA:                  -1.400
REMARK UNBOUND:                 0.127
REMARK  Name = 
REMARK  9 active torsions:
REMARK  status: ('A' for Active; 'I' for Inactive)
REMARK    1  A    between atoms: C_2  and  C_24
REMARK    2  A    between atoms: N_3  and  C_4
REMARK    3  A    between atoms: C_4  and  C_5
REMARK    4  A    between atoms: C_8  and  C_9
REMARK    5  A    between atoms: C_9  and  N_10
REMARK    6  A    between atoms: N_10  and  C_11
REMARK    7  A    between atoms: C_11  and  C_12
REMARK    8  A    between atoms: C_12  and  O_13
REMARK    9  A    between atoms: C_14  and  C_16
REMARK                            x       y       z     vdW  Elec       q    Type
REMARK                         _______ _______ _______ _____ _____    ______ ____
ROOT
ATOM      1  C   UNL     1      48.066   8.005  13.430  0.00  0.00    +0.000 A 
ATOM      2  C   UNL     1      48.877   6.959  13.883  0.00  0.00    +0.000 A 
ATOM      3  C   UNL     1      49.287   6.887  15.222  0.00  0.00    +0.000 A 
ATOM      4  C   UNL     1      48.865   7.844  16.156  0.00  0.00    +0.000 A 
ATOM      5  C   UNL     1      48.136   8.946  15.677  0.00  0.00    +0.000 A 
ATOM      6  C   UNL     1      47.739   9.026  14.332  0.00  0.00    +0.000 A 
ENDROOT
BRANCH   1   7
ATOM      7  C   UNL     1      47.512   7.982  12.026  0.00  0.00    +0.000 C 
BRANCH   7  10
ATOM      8  O   UNL     1      44.781   7.437  12.361  0.00  0.00    +0.000 OA
ATOM      9  C   UNL     1      45.500   6.544  11.913  0.00  0.00    +0.000 C 
ATOM     10  N   UNL     1      46.846   6.728  11.724  0.00  0.00    +0.000 N 
ATOM     11  H   UNL     1      47.388   6.024  11.233  0.00  0.00    +0.000 HD
BRANCH   9  12
ATOM     12  C   UNL     1      44.941   5.216  11.601  0.00  0.00    +0.000 A 
ATOM     13  C   UNL     1      44.224   4.539  12.581  0.00  0.00    +0.000 A 
ATOM     14  S   UNL     1      43.612   3.032  12.074  0.00  0.00    +0.000 S 
ATOM     15  C   UNL     1      44.245   3.238  10.509  0.00  0.00    +0.000 A 
ATOM     16  N   UNL     1      44.031   2.312   9.543  0.00  0.00    +0.000 NA
ATOM     17  C   UNL     1      44.538   2.611   8.393  0.00  0.00    +0.000 A 
ATOM     18  N   UNL     1      45.266   3.744   8.135  0.00  0.00    +0.000 N 
ATOM     19  C   UNL     1      45.574   4.673   9.104  0.00  0.00    +0.000 A 
ATOM     20  O   UNL     1      46.335   5.602   8.873  0.00  0.00    +0.000 OA
ATOM     21  C   UNL     1      44.965   4.423  10.395  0.00  0.00    +0.000 A 
ATOM     22  H   UNL     1      45.667   3.901   7.226  0.00  0.00    +0.000 HD
ENDBRANCH   9  12
ENDBRANCH   7  10
ENDBRANCH   1   7
BRANCH   4  23
ATOM     23  C   UNL     1      49.001   7.569  17.647  0.00  0.00    +0.000 C 
BRANCH  23  24
ATOM     24  N   UNL     1      49.701   6.350  18.075  0.00  0.00    +0.000 N 
ATOM     25  C   UNL     1      51.074   6.483  18.386  0.00  0.00    +0.000 C 
ATOM     26  O   UNL     1      51.663   7.562  18.313  0.00  0.00    +0.000 OA
BRANCH  25  27
ATOM     27  C   UNL     1      51.866   5.323  18.923  0.00  0.00    +0.000 A 
ATOM     28  C   UNL     1      52.112   5.111  20.284  0.00  0.00    +0.000 A 
ATOM     29  C   UNL     1      52.984   4.104  20.707  0.00  0.00    +0.000 A 
ATOM     30  C   UNL     1      53.530   3.222  19.780  0.00  0.00    +0.000 A 
ATOM     31  C   UNL     1      53.200   3.345  18.432  0.00  0.00    +0.000 A 
ATOM     32  C   UNL     1      52.385   4.397  18.003  0.00  0.00    +0.000 A 
ENDBRANCH  25  27
BRANCH  24  33
ATOM     33  C   UNL     1      48.932   5.158  18.496  0.00  0.00    +0.000 C 
BRANCH  33  34
ATOM     34  C   UNL     1      47.585   4.804  17.864  0.00  0.00    +0.000 C 
BRANCH  34  35
ATOM     35  O   UNL     1      46.521   5.283  18.677  0.00  0.00    +0.000 OA
ATOM     36  H   UNL     1      46.906   5.881  19.339  0.00  0.00    +0.000 HD
ENDBRANCH  34  35
ENDBRANCH  33  34
ENDBRANCH  24  33
ENDBRANCH  23  24
ENDBRANCH   4  23
TORSDOF 9
ENDMDL
MODEL 6
REMARK VINA RESULT:    -7.326      3.054      4.817
REMARK INTER + INTRA:         -10.839
REMARK INTER:                  -9.165
REMARK INTRA:                  -1.674
REMARK UNBOUND:                 0.127
REMARK  Name = 
REMARK  9 active torsions:
REMARK  status: ('A' for Active; 'I' for Inactive)
REMARK    1  A    between atoms: C_2  and  C_24
REMARK    2  A    between atoms: N_3  and  C_4
REMARK    3  A    between atoms: C_4  and  C_5
REMARK    4  A    between atoms: C_8  and  C_9
REMARK    5  A    between atoms: C_9  and  N_10
REMARK    6  A    between atoms: N_10  and  C_11
REMARK    7  A    between atoms: C_11  and  C_12
REMARK    8  A    between atoms: C_12  and  O_13
REMARK    9  A    between atoms: C_14  and  C_16
REMARK                            x       y       z     vdW  Elec       q    Type
REMARK                         _______ _______ _______ _____ _____    ______ ____
ROOT
ATOM      1  C   UNL     1      49.822   8.293  16.568  0.00  0.00    +0.000 A 
ATOM      2  C   UNL     1      48.515   8.764  16.399  0.00  0.00    +0.000 A 
ATOM      3  C   UNL     1      47.891   8.735  15.143  0.00  0.00    +0.000 A 
ATOM      4  C   UNL     1      48.547   8.200  14.025  0.00  0.00    +0.000 A 
ATOM      5  C   UNL     1      49.892   7.823  14.178  0.00  0.00    +0.000 A 
ATOM      6  C   UNL     1      50.522   7.866  15.433  0.00  0.00    +0.000 A 
ENDROOT
BRANCH   1   7
ATOM      7  C   UNL     1      50.418   8.191  17.951  0.00  0.00    +0.000 C 
BRANCH   7  10
ATOM      8  O   UNL     1      49.673   5.645  18.862  0.00  0.00    +0.000 OA
ATOM      9  C   UNL     1      50.846   5.823  18.533  0.00  0.00    +0.000 C 
ATOM     10  N   UNL     1      51.293   7.039  18.083  0.00  0.00    +0.000 N 
ATOM     11  H   UNL     1      52.228   7.122  17.696  0.00  0.00    +0.000 HD
BRANCH   9  12
ATOM     12  C   UNL     1      51.833   4.735  18.656  0.00  0.00    +0.000 A 
ATOM     13  C   UNL     1      53.002   4.963  19.374  0.00  0.00    +0.000 A 
ATOM     14  S   UNL     1      54.036   3.611  19.459  0.00  0.00    +0.000 S 
ATOM     15  C   UNL     1      52.947   2.651  18.574  0.00  0.00    +0.000 A 
ATOM     16  N   UNL     1      53.208   1.344  18.331  0.00  0.00    +0.000 NA
ATOM     17  C   UNL     1      52.281   0.724  17.678  0.00  0.00    +0.000 A 
ATOM     18  N   UNL     1      51.128   1.310  17.222  0.00  0.00    +0.000 N 
ATOM     19  C   UNL     1      50.856   2.651  17.379  0.00  0.00    +0.000 A 
ATOM     20  O   UNL     1      49.884   3.168  16.846  0.00  0.00    +0.000 OA
ATOM     21  C   UNL     1      51.829   3.375  18.170  0.00  0.00    +0.000 A 
ATOM     22  H   UNL     1      50.460   0.781  16.686  0.00  0.00    +0.000 HD
ENDBRANCH   9  12
ENDBRANCH   7  10
ENDBRANCH   1   7
BRANCH   4  23
ATOM     23  C   UNL     1      47.756   7.837  12.777  0.00  0.00    +0.000 C 
BRANCH  23  24
ATOM     24  N   UNL     1      46.916   6.632  12.803  0.00  0.00    +0.000 N 
ATOM     25  C   UNL     1      45.734   6.665  12.027  0.00  0.00    +0.000 C 
ATOM     26  O   UNL     1      45.418   7.646  11.353  0.00  0.00    +0.000 OA
BRANCH  25  27
ATOM     27  C   UNL     1      44.849   5.456  11.906  0.00  0.00    +0.000 A 
ATOM     28  C   UNL     1      43.962   5.037  12.905  0.00  0.00    +0.000 A 
ATOM     29  C   UNL     1      43.283   3.821  12.796  0.00  0.00    +0.000 A 
ATOM     30  C   UNL     1      43.393   3.064  11.635  0.00  0.00    +0.000 A 
ATOM     31  C   UNL     1      44.178   3.526  10.580  0.00  0.00    +0.000 A 
ATOM     32  C   UNL     1      44.913   4.708  10.720  0.00  0.00    +0.000 A 
ENDBRANCH  25  27
BRANCH  24  33
ATOM     33  C   UNL     1      47.462   5.355  13.314  0.00  0.00    +0.000 C 
BRANCH  33  34
ATOM     34  C   UNL     1      47.108   4.826  14.704  0.00  0.00    +0.000 C 
BRANCH  34  35
ATOM     35  O   UNL     1      48.181   5.063  15.606  0.00  0.00    +0.000 OA
ATOM     36  H   UNL     1      48.761   5.730  15.202  0.00  0.00    +0.000 HD
ENDBRANCH  34  35
ENDBRANCH  33  34
ENDBRANCH  24  33
ENDBRANCH  23  24
ENDBRANCH   4  23
TORSDOF 9
ENDMDL
MODEL 7
REMARK VINA RESULT:    -7.315      2.844      9.199
REMARK INTER + INTRA:         -10.822
REMARK INTER:                  -9.538
REMARK INTRA:                  -1.284
REMARK UNBOUND:                 0.127
REMARK  Name = 
REMARK  9 active torsions:
REMARK  status: ('A' for Active; 'I' for Inactive)
REMARK    1  A    between atoms: C_2  and  C_24
REMARK    2  A    between atoms: N_3  and  C_4
REMARK    3  A    between atoms: C_4  and  C_5
REMARK    4  A    between atoms: C_8  and  C_9
REMARK    5  A    between atoms: C_9  and  N_10
REMARK    6  A    between atoms: N_10  and  C_11
REMARK    7  A    between atoms: C_11  and  C_12
REMARK    8  A    between atoms: C_12  and  O_13
REMARK    9  A    between atoms: C_14  and  C_16
REMARK                            x       y       z     vdW  Elec       q    Type
REMARK                         _______ _______ _______ _____ _____    ______ ____
ROOT
ATOM      1  C   UNL     1      48.092   8.304  13.093  0.00  0.00    +0.000 A 
ATOM      2  C   UNL     1      49.348   7.749  12.825  0.00  0.00    +0.000 A 
ATOM      3  C   UNL     1      50.313   7.620  13.835  0.00  0.00    +0.000 A 
ATOM      4  C   UNL     1      50.033   8.011  15.152  0.00  0.00    +0.000 A 
ATOM      5  C   UNL     1      48.810   8.658  15.394  0.00  0.00    +0.000 A 
ATOM      6  C   UNL     1      47.849   8.802  14.379  0.00  0.00    +0.000 A 
ENDROOT
BRANCH   1   7
ATOM      7  C   UNL     1      47.017   8.293  12.033  0.00  0.00    +0.000 C 
BRANCH   7  10
ATOM      8  O   UNL     1      44.337   7.680  11.474  0.00  0.00    +0.000 OA
ATOM      9  C   UNL     1      45.140   6.751  11.553  0.00  0.00    +0.000 C 
ATOM     10  N   UNL     1      46.467   6.965  11.828  0.00  0.00    +0.000 N 
ATOM     11  H   UNL     1      47.128   6.197  11.757  0.00  0.00    +0.000 HD
BRANCH   9  12
ATOM     12  C   UNL     1      44.691   5.355  11.396  0.00  0.00    +0.000 A 
ATOM     13  C   UNL     1      43.969   4.761  12.424  0.00  0.00    +0.000 A 
ATOM     14  S   UNL     1      43.490   3.159  12.095  0.00  0.00    +0.000 S 
ATOM     15  C   UNL     1      44.192   3.206  10.547  0.00  0.00    +0.000 A 
ATOM     16  N   UNL     1      44.096   2.149   9.705  0.00  0.00    +0.000 NA
ATOM     17  C   UNL     1      44.644   2.333   8.549  0.00  0.00    +0.000 A 
ATOM     18  N   UNL     1      45.307   3.474   8.177  0.00  0.00    +0.000 N 
ATOM     19  C   UNL     1      45.496   4.541   9.025  0.00  0.00    +0.000 A 
ATOM     20  O   UNL     1      46.205   5.487   8.708  0.00  0.00    +0.000 OA
ATOM     21  C   UNL     1      44.836   4.417  10.309  0.00  0.00    +0.000 A 
ATOM     22  H   UNL     1      45.746   3.541   7.273  0.00  0.00    +0.000 HD
ENDBRANCH   9  12
ENDBRANCH   7  10
ENDBRANCH   1   7
BRANCH   4  23
ATOM     23  C   UNL     1      50.923   7.540  16.293  0.00  0.00    +0.000 C 
BRANCH  23  24
ATOM     24  N   UNL     1      50.329   6.715  17.354  0.00  0.00    +0.000 N 
ATOM     25  C   UNL     1      50.034   7.365  18.575  0.00  0.00    +0.000 C 
ATOM     26  O   UNL     1      50.251   8.565  18.749  0.00  0.00    +0.000 OA
BRANCH  25  27
ATOM     27  C   UNL     1      49.340   6.640  19.694  0.00  0.00    +0.000 A 
ATOM     28  C   UNL     1      49.928   5.611  20.438  0.00  0.00    +0.000 A 
ATOM     29  C   UNL     1      49.179   4.874  21.359  0.00  0.00    +0.000 A 
ATOM     30  C   UNL     1      47.863   5.232  21.632  0.00  0.00    +0.000 A 
ATOM     31  C   UNL     1      47.299   6.331  20.987  0.00  0.00    +0.000 A 
ATOM     32  C   UNL     1      48.027   7.023  20.014  0.00  0.00    +0.000 A 
ENDBRANCH  25  27
BRANCH  24  33
ATOM     33  C   UNL     1      49.752   5.391  17.031  0.00  0.00    +0.000 C 
BRANCH  33  34
ATOM     34  C   UNL     1      48.270   5.218  16.694  0.00  0.00    +0.000 C 
BRANCH  34  35
ATOM     35  O   UNL     1      48.093   5.161  15.285  0.00  0.00    +0.000 OA
ATOM     36  H   UNL     1      48.536   5.936  14.902  0.00  0.00    +0.000 HD
ENDBRANCH  34  35
ENDBRANCH  33  34
ENDBRANCH  24  33
ENDBRANCH  23  24
ENDBRANCH   4  23
TORSDOF 9
ENDMDL
MODEL 8
REMARK VINA RESULT:    -7.292      3.524      8.413
REMARK INTER + INTRA:         -10.788
REMARK INTER:                 -10.008
REMARK INTRA:                  -0.780
REMARK UNBOUND:                 0.127
REMARK  Name = 
REMARK  9 active torsions:
REMARK  status: ('A' for Active; 'I' for Inactive)
REMARK    1  A    between atoms: C_2  and  C_24
REMARK    2  A    between atoms: N_3  and  C_4
REMARK    3  A    between atoms: C_4  and  C_5
REMARK    4  A    between atoms: C_8  and  C_9
REMARK    5  A    between atoms: C_9  and  N_10
REMARK    6  A    between atoms: N_10  and  C_11
REMARK    7  A    between atoms: C_11  and  C_12
REMARK    8  A    between atoms: C_12  and  O_13
REMARK    9  A    between atoms: C_14  and  C_16
REMARK                            x       y       z     vdW  Elec       q    Type
REMARK                         _______ _______ _______ _____ _____    ______ ____
ROOT
ATOM      1  C   UNL     1      48.405   8.367  15.081  0.00  0.00    +0.000 A 
ATOM      2  C   UNL     1      49.241   7.254  14.939  0.00  0.00    +0.000 A 
ATOM      3  C   UNL     1      49.792   6.614  16.058  0.00  0.00    +0.000 A 
ATOM      4  C   UNL     1      49.492   7.050  17.357  0.00  0.00    +0.000 A 
ATOM      5  C   UNL     1      48.736   8.227  17.490  0.00  0.00    +0.000 A 
ATOM      6  C   UNL     1      48.197   8.877  16.368  0.00  0.00    +0.000 A 
ENDROOT
BRANCH   1   7
ATOM      7  C   UNL     1      47.702   8.946  13.877  0.00  0.00    +0.000 C 
BRANCH   7  10
ATOM      8  O   UNL     1      47.627   7.047  11.813  0.00  0.00    +0.000 OA
ATOM      9  C   UNL     1      46.599   7.237  12.463  0.00  0.00    +0.000 C 
ATOM     10  N   UNL     1      46.551   8.151  13.485  0.00  0.00    +0.000 N 
ATOM     11  H   UNL     1      45.734   8.193  14.087  0.00  0.00    +0.000 HD
BRANCH   9  12
ATOM     12  C   UNL     1      45.358   6.512  12.135  0.00  0.00    +0.000 A 
ATOM     13  C   UNL     1      44.299   7.212  11.569  0.00  0.00    +0.000 A 
ATOM     14  S   UNL     1      42.942   6.245  11.214  0.00  0.00    +0.000 S 
ATOM     15  C   UNL     1      43.728   4.841  11.765  0.00  0.00    +0.000 A 
ATOM     16  N   UNL     1      43.125   3.630  11.691  0.00  0.00    +0.000 NA
ATOM     17  C   UNL     1      43.848   2.645  12.112  0.00  0.00    +0.000 A 
ATOM     18  N   UNL     1      45.112   2.774  12.628  0.00  0.00    +0.000 N 
ATOM     19  C   UNL     1      45.733   3.991  12.793  0.00  0.00    +0.000 A 
ATOM     20  O   UNL     1      46.804   4.083  13.377  0.00  0.00    +0.000 OA
ATOM     21  C   UNL     1      44.995   5.121  12.267  0.00  0.00    +0.000 A 
ATOM     22  H   UNL     1      45.610   1.970  12.974  0.00  0.00    +0.000 HD
ENDBRANCH   9  12
ENDBRANCH   7  10
ENDBRANCH   1   7
BRANCH   4  23
ATOM     23  C   UNL     1      49.783   6.153  18.551  0.00  0.00    +0.000 C 
BRANCH  23  24
ATOM     24  N   UNL     1      50.221   4.772  18.302  0.00  0.00    +0.000 N 
ATOM     25  C   UNL     1      51.616   4.546  18.260  0.00  0.00    +0.000 C 
ATOM     26  O   UNL     1      52.434   5.451  18.431  0.00  0.00    +0.000 OA
BRANCH  25  27
ATOM     27  C   UNL     1      52.175   3.159  18.104  0.00  0.00    +0.000 A 
ATOM     28  C   UNL     1      51.541   2.140  17.385  0.00  0.00    +0.000 A 
ATOM     29  C   UNL     1      52.033   0.833  17.408  0.00  0.00    +0.000 A 
ATOM     30  C   UNL     1      53.231   0.552  18.056  0.00  0.00    +0.000 A 
ATOM     31  C   UNL     1      53.939   1.580  18.676  0.00  0.00    +0.000 A 
ATOM     32  C   UNL     1      53.408   2.873  18.713  0.00  0.00    +0.000 A 
ENDBRANCH  25  27
BRANCH  24  33
ATOM     33  C   UNL     1      49.267   3.651  18.449  0.00  0.00    +0.000 C 
BRANCH  33  34
ATOM     34  C   UNL     1      48.064   3.489  17.519  0.00  0.00    +0.000 C 
BRANCH  34  35
ATOM     35  O   UNL     1      46.887   3.977  18.151  0.00  0.00    +0.000 OA
ATOM     36  H   UNL     1      46.157   3.384  17.908  0.00  0.00    +0.000 HD
ENDBRANCH  34  35
ENDBRANCH  33  34
ENDBRANCH  24  33
ENDBRANCH  23  24
ENDBRANCH   4  23
TORSDOF 9
ENDMDL
MODEL 9
REMARK VINA RESULT:    -7.258      3.807      9.617
REMARK INTER + INTRA:         -10.737
REMARK INTER:                  -9.883
REMARK INTRA:                  -0.854
REMARK UNBOUND:                 0.127
REMARK  Name = 
REMARK  9 active torsions:
REMARK  status: ('A' for Active; 'I' for Inactive)
REMARK    1  A    between atoms: C_2  and  C_24
REMARK    2  A    between atoms: N_3  and  C_4
REMARK    3  A    between atoms: C_4  and  C_5
REMARK    4  A    between atoms: C_8  and  C_9
REMARK    5  A    between atoms: C_9  and  N_10
REMARK    6  A    between atoms: N_10  and  C_11
REMARK    7  A    between atoms: C_11  and  C_12
REMARK    8  A    between atoms: C_12  and  O_13
REMARK    9  A    between atoms: C_14  and  C_16
REMARK                            x       y       z     vdW  Elec       q    Type
REMARK                         _______ _______ _______ _____ _____    ______ ____
ROOT
ATOM      1  C   UNL     1      49.014   7.264  13.862  0.00  0.00    +0.000 A 
ATOM      2  C   UNL     1      48.249   6.434  14.689  0.00  0.00    +0.000 A 
ATOM      3  C   UNL     1      48.703   6.064  15.963  0.00  0.00    +0.000 A 
ATOM      4  C   UNL     1      49.923   6.544  16.460  0.00  0.00    +0.000 A 
ATOM      5  C   UNL     1      50.732   7.293  15.589  0.00  0.00    +0.000 A 
ATOM      6  C   UNL     1      50.284   7.651  14.307  0.00  0.00    +0.000 A 
ENDROOT
BRANCH   1   7
ATOM      7  C   UNL     1      48.441   7.774  12.562  0.00  0.00    +0.000 C 
BRANCH   7  10
ATOM      8  O   UNL     1      45.702   7.858  11.963  0.00  0.00    +0.000 OA
ATOM      9  C   UNL     1      46.344   6.871  11.602  0.00  0.00    +0.000 C 
ATOM     10  N   UNL     1      47.686   6.750  11.861  0.00  0.00    +0.000 N 
ATOM     11  H   UNL     1      48.215   5.993  11.440  0.00  0.00    +0.000 HD
BRANCH   9  12
ATOM     12  C   UNL     1      45.678   5.753  10.912  0.00  0.00    +0.000 A 
ATOM     13  C   UNL     1      45.876   5.591   9.545  0.00  0.00    +0.000 A 
ATOM     14  S   UNL     1      45.070   4.242   8.885  0.00  0.00    +0.000 S 
ATOM     15  C   UNL     1      44.456   3.793  10.406  0.00  0.00    +0.000 A 
ATOM     16  N   UNL     1      43.708   2.673  10.553  0.00  0.00    +0.000 NA
ATOM     17  C   UNL     1      43.336   2.432  11.767  0.00  0.00    +0.000 A 
ATOM     18  N   UNL     1      43.623   3.235  12.841  0.00  0.00    +0.000 N 
ATOM     19  C   UNL     1      44.312   4.422  12.726  0.00  0.00    +0.000 A 
ATOM     20  O   UNL     1      44.436   5.178  13.680  0.00  0.00    +0.000 OA
ATOM     21  C   UNL     1      44.818   4.700  11.398  0.00  0.00    +0.000 A 
ATOM     22  H   UNL     1      43.271   3.013  13.757  0.00  0.00    +0.000 HD
ENDBRANCH   9  12
ENDBRANCH   7  10
ENDBRANCH   1   7
BRANCH   4  23
ATOM     23  C   UNL     1      50.234   6.446  17.947  0.00  0.00    +0.000 C 
BRANCH  23  24
ATOM     24  N   UNL     1      49.209   6.872  18.909  0.00  0.00    +0.000 N 
ATOM     25  C   UNL     1      49.092   8.262  19.138  0.00  0.00    +0.000 C 
ATOM     26  O   UNL     1      49.802   9.086  18.560  0.00  0.00    +0.000 OA
BRANCH  25  27
ATOM     27  C   UNL     1      48.017   8.816  20.032  0.00  0.00    +0.000 A 
ATOM     28  C   UNL     1      47.004   9.675  19.591  0.00  0.00    +0.000 A 
ATOM     29  C   UNL     1      46.129  10.277  20.498  0.00  0.00    +0.000 A 
ATOM     30  C   UNL     1      46.182   9.937  21.846  0.00  0.00    +0.000 A 
ATOM     31  C   UNL     1      47.106   8.991  22.284  0.00  0.00    +0.000 A 
ATOM     32  C   UNL     1      48.028   8.444  21.385  0.00  0.00    +0.000 A 
ENDBRANCH  25  27
BRANCH  24  33
ATOM     33  C   UNL     1      48.143   5.934  19.324  0.00  0.00    +0.000 C 
BRANCH  33  34
ATOM     34  C   UNL     1      48.423   4.756  20.258  0.00  0.00    +0.000 C 
BRANCH  34  35
ATOM     35  O   UNL     1      48.510   3.549  19.512  0.00  0.00    +0.000 OA
ATOM     36  H   UNL     1      47.649   3.406  19.085  0.00  0.00    +0.000 HD
ENDBRANCH  34  35
ENDBRANCH  33  34
ENDBRANCH  24  33
ENDBRANCH  23  24
ENDBRANCH   4  23
TORSDOF 9
ENDMDL
