MODEL 1
REMARK VINA RESULT:    -8.326      0.000      0.000
REMARK INTER + INTRA:         -12.272
REMARK INTER:                 -11.246
REMARK INTRA:                  -1.026
REMARK UNBOUND:                -1.026
REMARK  Name = 
REMARK  6 active torsions:
REMARK  status: ('A' for Active; 'I' for Inactive)
REMARK    1  A    between atoms: C_2  and  C_4
REMARK    2  A    between atoms: C_7  and  O_8
REMARK    3  A    between atoms: O_8  and  C_9
REMARK    4  A    between atoms: C_9  and  C_10
REMARK    5  A    between atoms: C_10  and  C_11
REMARK    6  A    between atoms: C_15  and  C_16
REMARK                            x       y       z     vdW  Elec       q    Type
REMARK                         _______ _______ _______ _____ _____    ______ ____
ROOT
ATOM      1  C   UNL     1      43.354   5.042  12.260  0.00  0.00    +0.000 C 
ENDROOT
BRANCH   1   2
ATOM      2  C   UNL     1      44.774   5.309  12.689  0.00  0.00    +0.000 A 
ATOM      3  C   UNL     1      45.463   4.399  13.493  0.00  0.00    +0.000 A 
ATOM      4  C   UNL     1      46.791   4.642  13.838  0.00  0.00    +0.000 A 
ATOM      5  C   UNL     1      47.439   5.798  13.384  0.00  0.00    +0.000 A 
ATOM      6  C   UNL     1      46.776   6.747  12.582  0.00  0.00    +0.000 A 
ATOM      7  C   UNL     1      45.440   6.461  12.240  0.00  0.00    +0.000 A 
ATOM      8  F   UNL     1      44.746   7.315  11.469  0.00  0.00    +0.000 F 
BRANCH   6   9
ATOM      9  C   UNL     1      47.444   8.002  12.158  0.00  0.00    +0.000 A 
ATOM     10  C   UNL     1      46.794   9.248  12.226  0.00  0.00    +0.000 A 
ATOM     11  C   UNL     1      47.457  10.439  11.911  0.00  0.00    +0.000 A 
ATOM     12  C   UNL     1      48.783  10.411  11.493  0.00  0.00    +0.000 A 
ATOM     13  C   UNL     1      49.441   9.190  11.381  0.00  0.00    +0.000 A 
ATOM     14  C   UNL     1      48.780   8.003  11.711  0.00  0.00    +0.000 A 
ENDBRANCH   6   9
ENDBRANCH   1   2
BRANCH   1  15
ATOM     15  C   UNL     1      43.308   4.047  11.103  0.00  0.00    +0.000 C 
BRANCH  15  16
ATOM     16  O   UNL     1      43.677   4.711   9.889  0.00  0.00    +0.000 OA
BRANCH  16  20
ATOM     17  C   UNL     1      46.428   2.500   7.767  0.00  0.00    +0.000 A 
ATOM     18  C   UNL     1      45.599   1.863   8.693  0.00  0.00    +0.000 A 
ATOM     19  C   UNL     1      44.674   2.625   9.410  0.00  0.00    +0.000 A 
ATOM     20  C   UNL     1      44.617   3.991   9.175  0.00  0.00    +0.000 A 
ATOM     21  N   UNL     1      45.423   4.631   8.300  0.00  0.00    +0.000 NA
ATOM     22  C   UNL     1      46.316   3.873   7.622  0.00  0.00    +0.000 A 
BRANCH  17  24
ATOM     23  N   UNL     1      48.478   2.520   6.463  0.00  0.00    +0.000 N 
ATOM     24  C   UNL     1      47.426   1.789   6.940  0.00  0.00    +0.000 C 
ATOM     25  O   UNL     1      47.344   0.587   6.727  0.00  0.00    +0.000 OA
ATOM     26  H   UNL     1      49.216   1.994   6.011  0.00  0.00    +0.000 HD
ATOM     27  H   UNL     1      48.719   3.428   6.836  0.00  0.00    +0.000 HD
ENDBRANCH  17  24
ENDBRANCH  16  20
ENDBRANCH  15  16
ENDBRANCH   1  15
TORSDOF 6
ENDMDL
MODEL 2
REMARK VINA RESULT:    -7.953      3.713      7.366
REMARK INTER + INTRA:         -11.769
REMARK INTER:                 -10.904
REMARK INTRA:                  -0.865
REMARK UNBOUND:                -1.026
REMARK  Name = 
REMARK  6 active torsions:
REMARK  status: ('A' for Active; 'I' for Inactive)
REMARK    1  A    between atoms: C_2  and  C_4
REMARK    2  A    between atoms: C_7  and  O_8
REMARK    3  A    between atoms: O_8  and  C_9
REMARK    4  A    between atoms: C_9  and  C_10
REMARK    5  A    between atoms: C_10  and  C_11
REMARK    6  A    between atoms: C_15  and  C_16
REMARK                            x       y       z     vdW  Elec       q    Type
REMARK                         _______ _______ _______ _____ _____    ______ ____
ROOT
ATOM      1  C   UNL     1      44.952   6.513  11.209  0.00  0.00    +0.000 C 
ENDROOT
BRANCH   1   2
ATOM      2  C   UNL     1      44.715   5.083  10.797  0.00  0.00    +0.000 A 
ATOM      3  C   UNL     1      43.833   4.267  11.510  0.00  0.00    +0.000 A 
ATOM      4  C   UNL     1      43.592   2.964  11.083  0.00  0.00    +0.000 A 
ATOM      5  C   UNL     1      44.233   2.464   9.942  0.00  0.00    +0.000 A 
ATOM      6  C   UNL     1      45.139   3.249   9.203  0.00  0.00    +0.000 A 
ATOM      7  C   UNL     1      45.347   4.566   9.654  0.00  0.00    +0.000 A 
ATOM      8  F   UNL     1      46.190   5.378   8.993  0.00  0.00    +0.000 F 
BRANCH   6   9
ATOM      9  C   UNL     1      45.867   2.694   8.034  0.00  0.00    +0.000 A 
ATOM     10  C   UNL     1      46.084   3.451   6.868  0.00  0.00    +0.000 A 
ATOM     11  C   UNL     1      46.847   2.957   5.805  0.00  0.00    +0.000 A 
ATOM     12  C   UNL     1      47.391   1.679   5.871  0.00  0.00    +0.000 A 
ATOM     13  C   UNL     1      47.162   0.893   6.996  0.00  0.00    +0.000 A 
ATOM     14  C   UNL     1      46.412   1.396   8.063  0.00  0.00    +0.000 A 
ENDBRANCH   6   9
ENDBRANCH   1   2
BRANCH   1  15
ATOM     15  C   UNL     1      45.579   6.587  12.599  0.00  0.00    +0.000 C 
BRANCH  15  16
ATOM     16  O   UNL     1      46.876   5.979  12.569  0.00  0.00    +0.000 OA
BRANCH  16  20
ATOM     17  C   UNL     1      48.075   4.701  16.296  0.00  0.00    +0.000 A 
ATOM     18  C   UNL     1      47.126   3.962  15.586  0.00  0.00    +0.000 A 
ATOM     19  C   UNL     1      46.724   4.410  14.327  0.00  0.00    +0.000 A 
ATOM     20  C   UNL     1      47.283   5.577  13.828  0.00  0.00    +0.000 A 
ATOM     21  N   UNL     1      48.186   6.318  14.504  0.00  0.00    +0.000 NA
ATOM     22  C   UNL     1      48.556   5.869  15.727  0.00  0.00    +0.000 A 
BRANCH  17  24
ATOM     23  N   UNL     1      47.668   4.130  18.623  0.00  0.00    +0.000 N 
ATOM     24  C   UNL     1      48.587   4.310  17.627  0.00  0.00    +0.000 C 
ATOM     25  O   UNL     1      49.778   4.109  17.821  0.00  0.00    +0.000 OA
ATOM     26  H   UNL     1      48.022   3.738  19.487  0.00  0.00    +0.000 HD
ATOM     27  H   UNL     1      46.681   4.023  18.435  0.00  0.00    +0.000 HD
ENDBRANCH  17  24
ENDBRANCH  16  20
ENDBRANCH  15  16
ENDBRANCH   1  15
TORSDOF 6
ENDMDL
MODEL 3
REMARK VINA RESULT:    -7.925      1.896      3.738
REMARK INTER + INTRA:         -11.731
REMARK INTER:                 -11.053
REMARK INTRA:                  -0.678
REMARK UNBOUND:                -1.026
REMARK  Name = 
REMARK  6 active torsions:
REMARK  status: ('A' for Active; 'I' for Inactive)
REMARK    1  A    between atoms: C_2  and  C_4
REMARK    2  A    between atoms: C_7  and  O_8
REMARK    3  A    between atoms: O_8  and  C_9
REMARK    4  A    between atoms: C_9  and  C_10
REMARK    5  A    between atoms: C_10  and  C_11
REMARK    6  A    between atoms: C_15  and  C_16
REMARK                            x       y       z     vdW  Elec       q    Type
REMARK                         _______ _______ _______ _____ _____    ______ ____
ROOT
ATOM      1  C   UNL     1      44.415   5.860  11.603  0.00  0.00    +0.000 C 
ENDROOT
BRANCH   1   2
ATOM      2  C   UNL     1      45.794   6.065  12.177  0.00  0.00    +0.000 A 
ATOM      3  C   UNL     1      46.749   6.823  11.495  0.00  0.00    +0.000 A 
ATOM      4  C   UNL     1      48.000   7.041  12.066  0.00  0.00    +0.000 A 
ATOM      5  C   UNL     1      48.308   6.501  13.321  0.00  0.00    +0.000 A 
ATOM      6  C   UNL     1      47.378   5.721  14.035  0.00  0.00    +0.000 A 
ATOM      7  C   UNL     1      46.118   5.534  13.435  0.00  0.00    +0.000 A 
ATOM      8  F   UNL     1      45.176   4.810  14.062  0.00  0.00    +0.000 F 
BRANCH   6   9
ATOM      9  C   UNL     1      47.731   5.095  15.334  0.00  0.00    +0.000 A 
ATOM     10  C   UNL     1      47.356   3.776  15.648  0.00  0.00    +0.000 A 
ATOM     11  C   UNL     1      47.767   3.159  16.835  0.00  0.00    +0.000 A 
ATOM     12  C   UNL     1      48.543   3.858  17.752  0.00  0.00    +0.000 A 
ATOM     13  C   UNL     1      48.898   5.177  17.486  0.00  0.00    +0.000 A 
ATOM     14  C   UNL     1      48.499   5.785  16.292  0.00  0.00    +0.000 A 
ENDBRANCH   6   9
ENDBRANCH   1   2
BRANCH   1  15
ATOM     15  C   UNL     1      44.230   4.423  11.120  0.00  0.00    +0.000 C 
BRANCH  15  16
ATOM     16  O   UNL     1      43.871   4.429   9.734  0.00  0.00    +0.000 OA
BRANCH  16  20
ATOM     17  C   UNL     1      46.628   2.425   7.423  0.00  0.00    +0.000 A 
ATOM     18  C   UNL     1      45.866   1.718   8.355  0.00  0.00    +0.000 A 
ATOM     19  C   UNL     1      44.939   2.410   9.136  0.00  0.00    +0.000 A 
ATOM     20  C   UNL     1      44.812   3.779   8.956  0.00  0.00    +0.000 A 
ATOM     21  N   UNL     1      45.552   4.487   8.076  0.00  0.00    +0.000 NA
ATOM     22  C   UNL     1      46.449   3.796   7.335  0.00  0.00    +0.000 A 
BRANCH  17  24
ATOM     23  N   UNL     1      48.801   2.456   6.335  0.00  0.00    +0.000 N 
ATOM     24  C   UNL     1      47.622   1.792   6.530  0.00  0.00    +0.000 C 
ATOM     25  O   UNL     1      47.422   0.697   6.022  0.00  0.00    +0.000 OA
ATOM     26  H   UNL     1      49.517   1.950   5.829  0.00  0.00    +0.000 HD
ATOM     27  H   UNL     1      49.103   3.209   6.937  0.00  0.00    +0.000 HD
ENDBRANCH  17  24
ENDBRANCH  16  20
ENDBRANCH  15  16
ENDBRANCH   1  15
TORSDOF 6
ENDMDL
MODEL 4
REMARK VINA RESULT:    -7.849      1.539      2.167
REMARK INTER + INTRA:         -11.628
REMARK INTER:                 -10.799
REMARK INTRA:                  -0.830
REMARK UNBOUND:                -1.026
REMARK  Name = 
REMARK  6 active torsions:
REMARK  status: ('A' for Active; 'I' for Inactive)
REMARK    1  A    between atoms: C_2  and  C_4
REMARK    2  A    between atoms: C_7  and  O_8
REMARK    3  A    between atoms: O_8  and  C_9
REMARK    4  A    between atoms: C_9  and  C_10
REMARK    5  A    between atoms: C_10  and  C_11
REMARK    6  A    between atoms: C_15  and  C_16
REMARK                            x       y       z     vdW  Elec       q    Type
REMARK                         _______ _______ _______ _____ _____    ______ ____
ROOT
ATOM      1  C   UNL     1      43.524   3.964  12.866  0.00  0.00    +0.000 C 
ENDROOT
BRANCH   1   2
ATOM      2  C   UNL     1      44.646   4.965  12.973  0.00  0.00    +0.000 A 
ATOM      3  C   UNL     1      45.864   4.617  13.561  0.00  0.00    +0.000 A 
ATOM      4  C   UNL     1      46.904   5.542  13.605  0.00  0.00    +0.000 A 
ATOM      5  C   UNL     1      46.735   6.823  13.066  0.00  0.00    +0.000 A 
ATOM      6  C   UNL     1      45.518   7.218  12.476  0.00  0.00    +0.000 A 
ATOM      7  C   UNL     1      44.494   6.253  12.435  0.00  0.00    +0.000 A 
ATOM      8  F   UNL     1      43.309   6.554  11.878  0.00  0.00    +0.000 F 
BRANCH   6   9
ATOM      9  C   UNL     1      45.320   8.598  11.966  0.00  0.00    +0.000 A 
ATOM     10  C   UNL     1      46.173   9.654  12.333  0.00  0.00    +0.000 A 
ATOM     11  C   UNL     1      46.037  10.932  11.781  0.00  0.00    +0.000 A 
ATOM     12  C   UNL     1      45.025  11.193  10.865  0.00  0.00    +0.000 A 
ATOM     13  C   UNL     1      44.143  10.177  10.510  0.00  0.00    +0.000 A 
ATOM     14  C   UNL     1      44.291   8.897  11.052  0.00  0.00    +0.000 A 
ENDBRANCH   6   9
ENDBRANCH   1   2
BRANCH   1  15
ATOM     15  C   UNL     1      43.830   2.907  11.808  0.00  0.00    +0.000 C 
BRANCH  15  16
ATOM     16  O   UNL     1      43.429   3.391  10.521  0.00  0.00    +0.000 OA
BRANCH  16  20
ATOM     17  C   UNL     1      46.366   2.818   7.692  0.00  0.00    +0.000 A 
ATOM     18  C   UNL     1      45.978   4.116   8.029  0.00  0.00    +0.000 A 
ATOM     19  C   UNL     1      44.977   4.296   8.985  0.00  0.00    +0.000 A 
ATOM     20  C   UNL     1      44.404   3.174   9.565  0.00  0.00    +0.000 A 
ATOM     21  N   UNL     1      44.748   1.910   9.240  0.00  0.00    +0.000 NA
ATOM     22  C   UNL     1      45.716   1.759   8.305  0.00  0.00    +0.000 A 
BRANCH  17  24
ATOM     23  N   UNL     1      47.413   3.210   5.534  0.00  0.00    +0.000 N 
ATOM     24  C   UNL     1      47.427   2.511   6.709  0.00  0.00    +0.000 C 
ATOM     25  O   UNL     1      48.310   1.700   6.951  0.00  0.00    +0.000 OA
ATOM     26  H   UNL     1      48.217   3.081   4.932  0.00  0.00    +0.000 HD
ATOM     27  H   UNL     1      46.876   4.057   5.415  0.00  0.00    +0.000 HD
ENDBRANCH  17  24
ENDBRANCH  16  20
ENDBRANCH  15  16
ENDBRANCH   1  15
TORSDOF 6
ENDMDL
MODEL 5
REMARK VINA RESULT:    -7.515      2.207      3.322
REMARK INTER + INTRA:         -11.177
REMARK INTER:                 -10.399
REMARK INTRA:                  -0.778
REMARK UNBOUND:                -1.026
REMARK  Name = 
REMARK  6 active torsions:
REMARK  status: ('A' for Active; 'I' for Inactive)
REMARK    1  A    between atoms: C_2  and  C_4
REMARK    2  A    between atoms: C_7  and  O_8
REMARK    3  A    between atoms: O_8  and  C_9
REMARK    4  A    between atoms: C_9  and  C_10
REMARK    5  A    between atoms: C_10  and  C_11
REMARK    6  A    between atoms: C_15  and  C_16
REMARK                            x       y       z     vdW  Elec       q    Type
REMARK                         _______ _______ _______ _____ _____    ______ ____
ROOT
ATOM      1  C   UNL     1      45.054   3.628  11.819  0.00  0.00    +0.000 C 
ENDROOT
BRANCH   1   2
ATOM      2  C   UNL     1      45.756   4.916  12.168  0.00  0.00    +0.000 A 
ATOM      3  C   UNL     1      45.492   6.091  11.461  0.00  0.00    +0.000 A 
ATOM      4  C   UNL     1      46.115   7.280  11.831  0.00  0.00    +0.000 A 
ATOM      5  C   UNL     1      47.009   7.304  12.908  0.00  0.00    +0.000 A 
ATOM      6  C   UNL     1      47.312   6.139  13.639  0.00  0.00    +0.000 A 
ATOM      7  C   UNL     1      46.653   4.958  13.247  0.00  0.00    +0.000 A 
ATOM      8  F   UNL     1      46.885   3.809  13.904  0.00  0.00    +0.000 F 
BRANCH   6   9
ATOM      9  C   UNL     1      48.311   6.154  14.737  0.00  0.00    +0.000 A 
ATOM     10  C   UNL     1      49.459   6.965  14.684  0.00  0.00    +0.000 A 
ATOM     11  C   UNL     1      50.351   7.045  15.759  0.00  0.00    +0.000 A 
ATOM     12  C   UNL     1      50.130   6.292  16.907  0.00  0.00    +0.000 A 
ATOM     13  C   UNL     1      49.023   5.453  16.974  0.00  0.00    +0.000 A 
ATOM     14  C   UNL     1      48.125   5.387  15.904  0.00  0.00    +0.000 A 
ENDBRANCH   6   9
ENDBRANCH   1   2
BRANCH   1  15
ATOM     15  C   UNL     1      43.966   3.862  10.774  0.00  0.00    +0.000 C 
BRANCH  15  16
ATOM     16  O   UNL     1      43.768   2.664  10.015  0.00  0.00    +0.000 OA
BRANCH  16  20
ATOM     17  C   UNL     1      46.692   2.257   7.144  0.00  0.00    +0.000 A 
ATOM     18  C   UNL     1      45.979   3.455   7.237  0.00  0.00    +0.000 A 
ATOM     19  C   UNL     1      44.987   3.577   8.211  0.00  0.00    +0.000 A 
ATOM     20  C   UNL     1      44.745   2.500   9.051  0.00  0.00    +0.000 A 
ATOM     21  N   UNL     1      45.407   1.327   8.966  0.00  0.00    +0.000 NA
ATOM     22  C   UNL     1      46.360   1.228   8.009  0.00  0.00    +0.000 A 
BRANCH  17  24
ATOM     23  N   UNL     1      48.875   2.835   6.246  0.00  0.00    +0.000 N 
ATOM     24  C   UNL     1      47.776   2.025   6.166  0.00  0.00    +0.000 C 
ATOM     25  O   UNL     1      47.718   1.118   5.347  0.00  0.00    +0.000 OA
ATOM     26  H   UNL     1      49.658   2.579   5.657  0.00  0.00    +0.000 HD
ATOM     27  H   UNL     1      49.072   3.400   7.059  0.00  0.00    +0.000 HD
ENDBRANCH  17  24
ENDBRANCH  16  20
ENDBRANCH  15  16
ENDBRANCH   1  15
TORSDOF 6
ENDMDL
MODEL 6
REMARK VINA RESULT:    -7.445      3.337      7.090
REMARK INTER + INTRA:         -11.083
REMARK INTER:                 -10.442
REMARK INTRA:                  -0.641
REMARK UNBOUND:                -1.026
REMARK  Name = 
REMARK  6 active torsions:
REMARK  status: ('A' for Active; 'I' for Inactive)
REMARK    1  A    between atoms: C_2  and  C_4
REMARK    2  A    between atoms: C_7  and  O_8
REMARK    3  A    between atoms: O_8  and  C_9
REMARK    4  A    between atoms: C_9  and  C_10
REMARK    5  A    between atoms: C_10  and  C_11
REMARK    6  A    between atoms: C_15  and  C_16
REMARK                            x       y       z     vdW  Elec       q    Type
REMARK                         _______ _______ _______ _____ _____    ______ ____
ROOT
ATOM      1  C   UNL     1      43.707   2.874  11.059  0.00  0.00    +0.000 C 
ENDROOT
BRANCH   1   2
ATOM      2  C   UNL     1      44.599   3.482  10.007  0.00  0.00    +0.000 A 
ATOM      3  C   UNL     1      44.938   4.837  10.050  0.00  0.00    +0.000 A 
ATOM      4  C   UNL     1      45.803   5.367   9.095  0.00  0.00    +0.000 A 
ATOM      5  C   UNL     1      46.332   4.550   8.089  0.00  0.00    +0.000 A 
ATOM      6  C   UNL     1      46.005   3.183   8.003  0.00  0.00    +0.000 A 
ATOM      7  C   UNL     1      45.141   2.677   8.993  0.00  0.00    +0.000 A 
ATOM      8  F   UNL     1      44.792   1.379   8.981  0.00  0.00    +0.000 F 
BRANCH   6   9
ATOM      9  C   UNL     1      46.514   2.335   6.896  0.00  0.00    +0.000 A 
ATOM     10  C   UNL     1      46.935   1.010   7.110  0.00  0.00    +0.000 A 
ATOM     11  C   UNL     1      47.330   0.185   6.051  0.00  0.00    +0.000 A 
ATOM     12  C   UNL     1      47.338   0.676   4.750  0.00  0.00    +0.000 A 
ATOM     13  C   UNL     1      46.963   1.994   4.512  0.00  0.00    +0.000 A 
ATOM     14  C   UNL     1      46.554   2.810   5.571  0.00  0.00    +0.000 A 
ENDBRANCH   6   9
ENDBRANCH   1   2
BRANCH   1  15
ATOM     15  C   UNL     1      43.163   3.945  12.002  0.00  0.00    +0.000 C 
BRANCH  15  16
ATOM     16  O   UNL     1      43.804   3.827  13.277  0.00  0.00    +0.000 OA
BRANCH  16  20
ATOM     17  C   UNL     1      47.167   6.191  13.511  0.00  0.00    +0.000 A 
ATOM     18  C   UNL     1      45.953   6.757  13.117  0.00  0.00    +0.000 A 
ATOM     19  C   UNL     1      44.821   5.943  13.036  0.00  0.00    +0.000 A 
ATOM     20  C   UNL     1      44.949   4.598  13.350  0.00  0.00    +0.000 A 
ATOM     21  N   UNL     1      46.116   4.026  13.713  0.00  0.00    +0.000 NA
ATOM     22  C   UNL     1      47.201   4.832  13.778  0.00  0.00    +0.000 A 
BRANCH  17  24
ATOM     23  N   UNL     1      49.392   6.751  12.711  0.00  0.00    +0.000 N 
ATOM     24  C   UNL     1      48.421   6.962  13.650  0.00  0.00    +0.000 C 
ATOM     25  O   UNL     1      48.570   7.789  14.539  0.00  0.00    +0.000 OA
ATOM     26  H   UNL     1      50.187   7.379  12.747  0.00  0.00    +0.000 HD
ATOM     27  H   UNL     1      49.204   6.291  11.832  0.00  0.00    +0.000 HD
ENDBRANCH  17  24
ENDBRANCH  16  20
ENDBRANCH  15  16
ENDBRANCH   1  15
TORSDOF 6
ENDMDL
MODEL 7
REMARK VINA RESULT:    -7.217      3.395      7.013
REMARK INTER + INTRA:         -10.774
REMARK INTER:                 -10.005
REMARK INTRA:                  -0.770
REMARK UNBOUND:                -1.026
REMARK  Name = 
REMARK  6 active torsions:
REMARK  status: ('A' for Active; 'I' for Inactive)
REMARK    1  A    between atoms: C_2  and  C_4
REMARK    2  A    between atoms: C_7  and  O_8
REMARK    3  A    between atoms: O_8  and  C_9
REMARK    4  A    between atoms: C_9  and  C_10
REMARK    5  A    between atoms: C_10  and  C_11
REMARK    6  A    between atoms: C_15  and  C_16
REMARK                            x       y       z     vdW  Elec       q    Type
REMARK                         _______ _______ _______ _____ _____    ______ ____
ROOT
ATOM      1  C   UNL     1      44.675   6.673  11.431  0.00  0.00    +0.000 C 
ENDROOT
BRANCH   1   2
ATOM      2  C   UNL     1      44.504   5.232  11.022  0.00  0.00    +0.000 A 
ATOM      3  C   UNL     1      43.637   4.387  11.719  0.00  0.00    +0.000 A 
ATOM      4  C   UNL     1      43.457   3.073  11.294  0.00  0.00    +0.000 A 
ATOM      5  C   UNL     1      44.143   2.592  10.172  0.00  0.00    +0.000 A 
ATOM      6  C   UNL     1      45.035   3.408   9.449  0.00  0.00    +0.000 A 
ATOM      7  C   UNL     1      45.181   4.735   9.897  0.00  0.00    +0.000 A 
ATOM      8  F   UNL     1      46.007   5.575   9.251  0.00  0.00    +0.000 F 
BRANCH   6   9
ATOM      9  C   UNL     1      45.812   2.876   8.301  0.00  0.00    +0.000 A 
ATOM     10  C   UNL     1      46.287   1.552   8.277  0.00  0.00    +0.000 A 
ATOM     11  C   UNL     1      46.939   1.027   7.157  0.00  0.00    +0.000 A 
ATOM     12  C   UNL     1      47.158   1.824   6.039  0.00  0.00    +0.000 A 
ATOM     13  C   UNL     1      46.732   3.149   6.048  0.00  0.00    +0.000 A 
ATOM     14  C   UNL     1      46.067   3.665   7.164  0.00  0.00    +0.000 A 
ENDBRANCH   6   9
ENDBRANCH   1   2
BRANCH   1  15
ATOM     15  C   UNL     1      45.444   6.782  12.745  0.00  0.00    +0.000 C 
BRANCH  15  16
ATOM     16  O   UNL     1      46.577   5.907  12.708  0.00  0.00    +0.000 OA
BRANCH  16  20
ATOM     17  C   UNL     1      50.097   8.042  12.743  0.00  0.00    +0.000 A 
ATOM     18  C   UNL     1      49.327   8.002  11.579  0.00  0.00    +0.000 A 
ATOM     19  C   UNL     1      48.139   7.270  11.579  0.00  0.00    +0.000 A 
ATOM     20  C   UNL     1      47.769   6.606  12.739  0.00  0.00    +0.000 A 
ATOM     21  N   UNL     1      48.507   6.614  13.869  0.00  0.00    +0.000 NA
ATOM     22  C   UNL     1      49.659   7.324  13.844  0.00  0.00    +0.000 A 
BRANCH  17  24
ATOM     23  N   UNL     1      51.296  10.155  12.680  0.00  0.00    +0.000 N 
ATOM     24  C   UNL     1      51.360   8.802  12.862  0.00  0.00    +0.000 C 
ATOM     25  O   UNL     1      52.413   8.253  13.158  0.00  0.00    +0.000 OA
ATOM     26  H   UNL     1      52.141  10.672  12.893  0.00  0.00    +0.000 HD
ATOM     27  H   UNL     1      50.423  10.663  12.705  0.00  0.00    +0.000 HD
ENDBRANCH  17  24
ENDBRANCH  16  20
ENDBRANCH  15  16
ENDBRANCH   1  15
TORSDOF 6
ENDMDL
MODEL 8
REMARK VINA RESULT:    -6.854      1.808      2.495
REMARK INTER + INTRA:         -10.285
REMARK INTER:                  -9.656
REMARK INTRA:                  -0.628
REMARK UNBOUND:                -1.026
REMARK  Name = 
REMARK  6 active torsions:
REMARK  status: ('A' for Active; 'I' for Inactive)
REMARK    1  A    between atoms: C_2  and  C_4
REMARK    2  A    between atoms: C_7  and  O_8
REMARK    3  A    between atoms: O_8  and  C_9
REMARK    4  A    between atoms: C_9  and  C_10
REMARK    5  A    between atoms: C_10  and  C_11
REMARK    6  A    between atoms: C_15  and  C_16
REMARK                            x       y       z     vdW  Elec       q    Type
REMARK                         _______ _______ _______ _____ _____    ______ ____
ROOT
ATOM      1  C   UNL     1      45.739   5.286  11.069  0.00  0.00    +0.000 C 
ENDROOT
BRANCH   1   2
ATOM      2  C   UNL     1      45.772   6.710  11.561  0.00  0.00    +0.000 A 
ATOM      3  C   UNL     1      44.706   7.579  11.314  0.00  0.00    +0.000 A 
ATOM      4  C   UNL     1      44.735   8.876  11.819  0.00  0.00    +0.000 A 
ATOM      5  C   UNL     1      45.831   9.317  12.573  0.00  0.00    +0.000 A 
ATOM      6  C   UNL     1      46.931   8.477  12.833  0.00  0.00    +0.000 A 
ATOM      7  C   UNL     1      46.860   7.167  12.319  0.00  0.00    +0.000 A 
ATOM      8  F   UNL     1      47.868   6.305  12.537  0.00  0.00    +0.000 F 
BRANCH   6   9
ATOM      9  C   UNL     1      48.120   8.968  13.574  0.00  0.00    +0.000 A 
ATOM     10  C   UNL     1      49.253   9.471  12.908  0.00  0.00    +0.000 A 
ATOM     11  C   UNL     1      50.333  10.015  13.610  0.00  0.00    +0.000 A 
ATOM     12  C   UNL     1      50.319  10.046  14.999  0.00  0.00    +0.000 A 
ATOM     13  C   UNL     1      49.229   9.522  15.686  0.00  0.00    +0.000 A 
ATOM     14  C   UNL     1      48.144   8.992  14.981  0.00  0.00    +0.000 A 
ENDBRANCH   6   9
ENDBRANCH   1   2
BRANCH   1  15
ATOM     15  C   UNL     1      44.322   4.719  11.124  0.00  0.00    +0.000 C 
BRANCH  15  16
ATOM     16  O   UNL     1      43.843   4.501   9.792  0.00  0.00    +0.000 OA
BRANCH  16  20
ATOM     17  C   UNL     1      46.544   2.399   7.502  0.00  0.00    +0.000 A 
ATOM     18  C   UNL     1      45.816   1.736   8.492  0.00  0.00    +0.000 A 
ATOM     19  C   UNL     1      44.908   2.461   9.265  0.00  0.00    +0.000 A 
ATOM     20  C   UNL     1      44.765   3.819   9.020  0.00  0.00    +0.000 A 
ATOM     21  N   UNL     1      45.472   4.485   8.083  0.00  0.00    +0.000 NA
ATOM     22  C   UNL     1      46.352   3.763   7.350  0.00  0.00    +0.000 A 
BRANCH  17  24
ATOM     23  N   UNL     1      48.683   2.387   6.349  0.00  0.00    +0.000 N 
ATOM     24  C   UNL     1      47.516   1.727   6.613  0.00  0.00    +0.000 C 
ATOM     25  O   UNL     1      47.308   0.607   6.167  0.00  0.00    +0.000 OA
ATOM     26  H   UNL     1      49.387   1.860   5.848  0.00  0.00    +0.000 HD
ATOM     27  H   UNL     1      48.999   3.171   6.904  0.00  0.00    +0.000 HD
ENDBRANCH  17  24
ENDBRANCH  16  20
ENDBRANCH  15  16
ENDBRANCH   1  15
TORSDOF 6
ENDMDL
MODEL 9
REMARK VINA RESULT:    -6.673      5.700      7.846
REMARK INTER + INTRA:         -10.040
REMARK INTER:                  -9.412
REMARK INTRA:                  -0.628
REMARK UNBOUND:                -1.026
REMARK  Name = 
REMARK  6 active torsions:
REMARK  status: ('A' for Active; 'I' for Inactive)
REMARK    1  A    between atoms: C_2  and  C_4
REMARK    2  A    between atoms: C_7  and  O_8
REMARK    3  A    between atoms: O_8  and  C_9
REMARK    4  A    between atoms: C_9  and  C_10
REMARK    5  A    between atoms: C_10  and  C_11
REMARK    6  A    between atoms: C_15  and  C_16
REMARK                            x       y       z     vdW  Elec       q    Type
REMARK                         _______ _______ _______ _____ _____    ______ ____
ROOT
ATOM      1  C   UNL     1      47.639   3.326  16.926  0.00  0.00    +0.000 C 
ENDROOT
BRANCH   1   2
ATOM      2  C   UNL     1      48.932   3.684  17.613  0.00  0.00    +0.000 A 
ATOM      3  C   UNL     1      48.997   4.758  18.504  0.00  0.00    +0.000 A 
ATOM      4  C   UNL     1      50.190   5.042  19.165  0.00  0.00    +0.000 A 
ATOM      5  C   UNL     1      51.327   4.257  18.940  0.00  0.00    +0.000 A 
ATOM      6  C   UNL     1      51.307   3.172  18.041  0.00  0.00    +0.000 A 
ATOM      7  C   UNL     1      50.081   2.905  17.402  0.00  0.00    +0.000 A 
ATOM      8  F   UNL     1      49.983   1.880  16.539  0.00  0.00    +0.000 F 
BRANCH   6   9
ATOM      9  C   UNL     1      52.531   2.384  17.754  0.00  0.00    +0.000 A 
ATOM     10  C   UNL     1      53.782   2.999  17.564  0.00  0.00    +0.000 A 
ATOM     11  C   UNL     1      54.949   2.249  17.383  0.00  0.00    +0.000 A 
ATOM     12  C   UNL     1      54.889   0.860  17.361  0.00  0.00    +0.000 A 
ATOM     13  C   UNL     1      53.660   0.224  17.509  0.00  0.00    +0.000 A 
ATOM     14  C   UNL     1      52.499   0.977  17.705  0.00  0.00    +0.000 A 
ENDBRANCH   6   9
ENDBRANCH   1   2
BRANCH   1  15
ATOM     15  C   UNL     1      47.332   4.301  15.792  0.00  0.00    +0.000 C 
BRANCH  15  16
ATOM     16  O   UNL     1      47.544   3.651  14.534  0.00  0.00    +0.000 OA
BRANCH  16  20
ATOM     17  C   UNL     1      44.703   4.746  11.763  0.00  0.00    +0.000 A 
ATOM     18  C   UNL     1      45.397   5.734  12.465  0.00  0.00    +0.000 A 
ATOM     19  C   UNL     1      46.353   5.349  13.406  0.00  0.00    +0.000 A 
ATOM     20  C   UNL     1      46.577   3.995  13.609  0.00  0.00    +0.000 A 
ATOM     21  N   UNL     1      45.904   3.023  12.956  0.00  0.00    +0.000 NA
ATOM     22  C   UNL     1      44.976   3.420  12.053  0.00  0.00    +0.000 A 
BRANCH  17  24
ATOM     23  N   UNL     1      43.988   4.703   9.440  0.00  0.00    +0.000 N 
ATOM     24  C   UNL     1      43.685   5.040  10.730  0.00  0.00    +0.000 C 
ATOM     25  O   UNL     1      42.599   5.521  11.020  0.00  0.00    +0.000 OA
ATOM     26  H   UNL     1      43.233   4.790   8.771  0.00  0.00    +0.000 HD
ATOM     27  H   UNL     1      44.742   4.072   9.209  0.00  0.00    +0.000 HD
ENDBRANCH  17  24
ENDBRANCH  16  20
ENDBRANCH  15  16
ENDBRANCH   1  15
TORSDOF 6
ENDMDL
