MODEL 1
REMARK VINA RESULT:    -8.343      0.000      0.000
REMARK INTER + INTRA:         -13.260
REMARK INTER:                 -12.489
REMARK INTRA:                  -0.771
REMARK UNBOUND:                -0.771
REMARK  Name = 
REMARK  9 active torsions:
REMARK  status: ('A' for Active; 'I' for Inactive)
REMARK    1  A    between atoms: N_3  and  C_4
REMARK    2  A    between atoms: C_4  and  C_5
REMARK    3  A    between atoms: C_8  and  C_9
REMARK    4  A    between atoms: C_9  and  N_10
REMARK    5  A    between atoms: N_10  and  C_11
REMARK    6  A    between atoms: N_10  and  C_14
REMARK    7  A    between atoms: C_11  and  C_12
REMARK    8  A    between atoms: C_12  and  O_13
REMARK    9  A    between atoms: C_14  and  C_15
REMARK                            x       y       z     vdW  Elec       q    Type
REMARK                         _______ _______ _______ _____ _____    ______ ____
ROOT
ATOM      1  C   UNL     1      48.146   6.455  13.853  0.00  0.00    +0.000 A 
ATOM      2  C   UNL     1      47.173   5.467  14.070  0.00  0.00    +0.000 A 
ATOM      3  C   UNL     1      46.179   5.231  13.119  0.00  0.00    +0.000 A 
ATOM      4  C   UNL     1      46.134   5.984  11.939  0.00  0.00    +0.000 A 
ATOM      5  C   UNL     1      47.167   6.895  11.677  0.00  0.00    +0.000 A 
ATOM      6  C   UNL     1      48.166   7.126  12.626  0.00  0.00    +0.000 A 
ENDROOT
BRANCH   1   7
ATOM      7  C   UNL     1      49.079   6.855  14.959  0.00  0.00    +0.000 C 
BRANCH   7  10
ATOM      8  O   UNL     1      49.652   4.721  16.628  0.00  0.00    +0.000 OA
ATOM      9  C   UNL     1      48.927   5.633  17.008  0.00  0.00    +0.000 C 
ATOM     10  N   UNL     1      48.525   6.730  16.285  0.00  0.00    +0.000 N 
ATOM     11  N   UNL     1      48.531   5.686  18.354  0.00  0.00    +0.000 N 
ATOM     12  C   UNL     1      47.260   5.964  18.831  0.00  0.00    +0.000 A 
ATOM     13  C   UNL     1      47.265   5.802  20.200  0.00  0.00    +0.000 A 
ATOM     14  C   UNL     1      48.597   5.501  20.596  0.00  0.00    +0.000 A 
ATOM     15  C   UNL     1      49.228   5.285  21.828  0.00  0.00    +0.000 A 
ATOM     16  C   UNL     1      50.593   5.049  21.792  0.00  0.00    +0.000 A 
ATOM     17  N   UNL     1      51.337   4.996  20.669  0.00  0.00    +0.000 NA
ATOM     18  C   UNL     1      50.729   5.166  19.472  0.00  0.00    +0.000 A 
ATOM     19  C   UNL     1      49.361   5.422  19.432  0.00  0.00    +0.000 A 
ATOM     20  H   UNL     1      48.234   7.567  16.771  0.00  0.00    +0.000 HD
ENDBRANCH   7  10
ENDBRANCH   1   7
BRANCH   4  21
ATOM     21  C   UNL     1      44.965   5.845  10.983  0.00  0.00    +0.000 C 
BRANCH  21  22
ATOM     22  N   UNL     1      44.548   4.438  10.741  0.00  0.00    +0.000 NA
BRANCH  22  23
ATOM     23  C   UNL     1      43.323   4.111  11.514  0.00  0.00    +0.000 C 
BRANCH  23  24
ATOM     24  C   UNL     1      42.492   5.323  11.985  0.00  0.00    +0.000 C 
BRANCH  24  25
ATOM     25  O   UNL     1      42.541   5.442  13.406  0.00  0.00    +0.000 OA
ATOM     26  H   UNL     1      43.325   4.952  13.710  0.00  0.00    +0.000 HD
ENDBRANCH  24  25
ENDBRANCH  23  24
ENDBRANCH  22  23
BRANCH  22  27
ATOM     27  C   UNL     1      44.301   4.236   9.298  0.00  0.00    +0.000 C 
BRANCH  27  28
ATOM     28  C   UNL     1      45.323   3.373   8.592  0.00  0.00    +0.000 A 
ATOM     29  C   UNL     1      45.396   1.995   8.842  0.00  0.00    +0.000 A 
ATOM     30  C   UNL     1      46.279   1.192   8.120  0.00  0.00    +0.000 A 
ATOM     31  C   UNL     1      47.099   1.756   7.146  0.00  0.00    +0.000 A 
ATOM     32  C   UNL     1      47.054   3.128   6.905  0.00  0.00    +0.000 A 
ATOM     33  C   UNL     1      46.170   3.933   7.623  0.00  0.00    +0.000 A 
ENDBRANCH  27  28
ENDBRANCH  22  27
ENDBRANCH  21  22
ENDBRANCH   4  21
TORSDOF 9
ENDMDL
MODEL 2
REMARK VINA RESULT:    -8.088      2.244      2.915
REMARK INTER + INTRA:         -12.878
REMARK INTER:                 -11.811
REMARK INTRA:                  -1.067
REMARK UNBOUND:                -0.771
REMARK  Name = 
REMARK  9 active torsions:
REMARK  status: ('A' for Active; 'I' for Inactive)
REMARK    1  A    between atoms: N_3  and  C_4
REMARK    2  A    between atoms: C_4  and  C_5
REMARK    3  A    between atoms: C_8  and  C_9
REMARK    4  A    between atoms: C_9  and  N_10
REMARK    5  A    between atoms: N_10  and  C_11
REMARK    6  A    between atoms: N_10  and  C_14
REMARK    7  A    between atoms: C_11  and  C_12
REMARK    8  A    between atoms: C_12  and  O_13
REMARK    9  A    between atoms: C_14  and  C_15
REMARK                            x       y       z     vdW  Elec       q    Type
REMARK                         _______ _______ _______ _____ _____    ______ ____
ROOT
ATOM      1  C   UNL     1      47.773   8.327  12.918  0.00  0.00    +0.000 A 
ATOM      2  C   UNL     1      48.071   7.362  11.945  0.00  0.00    +0.000 A 
ATOM      3  C   UNL     1      47.049   6.624  11.345  0.00  0.00    +0.000 A 
ATOM      4  C   UNL     1      45.714   6.830  11.713  0.00  0.00    +0.000 A 
ATOM      5  C   UNL     1      45.411   7.867  12.606  0.00  0.00    +0.000 A 
ATOM      6  C   UNL     1      46.433   8.612  13.202  0.00  0.00    +0.000 A 
ENDROOT
BRANCH   1   7
ATOM      7  C   UNL     1      48.875   8.966  13.714  0.00  0.00    +0.000 C 
BRANCH   7  10
ATOM      8  O   UNL     1      48.295   8.191  16.308  0.00  0.00    +0.000 OA
ATOM      9  C   UNL     1      49.262   7.724  15.719  0.00  0.00    +0.000 C 
ATOM     10  N   UNL     1      49.694   8.038  14.454  0.00  0.00    +0.000 N 
ATOM     11  N   UNL     1      49.974   6.659  16.295  0.00  0.00    +0.000 N 
ATOM     12  C   UNL     1      51.351   6.525  16.361  0.00  0.00    +0.000 A 
ATOM     13  C   UNL     1      51.643   5.403  17.106  0.00  0.00    +0.000 A 
ATOM     14  C   UNL     1      50.414   4.772  17.439  0.00  0.00    +0.000 A 
ATOM     15  C   UNL     1      50.069   3.597  18.121  0.00  0.00    +0.000 A 
ATOM     16  C   UNL     1      48.717   3.303  18.203  0.00  0.00    +0.000 A 
ATOM     17  N   UNL     1      47.729   4.069  17.696  0.00  0.00    +0.000 NA
ATOM     18  C   UNL     1      48.052   5.224  17.069  0.00  0.00    +0.000 A 
ATOM     19  C   UNL     1      49.393   5.576  16.935  0.00  0.00    +0.000 A 
ATOM     20  H   UNL     1      50.261   7.375  13.942  0.00  0.00    +0.000 HD
ENDBRANCH   7  10
ENDBRANCH   1   7
BRANCH   4  21
ATOM     21  C   UNL     1      44.622   5.920  11.187  0.00  0.00    +0.000 C 
BRANCH  21  22
ATOM     22  N   UNL     1      45.099   4.564  10.803  0.00  0.00    +0.000 NA
BRANCH  22  23
ATOM     23  C   UNL     1      44.761   3.570  11.855  0.00  0.00    +0.000 C 
BRANCH  23  24
ATOM     24  C   UNL     1      43.274   3.167  11.934  0.00  0.00    +0.000 C 
BRANCH  24  25
ATOM     25  O   UNL     1      43.118   1.773  11.676  0.00  0.00    +0.000 OA
ATOM     26  H   UNL     1      42.834   1.681  10.750  0.00  0.00    +0.000 HD
ENDBRANCH  24  25
ENDBRANCH  23  24
ENDBRANCH  22  23
BRANCH  22  27
ATOM     27  C   UNL     1      44.483   4.168   9.519  0.00  0.00    +0.000 C 
BRANCH  27  28
ATOM     28  C   UNL     1      45.367   3.330   8.622  0.00  0.00    +0.000 A 
ATOM     29  C   UNL     1      46.189   3.932   7.659  0.00  0.00    +0.000 A 
ATOM     30  C   UNL     1      47.067   3.159   6.899  0.00  0.00    +0.000 A 
ATOM     31  C   UNL     1      47.130   1.781   7.090  0.00  0.00    +0.000 A 
ATOM     32  C   UNL     1      46.300   1.168   8.027  0.00  0.00    +0.000 A 
ATOM     33  C   UNL     1      45.423   1.938   8.790  0.00  0.00    +0.000 A 
ENDBRANCH  27  28
ENDBRANCH  22  27
ENDBRANCH  21  22
ENDBRANCH   4  21
TORSDOF 9
ENDMDL
MODEL 3
REMARK VINA RESULT:    -7.982      2.365      3.033
REMARK INTER + INTRA:         -12.719
REMARK INTER:                 -11.767
REMARK INTRA:                  -0.952
REMARK UNBOUND:                -0.771
REMARK  Name = 
REMARK  9 active torsions:
REMARK  status: ('A' for Active; 'I' for Inactive)
REMARK    1  A    between atoms: N_3  and  C_4
REMARK    2  A    between atoms: C_4  and  C_5
REMARK    3  A    between atoms: C_8  and  C_9
REMARK    4  A    between atoms: C_9  and  N_10
REMARK    5  A    between atoms: N_10  and  C_11
REMARK    6  A    between atoms: N_10  and  C_14
REMARK    7  A    between atoms: C_11  and  C_12
REMARK    8  A    between atoms: C_12  and  O_13
REMARK    9  A    between atoms: C_14  and  C_15
REMARK                            x       y       z     vdW  Elec       q    Type
REMARK                         _______ _______ _______ _____ _____    ______ ____
ROOT
ATOM      1  C   UNL     1      48.172   6.532  13.614  0.00  0.00    +0.000 A 
ATOM      2  C   UNL     1      47.190   5.578  13.923  0.00  0.00    +0.000 A 
ATOM      3  C   UNL     1      46.155   5.312  13.026  0.00  0.00    +0.000 A 
ATOM      4  C   UNL     1      46.076   6.001  11.809  0.00  0.00    +0.000 A 
ATOM      5  C   UNL     1      47.115   6.874  11.457  0.00  0.00    +0.000 A 
ATOM      6  C   UNL     1      48.156   7.135  12.352  0.00  0.00    +0.000 A 
ENDROOT
BRANCH   1   7
ATOM      7  C   UNL     1      49.157   6.971  14.659  0.00  0.00    +0.000 C 
BRANCH   7  10
ATOM      8  O   UNL     1      49.889   8.889  16.517  0.00  0.00    +0.000 OA
ATOM      9  C   UNL     1      49.064   8.029  16.800  0.00  0.00    +0.000 C 
ATOM     10  N   UNL     1      48.633   6.998  16.002  0.00  0.00    +0.000 N 
ATOM     11  N   UNL     1      48.354   8.123  18.008  0.00  0.00    +0.000 N 
ATOM     12  C   UNL     1      48.091   7.092  18.895  0.00  0.00    +0.000 A 
ATOM     13  C   UNL     1      47.474   7.623  20.008  0.00  0.00    +0.000 A 
ATOM     14  C   UNL     1      47.268   9.009  19.770  0.00  0.00    +0.000 A 
ATOM     15  C   UNL     1      46.659  10.047  20.487  0.00  0.00    +0.000 A 
ATOM     16  C   UNL     1      46.630  11.290  19.875  0.00  0.00    +0.000 A 
ATOM     17  N   UNL     1      47.156  11.565  18.664  0.00  0.00    +0.000 NA
ATOM     18  C   UNL     1      47.778  10.577  17.980  0.00  0.00    +0.000 A 
ATOM     19  C   UNL     1      47.833   9.298  18.528  0.00  0.00    +0.000 A 
ATOM     20  H   UNL     1      47.733   6.571  16.182  0.00  0.00    +0.000 HD
ENDBRANCH   7  10
ENDBRANCH   1   7
BRANCH   4  21
ATOM     21  C   UNL     1      44.867   5.835  10.909  0.00  0.00    +0.000 C 
BRANCH  21  22
ATOM     22  N   UNL     1      44.547   4.419  10.584  0.00  0.00    +0.000 NA
BRANCH  22  23
ATOM     23  C   UNL     1      43.290   3.996  11.255  0.00  0.00    +0.000 C 
BRANCH  23  24
ATOM     24  C   UNL     1      43.352   2.638  11.985  0.00  0.00    +0.000 C 
BRANCH  24  25
ATOM     25  O   UNL     1      44.658   2.412  12.513  0.00  0.00    +0.000 OA
ATOM     26  H   UNL     1      44.573   2.363  13.481  0.00  0.00    +0.000 HD
ENDBRANCH  24  25
ENDBRANCH  23  24
ENDBRANCH  22  23
BRANCH  22  27
ATOM     27  C   UNL     1      44.411   4.266   9.120  0.00  0.00    +0.000 C 
BRANCH  27  28
ATOM     28  C   UNL     1      45.430   3.349   8.480  0.00  0.00    +0.000 A 
ATOM     29  C   UNL     1      45.433   1.974   8.756  0.00  0.00    +0.000 A 
ATOM     30  C   UNL     1      46.316   1.123   8.092  0.00  0.00    +0.000 A 
ATOM     31  C   UNL     1      47.205   1.635   7.150  0.00  0.00    +0.000 A 
ATOM     32  C   UNL     1      47.229   3.003   6.885  0.00  0.00    +0.000 A 
ATOM     33  C   UNL     1      46.345   3.857   7.545  0.00  0.00    +0.000 A 
ENDBRANCH  27  28
ENDBRANCH  22  27
ENDBRANCH  21  22
ENDBRANCH   4  21
TORSDOF 9
ENDMDL
MODEL 4
REMARK VINA RESULT:    -7.679      1.595      2.077
REMARK INTER + INTRA:         -12.266
REMARK INTER:                 -11.770
REMARK INTRA:                  -0.496
REMARK UNBOUND:                -0.771
REMARK  Name = 
REMARK  9 active torsions:
REMARK  status: ('A' for Active; 'I' for Inactive)
REMARK    1  A    between atoms: N_3  and  C_4
REMARK    2  A    between atoms: C_4  and  C_5
REMARK    3  A    between atoms: C_8  and  C_9
REMARK    4  A    between atoms: C_9  and  N_10
REMARK    5  A    between atoms: N_10  and  C_11
REMARK    6  A    between atoms: N_10  and  C_14
REMARK    7  A    between atoms: C_11  and  C_12
REMARK    8  A    between atoms: C_12  and  O_13
REMARK    9  A    between atoms: C_14  and  C_15
REMARK                            x       y       z     vdW  Elec       q    Type
REMARK                         _______ _______ _______ _____ _____    ______ ____
ROOT
ATOM      1  C   UNL     1      47.495   6.776  13.261  0.00  0.00    +0.000 A 
ATOM      2  C   UNL     1      46.669   5.724  13.685  0.00  0.00    +0.000 A 
ATOM      3  C   UNL     1      45.785   5.115  12.793  0.00  0.00    +0.000 A 
ATOM      4  C   UNL     1      45.705   5.552  11.465  0.00  0.00    +0.000 A 
ATOM      5  C   UNL     1      46.604   6.530  11.018  0.00  0.00    +0.000 A 
ATOM      6  C   UNL     1      47.495   7.135  11.909  0.00  0.00    +0.000 A 
ENDROOT
BRANCH   1   7
ATOM      7  C   UNL     1      48.285   7.570  14.262  0.00  0.00    +0.000 C 
BRANCH   7  10
ATOM      8  O   UNL     1      48.633   8.376  16.888  0.00  0.00    +0.000 OA
ATOM      9  C   UNL     1      49.052   7.289  16.509  0.00  0.00    +0.000 C 
ATOM     10  N   UNL     1      48.987   6.773  15.238  0.00  0.00    +0.000 N 
ATOM     11  N   UNL     1      49.550   6.374  17.450  0.00  0.00    +0.000 N 
ATOM     12  C   UNL     1      50.700   5.610  17.333  0.00  0.00    +0.000 A 
ATOM     13  C   UNL     1      50.895   4.933  18.518  0.00  0.00    +0.000 A 
ATOM     14  C   UNL     1      49.788   5.215  19.365  0.00  0.00    +0.000 A 
ATOM     15  C   UNL     1      49.400   4.791  20.643  0.00  0.00    +0.000 A 
ATOM     16  C   UNL     1      48.195   5.282  21.119  0.00  0.00    +0.000 A 
ATOM     17  N   UNL     1      47.395   6.139  20.452  0.00  0.00    +0.000 NA
ATOM     18  C   UNL     1      47.780   6.582  19.233  0.00  0.00    +0.000 A 
ATOM     19  C   UNL     1      48.974   6.119  18.685  0.00  0.00    +0.000 A 
ATOM     20  H   UNL     1      49.036   5.771  15.104  0.00  0.00    +0.000 HD
ENDBRANCH   7  10
ENDBRANCH   1   7
BRANCH   4  21
ATOM     21  C   UNL     1      44.634   5.006  10.540  0.00  0.00    +0.000 C 
BRANCH  21  22
ATOM     22  N   UNL     1      45.001   3.722   9.885  0.00  0.00    +0.000 NA
BRANCH  22  23
ATOM     23  C   UNL     1      44.070   2.638  10.293  0.00  0.00    +0.000 C 
BRANCH  23  24
ATOM     24  C   UNL     1      43.200   2.942  11.531  0.00  0.00    +0.000 C 
BRANCH  24  25
ATOM     25  O   UNL     1      43.577   2.108  12.625  0.00  0.00    +0.000 OA
ATOM     26  H   UNL     1      42.956   2.288  13.352  0.00  0.00    +0.000 HD
ENDBRANCH  24  25
ENDBRANCH  23  24
ENDBRANCH  22  23
BRANCH  22  27
ATOM     27  C   UNL     1      44.967   3.888   8.417  0.00  0.00    +0.000 C 
BRANCH  27  28
ATOM     28  C   UNL     1      45.927   3.003   7.654  0.00  0.00    +0.000 A 
ATOM     29  C   UNL     1      46.241   1.717   8.117  0.00  0.00    +0.000 A 
ATOM     30  C   UNL     1      47.056   0.874   7.360  0.00  0.00    +0.000 A 
ATOM     31  C   UNL     1      47.567   1.308   6.139  0.00  0.00    +0.000 A 
ATOM     32  C   UNL     1      47.283   2.593   5.681  0.00  0.00    +0.000 A 
ATOM     33  C   UNL     1      46.466   3.437   6.433  0.00  0.00    +0.000 A 
ENDBRANCH  27  28
ENDBRANCH  22  27
ENDBRANCH  21  22
ENDBRANCH   4  21
TORSDOF 9
ENDMDL
MODEL 5
REMARK VINA RESULT:    -7.599      2.168      3.050
REMARK INTER + INTRA:         -12.146
REMARK INTER:                 -11.541
REMARK INTRA:                  -0.605
REMARK UNBOUND:                -0.771
REMARK  Name = 
REMARK  9 active torsions:
REMARK  status: ('A' for Active; 'I' for Inactive)
REMARK    1  A    between atoms: N_3  and  C_4
REMARK    2  A    between atoms: C_4  and  C_5
REMARK    3  A    between atoms: C_8  and  C_9
REMARK    4  A    between atoms: C_9  and  N_10
REMARK    5  A    between atoms: N_10  and  C_11
REMARK    6  A    between atoms: N_10  and  C_14
REMARK    7  A    between atoms: C_11  and  C_12
REMARK    8  A    between atoms: C_12  and  O_13
REMARK    9  A    between atoms: C_14  and  C_15
REMARK                            x       y       z     vdW  Elec       q    Type
REMARK                         _______ _______ _______ _____ _____    ______ ____
ROOT
ATOM      1  C   UNL     1      48.277   6.743  14.587  0.00  0.00    +0.000 A 
ATOM      2  C   UNL     1      47.561   5.541  14.470  0.00  0.00    +0.000 A 
ATOM      3  C   UNL     1      46.889   5.230  13.288  0.00  0.00    +0.000 A 
ATOM      4  C   UNL     1      46.912   6.118  12.204  0.00  0.00    +0.000 A 
ATOM      5  C   UNL     1      47.714   7.265  12.286  0.00  0.00    +0.000 A 
ATOM      6  C   UNL     1      48.393   7.573  13.467  0.00  0.00    +0.000 A 
ENDROOT
BRANCH   1   7
ATOM      7  C   UNL     1      48.818   7.176  15.919  0.00  0.00    +0.000 C 
BRANCH   7  10
ATOM      8  O   UNL     1      49.034   5.258  17.904  0.00  0.00    +0.000 OA
ATOM      9  C   UNL     1      50.018   5.606  17.264  0.00  0.00    +0.000 C 
ATOM     10  N   UNL     1      50.073   6.567  16.283  0.00  0.00    +0.000 N 
ATOM     11  N   UNL     1      51.225   4.903  17.413  0.00  0.00    +0.000 N 
ATOM     12  C   UNL     1      52.491   5.451  17.540  0.00  0.00    +0.000 A 
ATOM     13  C   UNL     1      53.384   4.429  17.782  0.00  0.00    +0.000 A 
ATOM     14  C   UNL     1      52.668   3.203  17.716  0.00  0.00    +0.000 A 
ATOM     15  C   UNL     1      53.026   1.852  17.822  0.00  0.00    +0.000 A 
ATOM     16  C   UNL     1      52.008   0.927  17.655  0.00  0.00    +0.000 A 
ATOM     17  N   UNL     1      50.716   1.235  17.421  0.00  0.00    +0.000 NA
ATOM     18  C   UNL     1      50.355   2.538  17.355  0.00  0.00    +0.000 A 
ATOM     19  C   UNL     1      51.329   3.523  17.498  0.00  0.00    +0.000 A 
ATOM     20  H   UNL     1      50.816   6.536  15.597  0.00  0.00    +0.000 HD
ENDBRANCH   7  10
ENDBRANCH   1   7
BRANCH   4  21
ATOM     21  C   UNL     1      46.052   5.861  10.982  0.00  0.00    +0.000 C 
BRANCH  21  22
ATOM     22  N   UNL     1      44.845   5.036  11.257  0.00  0.00    +0.000 NA
BRANCH  22  23
ATOM     23  C   UNL     1      43.892   5.770  12.129  0.00  0.00    +0.000 C 
BRANCH  23  24
ATOM     24  C   UNL     1      42.931   4.887  12.952  0.00  0.00    +0.000 C 
BRANCH  24  25
ATOM     25  O   UNL     1      43.588   3.697  13.383  0.00  0.00    +0.000 OA
ATOM     26  H   UNL     1      44.449   3.960  13.753  0.00  0.00    +0.000 HD
ENDBRANCH  24  25
ENDBRANCH  23  24
ENDBRANCH  22  23
BRANCH  22  27
ATOM     27  C   UNL     1      44.188   4.680   9.981  0.00  0.00    +0.000 C 
BRANCH  27  28
ATOM     28  C   UNL     1      45.003   3.786   9.074  0.00  0.00    +0.000 A 
ATOM     29  C   UNL     1      45.779   4.328   8.039  0.00  0.00    +0.000 A 
ATOM     30  C   UNL     1      46.598   3.505   7.266  0.00  0.00    +0.000 A 
ATOM     31  C   UNL     1      46.647   2.135   7.514  0.00  0.00    +0.000 A 
ATOM     32  C   UNL     1      45.861   1.581   8.524  0.00  0.00    +0.000 A 
ATOM     33  C   UNL     1      45.044   2.402   9.301  0.00  0.00    +0.000 A 
ENDBRANCH  27  28
ENDBRANCH  22  27
ENDBRANCH  21  22
ENDBRANCH   4  21
TORSDOF 9
ENDMDL
MODEL 6
REMARK VINA RESULT:    -7.054      2.215      2.937
REMARK INTER + INTRA:         -11.330
REMARK INTER:                 -11.056
REMARK INTRA:                  -0.275
REMARK UNBOUND:                -0.771
REMARK  Name = 
REMARK  9 active torsions:
REMARK  status: ('A' for Active; 'I' for Inactive)
REMARK    1  A    between atoms: N_3  and  C_4
REMARK    2  A    between atoms: C_4  and  C_5
REMARK    3  A    between atoms: C_8  and  C_9
REMARK    4  A    between atoms: C_9  and  N_10
REMARK    5  A    between atoms: N_10  and  C_11
REMARK    6  A    between atoms: N_10  and  C_14
REMARK    7  A    between atoms: C_11  and  C_12
REMARK    8  A    between atoms: C_12  and  O_13
REMARK    9  A    between atoms: C_14  and  C_15
REMARK                            x       y       z     vdW  Elec       q    Type
REMARK                         _______ _______ _______ _____ _____    ______ ____
ROOT
ATOM      1  C   UNL     1      47.362   7.005  13.462  0.00  0.00    +0.000 A 
ATOM      2  C   UNL     1      46.771   5.767  13.759  0.00  0.00    +0.000 A 
ATOM      3  C   UNL     1      45.973   5.121  12.814  0.00  0.00    +0.000 A 
ATOM      4  C   UNL     1      45.744   5.703  11.561  0.00  0.00    +0.000 A 
ATOM      5  C   UNL     1      46.420   6.886  11.230  0.00  0.00    +0.000 A 
ATOM      6  C   UNL     1      47.226   7.530  12.173  0.00  0.00    +0.000 A 
ENDROOT
BRANCH   1   7
ATOM      7  C   UNL     1      48.039   7.799  14.543  0.00  0.00    +0.000 C 
BRANCH   7  10
ATOM      8  O   UNL     1      49.152   7.482  17.058  0.00  0.00    +0.000 OA
ATOM      9  C   UNL     1      49.828   7.312  16.052  0.00  0.00    +0.000 C 
ATOM     10  N   UNL     1      49.428   7.469  14.747  0.00  0.00    +0.000 N 
ATOM     11  N   UNL     1      51.122   6.780  16.170  0.00  0.00    +0.000 N 
ATOM     12  C   UNL     1      52.260   7.219  15.514  0.00  0.00    +0.000 A 
ATOM     13  C   UNL     1      53.340   6.510  15.994  0.00  0.00    +0.000 A 
ATOM     14  C   UNL     1      52.849   5.540  16.911  0.00  0.00    +0.000 A 
ATOM     15  C   UNL     1      53.439   4.518  17.665  0.00  0.00    +0.000 A 
ATOM     16  C   UNL     1      52.584   3.742  18.432  0.00  0.00    +0.000 A 
ATOM     17  N   UNL     1      51.249   3.915  18.513  0.00  0.00    +0.000 NA
ATOM     18  C   UNL     1      50.676   4.924  17.817  0.00  0.00    +0.000 A 
ATOM     19  C   UNL     1      51.472   5.735  17.012  0.00  0.00    +0.000 A 
ATOM     20  H   UNL     1      49.926   6.985  14.011  0.00  0.00    +0.000 HD
ENDBRANCH   7  10
ENDBRANCH   1   7
BRANCH   4  21
ATOM     21  C   UNL     1      44.749   5.087  10.597  0.00  0.00    +0.000 C 
BRANCH  21  22
ATOM     22  N   UNL     1      45.240   3.849   9.933  0.00  0.00    +0.000 NA
BRANCH  22  23
ATOM     23  C   UNL     1      44.419   2.676  10.333  0.00  0.00    +0.000 C 
BRANCH  23  24
ATOM     24  C   UNL     1      43.361   2.947  11.423  0.00  0.00    +0.000 C 
BRANCH  24  25
ATOM     25  O   UNL     1      43.716   2.291  12.640  0.00  0.00    +0.000 OA
ATOM     26  H   UNL     1      42.986   2.434  13.268  0.00  0.00    +0.000 HD
ENDBRANCH  24  25
ENDBRANCH  23  24
ENDBRANCH  22  23
BRANCH  22  27
ATOM     27  C   UNL     1      45.190   4.021   8.466  0.00  0.00    +0.000 C 
BRANCH  27  28
ATOM     28  C   UNL     1      46.053   3.056   7.683  0.00  0.00    +0.000 A 
ATOM     29  C   UNL     1      46.288   1.757   8.155  0.00  0.00    +0.000 A 
ATOM     30  C   UNL     1      47.008   0.845   7.383  0.00  0.00    +0.000 A 
ATOM     31  C   UNL     1      47.503   1.222   6.137  0.00  0.00    +0.000 A 
ATOM     32  C   UNL     1      47.297   2.519   5.668  0.00  0.00    +0.000 A 
ATOM     33  C   UNL     1      46.575   3.432   6.436  0.00  0.00    +0.000 A 
ENDBRANCH  27  28
ENDBRANCH  22  27
ENDBRANCH  21  22
ENDBRANCH   4  21
TORSDOF 9
ENDMDL
MODEL 7
REMARK VINA RESULT:    -6.911      2.876     10.612
REMARK INTER + INTRA:         -11.117
REMARK INTER:                  -9.733
REMARK INTRA:                  -1.384
REMARK UNBOUND:                -0.771
REMARK  Name = 
REMARK  9 active torsions:
REMARK  status: ('A' for Active; 'I' for Inactive)
REMARK    1  A    between atoms: N_3  and  C_4
REMARK    2  A    between atoms: C_4  and  C_5
REMARK    3  A    between atoms: C_8  and  C_9
REMARK    4  A    between atoms: C_9  and  N_10
REMARK    5  A    between atoms: N_10  and  C_11
REMARK    6  A    between atoms: N_10  and  C_14
REMARK    7  A    between atoms: C_11  and  C_12
REMARK    8  A    between atoms: C_12  and  O_13
REMARK    9  A    between atoms: C_14  and  C_15
REMARK                            x       y       z     vdW  Elec       q    Type
REMARK                         _______ _______ _______ _____ _____    ______ ____
ROOT
ATOM      1  C   UNL     1      48.630   3.784  17.329  0.00  0.00    +0.000 A 
ATOM      2  C   UNL     1      49.254   2.533  17.208  0.00  0.00    +0.000 A 
ATOM      3  C   UNL     1      50.623   2.401  17.445  0.00  0.00    +0.000 A 
ATOM      4  C   UNL     1      51.393   3.516  17.798  0.00  0.00    +0.000 A 
ATOM      5  C   UNL     1      50.749   4.741  18.021  0.00  0.00    +0.000 A 
ATOM      6  C   UNL     1      49.377   4.872  17.791  0.00  0.00    +0.000 A 
ENDROOT
BRANCH   1   7
ATOM      7  C   UNL     1      47.212   3.970  16.870  0.00  0.00    +0.000 C 
BRANCH   7  10
ATOM      8  O   UNL     1      47.347   2.990  14.284  0.00  0.00    +0.000 OA
ATOM      9  C   UNL     1      47.123   4.176  14.490  0.00  0.00    +0.000 C 
ATOM     10  N   UNL     1      47.065   4.811  15.707  0.00  0.00    +0.000 N 
ATOM     11  N   UNL     1      46.755   5.007  13.419  0.00  0.00    +0.000 N 
ATOM     12  C   UNL     1      47.228   6.283  13.162  0.00  0.00    +0.000 A 
ATOM     13  C   UNL     1      46.709   6.705  11.957  0.00  0.00    +0.000 A 
ATOM     14  C   UNL     1      45.818   5.698  11.493  0.00  0.00    +0.000 A 
ATOM     15  C   UNL     1      44.972   5.574  10.383  0.00  0.00    +0.000 A 
ATOM     16  C   UNL     1      44.214   4.417  10.308  0.00  0.00    +0.000 A 
ATOM     17  N   UNL     1      44.249   3.413  11.207  0.00  0.00    +0.000 NA
ATOM     18  C   UNL     1      45.090   3.508  12.263  0.00  0.00    +0.000 A 
ATOM     19  C   UNL     1      45.873   4.650  12.410  0.00  0.00    +0.000 A 
ATOM     20  H   UNL     1      46.547   5.675  15.794  0.00  0.00    +0.000 HD
ENDBRANCH   7  10
ENDBRANCH   1   7
BRANCH   4  21
ATOM     21  C   UNL     1      52.903   3.408  17.895  0.00  0.00    +0.000 C 
BRANCH  21  22
ATOM     22  N   UNL     1      53.376   2.539  19.006  0.00  0.00    +0.000 NA
BRANCH  22  23
ATOM     23  C   UNL     1      54.288   1.483  18.496  0.00  0.00    +0.000 C 
BRANCH  23  24
ATOM     24  C   UNL     1      53.626   0.124  18.192  0.00  0.00    +0.000 C 
BRANCH  24  25
ATOM     25  O   UNL     1      53.193   0.070  16.834  0.00  0.00    +0.000 OA
ATOM     26  H   UNL     1      52.473   0.717  16.735  0.00  0.00    +0.000 HD
ENDBRANCH  24  25
ENDBRANCH  23  24
ENDBRANCH  22  23
BRANCH  22  27
ATOM     27  C   UNL     1      54.073   3.363  20.016  0.00  0.00    +0.000 C 
BRANCH  27  28
ATOM     28  C   UNL     1      53.294   4.564  20.505  0.00  0.00    +0.000 A 
ATOM     29  C   UNL     1      52.214   4.410  21.386  0.00  0.00    +0.000 A 
ATOM     30  C   UNL     1      51.560   5.528  21.903  0.00  0.00    +0.000 A 
ATOM     31  C   UNL     1      51.974   6.808  21.543  0.00  0.00    +0.000 A 
ATOM     32  C   UNL     1      53.031   6.974  20.649  0.00  0.00    +0.000 A 
ATOM     33  C   UNL     1      53.688   5.858  20.132  0.00  0.00    +0.000 A 
ENDBRANCH  27  28
ENDBRANCH  22  27
ENDBRANCH  21  22
ENDBRANCH   4  21
TORSDOF 9
ENDMDL
MODEL 8
REMARK VINA RESULT:    -6.812      2.165      9.188
REMARK INTER + INTRA:         -10.968
REMARK INTER:                  -8.992
REMARK INTRA:                  -1.976
REMARK UNBOUND:                -0.771
REMARK  Name = 
REMARK  9 active torsions:
REMARK  status: ('A' for Active; 'I' for Inactive)
REMARK    1  A    between atoms: N_3  and  C_4
REMARK    2  A    between atoms: C_4  and  C_5
REMARK    3  A    between atoms: C_8  and  C_9
REMARK    4  A    between atoms: C_9  and  N_10
REMARK    5  A    between atoms: N_10  and  C_11
REMARK    6  A    between atoms: N_10  and  C_14
REMARK    7  A    between atoms: C_11  and  C_12
REMARK    8  A    between atoms: C_12  and  O_13
REMARK    9  A    between atoms: C_14  and  C_15
REMARK                            x       y       z     vdW  Elec       q    Type
REMARK                         _______ _______ _______ _____ _____    ______ ____
ROOT
ATOM      1  C   UNL     1      48.671   7.905  14.974  0.00  0.00    +0.000 A 
ATOM      2  C   UNL     1      48.300   8.560  16.158  0.00  0.00    +0.000 A 
ATOM      3  C   UNL     1      49.037   8.377  17.329  0.00  0.00    +0.000 A 
ATOM      4  C   UNL     1      50.152   7.529  17.340  0.00  0.00    +0.000 A 
ATOM      5  C   UNL     1      50.582   6.960  16.132  0.00  0.00    +0.000 A 
ATOM      6  C   UNL     1      49.848   7.150  14.958  0.00  0.00    +0.000 A 
ENDROOT
BRANCH   1   7
ATOM      7  C   UNL     1      47.763   7.931  13.778  0.00  0.00    +0.000 C 
BRANCH   7  10
ATOM      8  O   UNL     1      45.720   7.725  11.920  0.00  0.00    +0.000 OA
ATOM      9  C   UNL     1      46.061   6.753  12.582  0.00  0.00    +0.000 C 
ATOM     10  N   UNL     1      47.024   6.711  13.561  0.00  0.00    +0.000 N 
ATOM     11  N   UNL     1      45.537   5.487  12.272  0.00  0.00    +0.000 N 
ATOM     12  C   UNL     1      45.071   4.542  13.171  0.00  0.00    +0.000 A 
ATOM     13  C   UNL     1      44.536   3.491  12.458  0.00  0.00    +0.000 A 
ATOM     14  C   UNL     1      44.755   3.748  11.077  0.00  0.00    +0.000 A 
ATOM     15  C   UNL     1      44.491   3.042   9.896  0.00  0.00    +0.000 A 
ATOM     16  C   UNL     1      44.906   3.636   8.714  0.00  0.00    +0.000 A 
ATOM     17  N   UNL     1      45.518   4.834   8.627  0.00  0.00    +0.000 NA
ATOM     18  C   UNL     1      45.744   5.539   9.760  0.00  0.00    +0.000 A 
ATOM     19  C   UNL     1      45.366   4.997  10.987  0.00  0.00    +0.000 A 
ATOM     20  H   UNL     1      47.463   5.829  13.791  0.00  0.00    +0.000 HD
ENDBRANCH   7  10
ENDBRANCH   1   7
BRANCH   4  21
ATOM     21  C   UNL     1      50.854   7.199  18.642  0.00  0.00    +0.000 C 
BRANCH  21  22
ATOM     22  N   UNL     1      50.949   5.742  18.925  0.00  0.00    +0.000 NA
BRANCH  22  23
ATOM     23  C   UNL     1      51.886   5.482  20.049  0.00  0.00    +0.000 C 
BRANCH  23  24
ATOM     24  C   UNL     1      52.759   4.219  19.906  0.00  0.00    +0.000 C 
BRANCH  24  25
ATOM     25  O   UNL     1      52.955   3.897  18.530  0.00  0.00    +0.000 OA
ATOM     26  H   UNL     1      52.171   4.210  18.046  0.00  0.00    +0.000 HD
ENDBRANCH  24  25
ENDBRANCH  23  24
ENDBRANCH  22  23
BRANCH  22  27
ATOM     27  C   UNL     1      49.608   5.214  19.255  0.00  0.00    +0.000 C 
BRANCH  27  28
ATOM     28  C   UNL     1      48.969   4.375  18.171  0.00  0.00    +0.000 A 
ATOM     29  C   UNL     1      47.839   4.835  17.479  0.00  0.00    +0.000 A 
ATOM     30  C   UNL     1      47.312   4.098  16.419  0.00  0.00    +0.000 A 
ATOM     31  C   UNL     1      47.903   2.894  16.043  0.00  0.00    +0.000 A 
ATOM     32  C   UNL     1      49.011   2.414  16.739  0.00  0.00    +0.000 A 
ATOM     33  C   UNL     1      49.543   3.151  17.797  0.00  0.00    +0.000 A 
ENDBRANCH  27  28
ENDBRANCH  22  27
ENDBRANCH  21  22
ENDBRANCH   4  21
TORSDOF 9
ENDMDL
MODEL 9
REMARK VINA RESULT:    -6.795      2.566      9.674
REMARK INTER + INTRA:         -10.943
REMARK INTER:                  -8.641
REMARK INTRA:                  -2.302
REMARK UNBOUND:                -0.771
REMARK  Name = 
REMARK  9 active torsions:
REMARK  status: ('A' for Active; 'I' for Inactive)
REMARK    1  A    between atoms: N_3  and  C_4
REMARK    2  A    between atoms: C_4  and  C_5
REMARK    3  A    between atoms: C_8  and  C_9
REMARK    4  A    between atoms: C_9  and  N_10
REMARK    5  A    between atoms: N_10  and  C_11
REMARK    6  A    between atoms: N_10  and  C_14
REMARK    7  A    between atoms: C_11  and  C_12
REMARK    8  A    between atoms: C_12  and  O_13
REMARK    9  A    between atoms: C_14  and  C_15
REMARK                            x       y       z     vdW  Elec       q    Type
REMARK                         _______ _______ _______ _____ _____    ______ ____
ROOT
ATOM      1  C   UNL     1      48.415   3.819  17.785  0.00  0.00    +0.000 A 
ATOM      2  C   UNL     1      49.580   3.277  17.222  0.00  0.00    +0.000 A 
ATOM      3  C   UNL     1      50.827   3.528  17.798  0.00  0.00    +0.000 A 
ATOM      4  C   UNL     1      50.932   4.332  18.940  0.00  0.00    +0.000 A 
ATOM      5  C   UNL     1      49.758   4.784  19.560  0.00  0.00    +0.000 A 
ATOM      6  C   UNL     1      48.510   4.527  18.988  0.00  0.00    +0.000 A 
ENDROOT
BRANCH   1   7
ATOM      7  C   UNL     1      47.107   3.729  17.052  0.00  0.00    +0.000 C 
BRANCH   7  10
ATOM      8  O   UNL     1      47.402   2.933  14.417  0.00  0.00    +0.000 OA
ATOM      9  C   UNL     1      47.120   4.093  14.689  0.00  0.00    +0.000 C 
ATOM     10  N   UNL     1      46.980   4.641  15.942  0.00  0.00    +0.000 N 
ATOM     11  N   UNL     1      46.769   4.980  13.659  0.00  0.00    +0.000 N 
ATOM     12  C   UNL     1      47.200   6.288  13.510  0.00  0.00    +0.000 A 
ATOM     13  C   UNL     1      46.721   6.771  12.312  0.00  0.00    +0.000 A 
ATOM     14  C   UNL     1      45.895   5.765  11.739  0.00  0.00    +0.000 A 
ATOM     15  C   UNL     1      45.107   5.685  10.583  0.00  0.00    +0.000 A 
ATOM     16  C   UNL     1      44.401   4.507  10.395  0.00  0.00    +0.000 A 
ATOM     17  N   UNL     1      44.436   3.446  11.226  0.00  0.00    +0.000 NA
ATOM     18  C   UNL     1      45.222   3.501  12.326  0.00  0.00    +0.000 A 
ATOM     19  C   UNL     1      45.950   4.660  12.587  0.00  0.00    +0.000 A 
ATOM     20  H   UNL     1      46.423   5.477  16.060  0.00  0.00    +0.000 HD
ENDBRANCH   7  10
ENDBRANCH   1   7
BRANCH   4  21
ATOM     21  C   UNL     1      52.292   4.741  19.469  0.00  0.00    +0.000 C 
BRANCH  21  22
ATOM     22  N   UNL     1      52.443   6.206  19.679  0.00  0.00    +0.000 NA
BRANCH  22  23
ATOM     23  C   UNL     1      53.567   6.493  20.608  0.00  0.00    +0.000 C 
BRANCH  23  24
ATOM     24  C   UNL     1      53.205   7.340  21.846  0.00  0.00    +0.000 C 
BRANCH  24  25
ATOM     25  O   UNL     1      51.935   7.967  21.670  0.00  0.00    +0.000 OA
ATOM     26  H   UNL     1      51.323   7.560  22.308  0.00  0.00    +0.000 HD
ENDBRANCH  24  25
ENDBRANCH  23  24
ENDBRANCH  22  23
BRANCH  22  27
ATOM     27  C   UNL     1      52.682   6.870  18.381  0.00  0.00    +0.000 C 
BRANCH  27  28
ATOM     28  C   UNL     1      51.431   7.233  17.612  0.00  0.00    +0.000 A 
ATOM     29  C   UNL     1      51.234   6.773  16.302  0.00  0.00    +0.000 A 
ATOM     30  C   UNL     1      50.038   7.036  15.634  0.00  0.00    +0.000 A 
ATOM     31  C   UNL     1      49.030   7.763  16.264  0.00  0.00    +0.000 A 
ATOM     32  C   UNL     1      49.224   8.247  17.557  0.00  0.00    +0.000 A 
ATOM     33  C   UNL     1      50.418   7.983  18.229  0.00  0.00    +0.000 A 
ENDBRANCH  27  28
ENDBRANCH  22  27
ENDBRANCH  21  22
ENDBRANCH   4  21
TORSDOF 9
ENDMDL
