MODEL 1
REMARK VINA RESULT:    -7.870      0.000      0.000
REMARK INTER + INTRA:         -11.393
REMARK INTER:                 -10.631
REMARK INTRA:                  -0.762
REMARK UNBOUND:                -0.762
REMARK  Name = 
REMARK  7 active torsions:
REMARK  status: ('A' for Active; 'I' for Inactive)
REMARK    1  A    between atoms: C_1  and  C_2
REMARK    2  A    between atoms: C_2  and  C_3
REMARK    3  A    between atoms: C_3  and  N_4
REMARK    4  A    between atoms: C_3  and  C_17
REMARK    5  A    between atoms: C_5  and  C_7
REMARK    6  A    between atoms: C_20  and  C_21
REMARK    7  A    between atoms: C_21  and  N_22
REMARK                            x       y       z     vdW  Elec       q    Type
REMARK                         _______ _______ _______ _____ _____    ______ ____
ROOT
ATOM      1  C   UNL     1      46.494   7.119  12.720  0.00  0.00    +0.000 C 
ENDROOT
BRANCH   1   2
ATOM      2  C   UNL     1      45.962   5.908  11.953  0.00  0.00    +0.000 A 
ATOM      3  C   UNL     1      45.853   5.984  10.560  0.00  0.00    +0.000 A 
ATOM      4  C   UNL     1      45.393   4.895   9.818  0.00  0.00    +0.000 A 
ATOM      5  C   UNL     1      45.071   3.678  10.441  0.00  0.00    +0.000 A 
ATOM      6  C   UNL     1      45.122   3.609  11.833  0.00  0.00    +0.000 A 
ATOM      7  C   UNL     1      45.538   4.718  12.579  0.00  0.00    +0.000 A 
BRANCH   5   8
ATOM      8  C   UNL     1      44.743   2.459   9.595  0.00  0.00    +0.000 C 
BRANCH   8   9
ATOM      9  N   UNL     1      45.645   2.404   8.461  0.00  0.00    +0.000 NA
ATOM     10  C   UNL     1      46.170   1.087   8.085  0.00  0.00    +0.000 C 
ATOM     11  C   UNL     1      47.462   1.331   7.290  0.00  0.00    +0.000 C 
ATOM     12  O   UNL     1      47.212   2.132   6.120  0.00  0.00    +0.000 OA
ATOM     13  C   UNL     1      46.590   3.379   6.480  0.00  0.00    +0.000 C 
ATOM     14  C   UNL     1      45.282   3.153   7.262  0.00  0.00    +0.000 C 
ENDBRANCH   8   9
ENDBRANCH   5   8
ENDBRANCH   1   2
BRANCH   1  15
ATOM     15  N   UNL     1      46.982   6.695  14.027  0.00  0.00    +0.000 N 
ATOM     16  C   UNL     1      48.288   6.535  14.392  0.00  0.00    +0.000 C 
ATOM     17  O   UNL     1      49.227   6.556  13.603  0.00  0.00    +0.000 OA
ATOM     18  H   UNL     1      46.319   6.815  14.772  0.00  0.00    +0.000 HD
BRANCH  16  19
ATOM     19  C   UNL     1      48.475   6.262  15.831  0.00  0.00    +0.000 A 
ATOM     20  C   UNL     1      48.971   7.225  16.696  0.00  0.00    +0.000 A 
ATOM     21  S   UNL     1      49.204   6.646  18.289  0.00  0.00    +0.000 S 
ATOM     22  C   UNL     1      48.624   5.109  17.881  0.00  0.00    +0.000 A 
ATOM     23  N   UNL     1      48.600   4.084  18.785  0.00  0.00    +0.000 NA
ATOM     24  C   UNL     1      48.136   2.966  18.327  0.00  0.00    +0.000 A 
ATOM     25  N   UNL     1      47.665   2.781  17.055  0.00  0.00    +0.000 N 
ATOM     26  C   UNL     1      47.650   3.778  16.114  0.00  0.00    +0.000 A 
ATOM     27  O   UNL     1      47.232   3.567  14.983  0.00  0.00    +0.000 OA
ATOM     28  C   UNL     1      48.218   5.038  16.559  0.00  0.00    +0.000 A 
ATOM     29  H   UNL     1      47.312   1.883  16.753  0.00  0.00    +0.000 HD
ENDBRANCH  16  19
ENDBRANCH   1  15
BRANCH   1  31
ATOM     30  C   UNL     1      45.751   9.524  12.180  0.00  0.00    +0.000 C 
ATOM     31  C   UNL     1      45.413   8.209  12.875  0.00  0.00    +0.000 C 
ENDBRANCH   1  31
TORSDOF 6
ENDMDL
MODEL 2
REMARK VINA RESULT:    -7.223      1.817      2.368
REMARK INTER + INTRA:         -10.519
REMARK INTER:                  -9.666
REMARK INTRA:                  -0.853
REMARK UNBOUND:                -0.762
REMARK  Name = 
REMARK  7 active torsions:
REMARK  status: ('A' for Active; 'I' for Inactive)
REMARK    1  A    between atoms: C_1  and  C_2
REMARK    2  A    between atoms: C_2  and  C_3
REMARK    3  A    between atoms: C_3  and  N_4
REMARK    4  A    between atoms: C_3  and  C_17
REMARK    5  A    between atoms: C_5  and  C_7
REMARK    6  A    between atoms: C_20  and  C_21
REMARK    7  A    between atoms: C_21  and  N_22
REMARK                            x       y       z     vdW  Elec       q    Type
REMARK                         _______ _______ _______ _____ _____    ______ ____
ROOT
ATOM      1  C   UNL     1      48.462   6.777  13.826  0.00  0.00    +0.000 C 
ENDROOT
BRANCH   1   2
ATOM      2  C   UNL     1      47.332   6.026  13.121  0.00  0.00    +0.000 A 
ATOM      3  C   UNL     1      46.770   6.579  11.965  0.00  0.00    +0.000 A 
ATOM      4  C   UNL     1      45.751   5.917  11.278  0.00  0.00    +0.000 A 
ATOM      5  C   UNL     1      45.294   4.658  11.698  0.00  0.00    +0.000 A 
ATOM      6  C   UNL     1      45.806   4.123  12.880  0.00  0.00    +0.000 A 
ATOM      7  C   UNL     1      46.795   4.811  13.594  0.00  0.00    +0.000 A 
BRANCH   5   8
ATOM      8  C   UNL     1      44.313   3.882  10.834  0.00  0.00    +0.000 C 
BRANCH   8   9
ATOM      9  N   UNL     1      44.999   3.383   9.657  0.00  0.00    +0.000 NA
ATOM     10  C   UNL     1      44.757   1.986   9.285  0.00  0.00    +0.000 C 
ATOM     11  C   UNL     1      45.949   1.542   8.421  0.00  0.00    +0.000 C 
ATOM     12  O   UNL     1      46.079   2.366   7.248  0.00  0.00    +0.000 OA
ATOM     13  C   UNL     1      46.201   3.754   7.612  0.00  0.00    +0.000 C 
ATOM     14  C   UNL     1      45.004   4.221   8.463  0.00  0.00    +0.000 C 
ENDBRANCH   8   9
ENDBRANCH   5   8
ENDBRANCH   1   2
BRANCH   1  15
ATOM     15  N   UNL     1      48.219   6.789  15.264  0.00  0.00    +0.000 N 
ATOM     16  C   UNL     1      49.145   6.573  16.245  0.00  0.00    +0.000 C 
ATOM     17  O   UNL     1      50.280   6.159  16.035  0.00  0.00    +0.000 OA
ATOM     18  H   UNL     1      47.382   7.274  15.536  0.00  0.00    +0.000 HD
BRANCH  16  19
ATOM     19  C   UNL     1      48.636   6.818  17.608  0.00  0.00    +0.000 A 
ATOM     20  C   UNL     1      48.192   8.070  18.005  0.00  0.00    +0.000 A 
ATOM     21  S   UNL     1      47.754   8.138  19.658  0.00  0.00    +0.000 S 
ATOM     22  C   UNL     1      48.112   6.499  19.884  0.00  0.00    +0.000 A 
ATOM     23  N   UNL     1      48.010   5.902  21.109  0.00  0.00    +0.000 NA
ATOM     24  C   UNL     1      48.323   4.646  21.129  0.00  0.00    +0.000 A 
ATOM     25  N   UNL     1      48.703   3.921  20.032  0.00  0.00    +0.000 N 
ATOM     26  C   UNL     1      48.806   4.466  18.778  0.00  0.00    +0.000 A 
ATOM     27  O   UNL     1      49.162   3.784  17.825  0.00  0.00    +0.000 OA
ATOM     28  C   UNL     1      48.524   5.888  18.712  0.00  0.00    +0.000 A 
ATOM     29  H   UNL     1      48.935   2.940  20.108  0.00  0.00    +0.000 HD
ENDBRANCH  16  19
ENDBRANCH   1  15
BRANCH   1  31
ATOM     30  C   UNL     1      49.906   8.478  12.541  0.00  0.00    +0.000 C 
ATOM     31  C   UNL     1      48.603   8.217  13.291  0.00  0.00    +0.000 C 
ENDBRANCH   1  31
TORSDOF 6
ENDMDL
MODEL 3
REMARK VINA RESULT:    -7.209      3.580      9.356
REMARK INTER + INTRA:         -10.499
REMARK INTER:                  -9.151
REMARK INTRA:                  -1.348
REMARK UNBOUND:                -0.762
REMARK  Name = 
REMARK  7 active torsions:
REMARK  status: ('A' for Active; 'I' for Inactive)
REMARK    1  A    between atoms: C_1  and  C_2
REMARK    2  A    between atoms: C_2  and  C_3
REMARK    3  A    between atoms: C_3  and  N_4
REMARK    4  A    between atoms: C_3  and  C_17
REMARK    5  A    between atoms: C_5  and  C_7
REMARK    6  A    between atoms: C_20  and  C_21
REMARK    7  A    between atoms: C_21  and  N_22
REMARK                            x       y       z     vdW  Elec       q    Type
REMARK                         _______ _______ _______ _____ _____    ______ ____
ROOT
ATOM      1  C   UNL     1      48.117   4.666  16.176  0.00  0.00    +0.000 C 
ENDROOT
BRANCH   1   2
ATOM      2  C   UNL     1      48.037   5.606  17.379  0.00  0.00    +0.000 A 
ATOM      3  C   UNL     1      48.756   6.806  17.348  0.00  0.00    +0.000 A 
ATOM      4  C   UNL     1      48.696   7.703  18.416  0.00  0.00    +0.000 A 
ATOM      5  C   UNL     1      47.876   7.452  19.528  0.00  0.00    +0.000 A 
ATOM      6  C   UNL     1      47.199   6.235  19.595  0.00  0.00    +0.000 A 
ATOM      7  C   UNL     1      47.299   5.314  18.544  0.00  0.00    +0.000 A 
BRANCH   5   8
ATOM      8  C   UNL     1      47.692   8.524  20.590  0.00  0.00    +0.000 C 
BRANCH   8   9
ATOM      9  N   UNL     1      47.951   9.827  20.008  0.00  0.00    +0.000 NA
ATOM     10  C   UNL     1      46.788  10.659  19.686  0.00  0.00    +0.000 C 
ATOM     11  C   UNL     1      47.243  11.670  18.621  0.00  0.00    +0.000 C 
ATOM     12  O   UNL     1      48.331  12.480  19.102  0.00  0.00    +0.000 OA
ATOM     13  C   UNL     1      49.432  11.655  19.526  0.00  0.00    +0.000 C 
ATOM     14  C   UNL     1      48.997  10.648  20.609  0.00  0.00    +0.000 C 
ENDBRANCH   8   9
ENDBRANCH   5   8
ENDBRANCH   1   2
BRANCH   1  15
ATOM     15  N   UNL     1      47.161   5.090  15.158  0.00  0.00    +0.000 N 
ATOM     16  C   UNL     1      47.455   5.717  13.981  0.00  0.00    +0.000 C 
ATOM     17  O   UNL     1      48.561   6.170  13.704  0.00  0.00    +0.000 OA
ATOM     18  H   UNL     1      46.272   4.625  15.210  0.00  0.00    +0.000 HD
BRANCH  16  19
ATOM     19  C   UNL     1      46.295   5.867  13.082  0.00  0.00    +0.000 A 
ATOM     20  C   UNL     1      45.890   7.108  12.616  0.00  0.00    +0.000 A 
ATOM     21  S   UNL     1      44.459   7.045  11.680  0.00  0.00    +0.000 S 
ATOM     22  C   UNL     1      44.354   5.363  11.842  0.00  0.00    +0.000 A 
ATOM     23  N   UNL     1      43.312   4.653  11.317  0.00  0.00    +0.000 NA
ATOM     24  C   UNL     1      43.364   3.377  11.526  0.00  0.00    +0.000 A 
ATOM     25  N   UNL     1      44.377   2.737  12.188  0.00  0.00    +0.000 N 
ATOM     26  C   UNL     1      45.454   3.399  12.720  0.00  0.00    +0.000 A 
ATOM     27  O   UNL     1      46.333   2.789  13.316  0.00  0.00    +0.000 OA
ATOM     28  C   UNL     1      45.413   4.842  12.565  0.00  0.00    +0.000 A 
ATOM     29  H   UNL     1      44.364   1.735  12.321  0.00  0.00    +0.000 HD
ENDBRANCH  16  19
ENDBRANCH   1  15
BRANCH   1  31
ATOM     30  C   UNL     1      49.117   2.417  16.930  0.00  0.00    +0.000 C 
ATOM     31  C   UNL     1      47.855   3.202  16.584  0.00  0.00    +0.000 C 
ENDBRANCH   1  31
TORSDOF 6
ENDMDL
MODEL 4
REMARK VINA RESULT:    -7.175      3.400      7.657
REMARK INTER + INTRA:         -10.454
REMARK INTER:                  -9.564
REMARK INTRA:                  -0.890
REMARK UNBOUND:                -0.762
REMARK  Name = 
REMARK  7 active torsions:
REMARK  status: ('A' for Active; 'I' for Inactive)
REMARK    1  A    between atoms: C_1  and  C_2
REMARK    2  A    between atoms: C_2  and  C_3
REMARK    3  A    between atoms: C_3  and  N_4
REMARK    4  A    between atoms: C_3  and  C_17
REMARK    5  A    between atoms: C_5  and  C_7
REMARK    6  A    between atoms: C_20  and  C_21
REMARK    7  A    between atoms: C_21  and  N_22
REMARK                            x       y       z     vdW  Elec       q    Type
REMARK                         _______ _______ _______ _____ _____    ______ ____
ROOT
ATOM      1  C   UNL     1      48.434   7.720  12.659  0.00  0.00    +0.000 C 
ENDROOT
BRANCH   1   2
ATOM      2  C   UNL     1      48.951   7.226  14.011  0.00  0.00    +0.000 A 
ATOM      3  C   UNL     1      48.133   6.396  14.786  0.00  0.00    +0.000 A 
ATOM      4  C   UNL     1      48.572   5.905  16.016  0.00  0.00    +0.000 A 
ATOM      5  C   UNL     1      49.863   6.189  16.490  0.00  0.00    +0.000 A 
ATOM      6  C   UNL     1      50.667   7.059  15.754  0.00  0.00    +0.000 A 
ATOM      7  C   UNL     1      50.205   7.590  14.542  0.00  0.00    +0.000 A 
BRANCH   5   8
ATOM      8  C   UNL     1      50.378   5.499  17.743  0.00  0.00    +0.000 C 
BRANCH   8   9
ATOM      9  N   UNL     1      50.512   4.077  17.488  0.00  0.00    +0.000 NA
ATOM     10  C   UNL     1      51.631   3.384  18.136  0.00  0.00    +0.000 C 
ATOM     11  C   UNL     1      51.901   2.111  17.318  0.00  0.00    +0.000 C 
ATOM     12  O   UNL     1      50.736   1.265  17.270  0.00  0.00    +0.000 OA
ATOM     13  C   UNL     1      49.607   1.983  16.740  0.00  0.00    +0.000 C 
ATOM     14  C   UNL     1      49.310   3.254  17.560  0.00  0.00    +0.000 C 
ENDBRANCH   8   9
ENDBRANCH   5   8
ENDBRANCH   1   2
BRANCH   1  15
ATOM     15  N   UNL     1      47.562   6.710  12.070  0.00  0.00    +0.000 N 
ATOM     16  C   UNL     1      46.288   6.902  11.619  0.00  0.00    +0.000 C 
ATOM     17  O   UNL     1      45.639   7.924  11.818  0.00  0.00    +0.000 OA
ATOM     18  H   UNL     1      48.047   5.905  11.715  0.00  0.00    +0.000 HD
BRANCH  16  19
ATOM     19  C   UNL     1      45.722   5.733  10.918  0.00  0.00    +0.000 A 
ATOM     20  C   UNL     1      45.859   5.569   9.549  0.00  0.00    +0.000 A 
ATOM     21  S   UNL     1      45.027   4.200   8.946  0.00  0.00    +0.000 S 
ATOM     22  C   UNL     1      44.487   3.771  10.492  0.00  0.00    +0.000 A 
ATOM     23  N   UNL     1      43.662   2.701  10.696  0.00  0.00    +0.000 NA
ATOM     24  C   UNL     1      43.327   2.500  11.930  0.00  0.00    +0.000 A 
ATOM     25  N   UNL     1      43.763   3.253  12.987  0.00  0.00    +0.000 N 
ATOM     26  C   UNL     1      44.604   4.326  12.841  0.00  0.00    +0.000 A 
ATOM     27  O   UNL     1      44.960   4.981  13.813  0.00  0.00    +0.000 OA
ATOM     28  C   UNL     1      44.962   4.631  11.468  0.00  0.00    +0.000 A 
ATOM     29  H   UNL     1      43.468   3.048  13.932  0.00  0.00    +0.000 HD
ENDBRANCH  16  19
ENDBRANCH   1  15
BRANCH   1  31
ATOM     30  C   UNL     1      49.719   9.543  11.374  0.00  0.00    +0.000 C 
ATOM     31  C   UNL     1      49.594   8.058  11.700  0.00  0.00    +0.000 C 
ENDBRANCH   1  31
TORSDOF 6
ENDMDL
MODEL 5
REMARK VINA RESULT:    -7.146      3.164      5.061
REMARK INTER + INTRA:         -10.413
REMARK INTER:                 -10.276
REMARK INTRA:                  -0.137
REMARK UNBOUND:                -0.762
REMARK  Name = 
REMARK  7 active torsions:
REMARK  status: ('A' for Active; 'I' for Inactive)
REMARK    1  A    between atoms: C_1  and  C_2
REMARK    2  A    between atoms: C_2  and  C_3
REMARK    3  A    between atoms: C_3  and  N_4
REMARK    4  A    between atoms: C_3  and  C_17
REMARK    5  A    between atoms: C_5  and  C_7
REMARK    6  A    between atoms: C_20  and  C_21
REMARK    7  A    between atoms: C_21  and  N_22
REMARK                            x       y       z     vdW  Elec       q    Type
REMARK                         _______ _______ _______ _____ _____    ______ ____
ROOT
ATOM      1  C   UNL     1      44.009   4.037  10.064  0.00  0.00    +0.000 C 
ENDROOT
BRANCH   1   2
ATOM      2  C   UNL     1      44.992   3.424   9.066  0.00  0.00    +0.000 A 
ATOM      3  C   UNL     1      45.655   4.265   8.166  0.00  0.00    +0.000 A 
ATOM      4  C   UNL     1      46.576   3.751   7.252  0.00  0.00    +0.000 A 
ATOM      5  C   UNL     1      46.899   2.384   7.240  0.00  0.00    +0.000 A 
ATOM      6  C   UNL     1      46.204   1.528   8.094  0.00  0.00    +0.000 A 
ATOM      7  C   UNL     1      45.245   2.040   8.978  0.00  0.00    +0.000 A 
BRANCH   5   8
ATOM      8  C   UNL     1      48.031   1.881   6.359  0.00  0.00    +0.000 C 
BRANCH   8   9
ATOM      9  N   UNL     1      47.481   1.088   5.277  0.00  0.00    +0.000 NA
ATOM     10  C   UNL     1      47.063  -0.281   5.597  0.00  0.00    +0.000 C 
ATOM     11  C   UNL     1      47.060  -1.068   4.277  0.00  0.00    +0.000 C 
ATOM     12  O   UNL     1      46.165  -0.473   3.318  0.00  0.00    +0.000 OA
ATOM     13  C   UNL     1      46.507   0.907   3.090  0.00  0.00    +0.000 C 
ATOM     14  C   UNL     1      46.496   1.715   4.402  0.00  0.00    +0.000 C 
ENDBRANCH   8   9
ENDBRANCH   5   8
ENDBRANCH   1   2
BRANCH   1  15
ATOM     15  N   UNL     1      44.527   5.317  10.537  0.00  0.00    +0.000 N 
ATOM     16  C   UNL     1      43.841   6.253  11.257  0.00  0.00    +0.000 C 
ATOM     17  O   UNL     1      42.630   6.216  11.448  0.00  0.00    +0.000 OA
ATOM     18  H   UNL     1      45.529   5.364  10.579  0.00  0.00    +0.000 HD
BRANCH  16  19
ATOM     19  C   UNL     1      44.681   7.367  11.736  0.00  0.00    +0.000 A 
ATOM     20  C   UNL     1      44.494   8.665  11.285  0.00  0.00    +0.000 A 
ATOM     21  S   UNL     1      45.655   9.765  11.895  0.00  0.00    +0.000 S 
ATOM     22  C   UNL     1      46.418   8.554  12.799  0.00  0.00    +0.000 A 
ATOM     23  N   UNL     1      47.544   8.804  13.532  0.00  0.00    +0.000 NA
ATOM     24  C   UNL     1      48.018   7.779  14.165  0.00  0.00    +0.000 A 
ATOM     25  N   UNL     1      47.457   6.531  14.158  0.00  0.00    +0.000 N 
ATOM     26  C   UNL     1      46.320   6.230  13.453  0.00  0.00    +0.000 A 
ATOM     27  O   UNL     1      45.857   5.096  13.463  0.00  0.00    +0.000 OA
ATOM     28  C   UNL     1      45.781   7.331  12.676  0.00  0.00    +0.000 A 
ATOM     29  H   UNL     1      47.872   5.767  14.673  0.00  0.00    +0.000 HD
ENDBRANCH  16  19
ENDBRANCH   1  15
BRANCH   1  31
ATOM     30  C   UNL     1      44.953   2.875  12.158  0.00  0.00    +0.000 C 
ATOM     31  C   UNL     1      43.745   3.090  11.252  0.00  0.00    +0.000 C 
ENDBRANCH   1  31
TORSDOF 6
ENDMDL
MODEL 6
REMARK VINA RESULT:    -6.764      3.435      8.571
REMARK INTER + INTRA:          -9.898
REMARK INTER:                  -8.744
REMARK INTRA:                  -1.154
REMARK UNBOUND:                -0.762
REMARK  Name = 
REMARK  7 active torsions:
REMARK  status: ('A' for Active; 'I' for Inactive)
REMARK    1  A    between atoms: C_1  and  C_2
REMARK    2  A    between atoms: C_2  and  C_3
REMARK    3  A    between atoms: C_3  and  N_4
REMARK    4  A    between atoms: C_3  and  C_17
REMARK    5  A    between atoms: C_5  and  C_7
REMARK    6  A    between atoms: C_20  and  C_21
REMARK    7  A    between atoms: C_21  and  N_22
REMARK                            x       y       z     vdW  Elec       q    Type
REMARK                         _______ _______ _______ _____ _____    ______ ____
ROOT
ATOM      1  C   UNL     1      48.496   7.631  12.635  0.00  0.00    +0.000 C 
ENDROOT
BRANCH   1   2
ATOM      2  C   UNL     1      48.924   7.149  14.022  0.00  0.00    +0.000 A 
ATOM      3  C   UNL     1      48.088   6.272  14.721  0.00  0.00    +0.000 A 
ATOM      4  C   UNL     1      48.449   5.790  15.980  0.00  0.00    +0.000 A 
ATOM      5  C   UNL     1      49.681   6.133  16.561  0.00  0.00    +0.000 A 
ATOM      6  C   UNL     1      50.497   7.051  15.899  0.00  0.00    +0.000 A 
ATOM      7  C   UNL     1      50.111   7.570  14.657  0.00  0.00    +0.000 A 
BRANCH   5   8
ATOM      8  C   UNL     1      50.126   5.457  17.847  0.00  0.00    +0.000 C 
BRANCH   8   9
ATOM      9  N   UNL     1      49.405   6.032  18.967  0.00  0.00    +0.000 NA
ATOM     10  C   UNL     1      48.541   5.133  19.739  0.00  0.00    +0.000 C 
ATOM     11  C   UNL     1      47.505   6.015  20.454  0.00  0.00    +0.000 C 
ATOM     12  O   UNL     1      48.143   6.974  21.317  0.00  0.00    +0.000 OA
ATOM     13  C   UNL     1      49.078   7.781  20.578  0.00  0.00    +0.000 C 
ATOM     14  C   UNL     1      50.137   6.914  19.870  0.00  0.00    +0.000 C 
ENDBRANCH   8   9
ENDBRANCH   5   8
ENDBRANCH   1   2
BRANCH   1  15
ATOM     15  N   UNL     1      47.619   6.640  12.022  0.00  0.00    +0.000 N 
ATOM     16  C   UNL     1      46.326   6.833  11.630  0.00  0.00    +0.000 C 
ATOM     17  O   UNL     1      45.667   7.829  11.911  0.00  0.00    +0.000 OA
ATOM     18  H   UNL     1      48.104   5.866  11.604  0.00  0.00    +0.000 HD
BRANCH  16  19
ATOM     19  C   UNL     1      45.753   5.695  10.886  0.00  0.00    +0.000 A 
ATOM     20  C   UNL     1      45.882   5.587   9.510  0.00  0.00    +0.000 A 
ATOM     21  S   UNL     1      45.044   4.245   8.856  0.00  0.00    +0.000 S 
ATOM     22  C   UNL     1      44.512   3.755  10.386  0.00  0.00    +0.000 A 
ATOM     23  N   UNL     1      43.685   2.679  10.550  0.00  0.00    +0.000 NA
ATOM     24  C   UNL     1      43.357   2.428  11.777  0.00  0.00    +0.000 A 
ATOM     25  N   UNL     1      43.800   3.135  12.862  0.00  0.00    +0.000 N 
ATOM     26  C   UNL     1      44.643   4.212  12.755  0.00  0.00    +0.000 A 
ATOM     27  O   UNL     1      45.006   4.825  13.751  0.00  0.00    +0.000 OA
ATOM     28  C   UNL     1      44.994   4.573  11.394  0.00  0.00    +0.000 A 
ATOM     29  H   UNL     1      43.511   2.892  13.799  0.00  0.00    +0.000 HD
ENDBRANCH  16  19
ENDBRANCH   1  15
BRANCH   1  31
ATOM     30  C   UNL     1      49.923   9.382  11.400  0.00  0.00    +0.000 C 
ATOM     31  C   UNL     1      49.715   7.907  11.731  0.00  0.00    +0.000 C 
ENDBRANCH   1  31
TORSDOF 6
ENDMDL
MODEL 7
REMARK VINA RESULT:    -6.710      3.560      5.467
REMARK INTER + INTRA:          -9.825
REMARK INTER:                  -8.535
REMARK INTRA:                  -1.290
REMARK UNBOUND:                -0.762
REMARK  Name = 
REMARK  7 active torsions:
REMARK  status: ('A' for Active; 'I' for Inactive)
REMARK    1  A    between atoms: C_1  and  C_2
REMARK    2  A    between atoms: C_2  and  C_3
REMARK    3  A    between atoms: C_3  and  N_4
REMARK    4  A    between atoms: C_3  and  C_17
REMARK    5  A    between atoms: C_5  and  C_7
REMARK    6  A    between atoms: C_20  and  C_21
REMARK    7  A    between atoms: C_21  and  N_22
REMARK                            x       y       z     vdW  Elec       q    Type
REMARK                         _______ _______ _______ _____ _____    ______ ____
ROOT
ATOM      1  C   UNL     1      49.326   6.346  17.398  0.00  0.00    +0.000 C 
ENDROOT
BRANCH   1   2
ATOM      2  C   UNL     1      48.470   5.737  16.287  0.00  0.00    +0.000 A 
ATOM      3  C   UNL     1      48.426   6.374  15.042  0.00  0.00    +0.000 A 
ATOM      4  C   UNL     1      47.675   5.842  13.993  0.00  0.00    +0.000 A 
ATOM      5  C   UNL     1      46.982   4.629  14.141  0.00  0.00    +0.000 A 
ATOM      6  C   UNL     1      46.973   4.015  15.393  0.00  0.00    +0.000 A 
ATOM      7  C   UNL     1      47.689   4.577  16.458  0.00  0.00    +0.000 A 
BRANCH   5   8
ATOM      8  C   UNL     1      46.320   3.983  12.934  0.00  0.00    +0.000 C 
BRANCH   8   9
ATOM      9  N   UNL     1      45.175   4.778  12.532  0.00  0.00    +0.000 NA
ATOM     10  C   UNL     1      45.317   5.590  11.319  0.00  0.00    +0.000 C 
ATOM     11  C   UNL     1      44.270   6.711  11.407  0.00  0.00    +0.000 C 
ATOM     12  O   UNL     1      42.938   6.174  11.507  0.00  0.00    +0.000 OA
ATOM     13  C   UNL     1      42.831   5.285  12.634  0.00  0.00    +0.000 C 
ATOM     14  C   UNL     1      43.861   4.143  12.552  0.00  0.00    +0.000 C 
ENDBRANCH   8   9
ENDBRANCH   5   8
ENDBRANCH   1   2
BRANCH   1  15
ATOM     15  N   UNL     1      50.374   5.406  17.780  0.00  0.00    +0.000 N 
ATOM     16  C   UNL     1      51.665   5.406  17.334  0.00  0.00    +0.000 C 
ATOM     17  O   UNL     1      52.068   6.099  16.406  0.00  0.00    +0.000 OA
ATOM     18  H   UNL     1      50.197   4.920  18.641  0.00  0.00    +0.000 HD
BRANCH  16  19
ATOM     19  C   UNL     1      52.534   4.437  18.029  0.00  0.00    +0.000 A 
ATOM     20  C   UNL     1      53.603   4.849  18.811  0.00  0.00    +0.000 A 
ATOM     21  S   UNL     1      54.531   3.548  19.424  0.00  0.00    +0.000 S 
ATOM     22  C   UNL     1      53.521   2.403  18.694  0.00  0.00    +0.000 A 
ATOM     23  N   UNL     1      53.777   1.063  18.773  0.00  0.00    +0.000 NA
ATOM     24  C   UNL     1      52.921   0.309  18.161  0.00  0.00    +0.000 A 
ATOM     25  N   UNL     1      51.814   0.767  17.498  0.00  0.00    +0.000 N 
ATOM     26  C   UNL     1      51.502   2.099  17.402  0.00  0.00    +0.000 A 
ATOM     27  O   UNL     1      50.508   2.468  16.789  0.00  0.00    +0.000 OA
ATOM     28  C   UNL     1      52.464   2.992  18.022  0.00  0.00    +0.000 A 
ATOM     29  H   UNL     1      51.179   0.130  17.038  0.00  0.00    +0.000 HD
ENDBRANCH  16  19
ENDBRANCH   1  15
BRANCH   1  31
ATOM     30  C   UNL     1      47.893   8.139  18.565  0.00  0.00    +0.000 C 
ATOM     31  C   UNL     1      48.472   6.729  18.624  0.00  0.00    +0.000 C 
ENDBRANCH   1  31
TORSDOF 6
ENDMDL
MODEL 8
REMARK VINA RESULT:    -6.666      3.049      8.716
REMARK INTER + INTRA:          -9.765
REMARK INTER:                  -8.644
REMARK INTRA:                  -1.122
REMARK UNBOUND:                -0.762
REMARK  Name = 
REMARK  7 active torsions:
REMARK  status: ('A' for Active; 'I' for Inactive)
REMARK    1  A    between atoms: C_1  and  C_2
REMARK    2  A    between atoms: C_2  and  C_3
REMARK    3  A    between atoms: C_3  and  N_4
REMARK    4  A    between atoms: C_3  and  C_17
REMARK    5  A    between atoms: C_5  and  C_7
REMARK    6  A    between atoms: C_20  and  C_21
REMARK    7  A    between atoms: C_21  and  N_22
REMARK                            x       y       z     vdW  Elec       q    Type
REMARK                         _______ _______ _______ _____ _____    ______ ____
ROOT
ATOM      1  C   UNL     1      47.598   7.773  12.582  0.00  0.00    +0.000 C 
ENDROOT
BRANCH   1   2
ATOM      2  C   UNL     1      48.081   7.824  14.032  0.00  0.00    +0.000 A 
ATOM      3  C   UNL     1      48.664   6.681  14.591  0.00  0.00    +0.000 A 
ATOM      4  C   UNL     1      49.137   6.689  15.904  0.00  0.00    +0.000 A 
ATOM      5  C   UNL     1      49.088   7.856  16.685  0.00  0.00    +0.000 A 
ATOM      6  C   UNL     1      48.460   8.984  16.158  0.00  0.00    +0.000 A 
ATOM      7  C   UNL     1      47.941   8.959  14.857  0.00  0.00    +0.000 A 
BRANCH   5   8
ATOM      8  C   UNL     1      49.770   7.887  18.043  0.00  0.00    +0.000 C 
BRANCH   8   9
ATOM      9  N   UNL     1      49.174   6.882  18.903  0.00  0.00    +0.000 NA
ATOM     10  C   UNL     1      50.085   5.949  19.573  0.00  0.00    +0.000 C 
ATOM     11  C   UNL     1      49.261   4.704  19.936  0.00  0.00    +0.000 C 
ATOM     12  O   UNL     1      48.155   5.042  20.795  0.00  0.00    +0.000 OA
ATOM     13  C   UNL     1      47.323   6.045  20.183  0.00  0.00    +0.000 C 
ATOM     14  C   UNL     1      48.130   7.309  19.830  0.00  0.00    +0.000 C 
ENDBRANCH   8   9
ENDBRANCH   5   8
ENDBRANCH   1   2
BRANCH   1  15
ATOM     15  N   UNL     1      46.670   6.660  12.415  0.00  0.00    +0.000 N 
ATOM     16  C   UNL     1      45.494   6.681  11.721  0.00  0.00    +0.000 C 
ATOM     17  O   UNL     1      44.971   7.704  11.293  0.00  0.00    +0.000 OA
ATOM     18  H   UNL     1      47.079   5.756  12.577  0.00  0.00    +0.000 HD
BRANCH  16  19
ATOM     19  C   UNL     1      44.859   5.356  11.586  0.00  0.00    +0.000 A 
ATOM     20  C   UNL     1      44.101   4.804  12.607  0.00  0.00    +0.000 A 
ATOM     21  S   UNL     1      43.560   3.217  12.265  0.00  0.00    +0.000 S 
ATOM     22  C   UNL     1      44.292   3.231  10.739  0.00  0.00    +0.000 A 
ATOM     23  N   UNL     1      44.264   2.139   9.917  0.00  0.00    +0.000 NA
ATOM     24  C   UNL     1      44.870   2.296   8.785  0.00  0.00    +0.000 A 
ATOM     25  N   UNL     1      45.481   3.453   8.382  0.00  0.00    +0.000 N 
ATOM     26  C   UNL     1      45.524   4.582   9.160  0.00  0.00    +0.000 A 
ATOM     27  O   UNL     1      46.093   5.593   8.767  0.00  0.00    +0.000 OA
ATOM     28  C   UNL     1      44.910   4.439  10.467  0.00  0.00    +0.000 A 
ATOM     29  H   UNL     1      45.940   3.518   7.483  0.00  0.00    +0.000 HD
ENDBRANCH  16  19
ENDBRANCH   1  15
BRANCH   1  31
ATOM     30  C   UNL     1      49.679   8.875  11.543  0.00  0.00    +0.000 C 
ATOM     31  C   UNL     1      48.777   7.646  11.597  0.00  0.00    +0.000 C 
ENDBRANCH   1  31
TORSDOF 6
ENDMDL
MODEL 9
REMARK VINA RESULT:    -6.651      2.917      4.121
REMARK INTER + INTRA:          -9.746
REMARK INTER:                  -8.643
REMARK INTRA:                  -1.103
REMARK UNBOUND:                -0.762
REMARK  Name = 
REMARK  7 active torsions:
REMARK  status: ('A' for Active; 'I' for Inactive)
REMARK    1  A    between atoms: C_1  and  C_2
REMARK    2  A    between atoms: C_2  and  C_3
REMARK    3  A    between atoms: C_3  and  N_4
REMARK    4  A    between atoms: C_3  and  C_17
REMARK    5  A    between atoms: C_5  and  C_7
REMARK    6  A    between atoms: C_20  and  C_21
REMARK    7  A    between atoms: C_21  and  N_22
REMARK                            x       y       z     vdW  Elec       q    Type
REMARK                         _______ _______ _______ _____ _____    ______ ____
ROOT
ATOM      1  C   UNL     1      49.464   7.515  14.137  0.00  0.00    +0.000 C 
ENDROOT
BRANCH   1   2
ATOM      2  C   UNL     1      48.106   7.393  13.443  0.00  0.00    +0.000 A 
ATOM      3  C   UNL     1      47.798   6.208  12.765  0.00  0.00    +0.000 A 
ATOM      4  C   UNL     1      46.563   6.046  12.136  0.00  0.00    +0.000 A 
ATOM      5  C   UNL     1      45.577   7.044  12.205  0.00  0.00    +0.000 A 
ATOM      6  C   UNL     1      45.894   8.250  12.830  0.00  0.00    +0.000 A 
ATOM      7  C   UNL     1      47.152   8.430  13.419  0.00  0.00    +0.000 A 
BRANCH   5   8
ATOM      8  C   UNL     1      44.183   6.770  11.665  0.00  0.00    +0.000 C 
BRANCH   8   9
ATOM      9  N   UNL     1      43.980   5.337  11.564  0.00  0.00    +0.000 NA
ATOM     10  C   UNL     1      43.138   4.708  12.586  0.00  0.00    +0.000 C 
ATOM     11  C   UNL     1      43.514   3.218  12.619  0.00  0.00    +0.000 C 
ATOM     12  O   UNL     1      43.306   2.599  11.336  0.00  0.00    +0.000 OA
ATOM     13  C   UNL     1      44.044   3.290  10.311  0.00  0.00    +0.000 C 
ATOM     14  C   UNL     1      43.665   4.782  10.252  0.00  0.00    +0.000 C 
ENDBRANCH   8   9
ENDBRANCH   5   8
ENDBRANCH   1   2
BRANCH   1  15
ATOM     15  N   UNL     1      49.266   7.679  15.573  0.00  0.00    +0.000 N 
ATOM     16  C   UNL     1      49.542   6.755  16.540  0.00  0.00    +0.000 C 
ATOM     17  O   UNL     1      49.829   5.586  16.307  0.00  0.00    +0.000 OA
ATOM     18  H   UNL     1      49.199   8.636  15.872  0.00  0.00    +0.000 HD
BRANCH  16  19
ATOM     19  C   UNL     1      49.398   7.272  17.915  0.00  0.00    +0.000 A 
ATOM     20  C   UNL     1      50.157   8.337  18.375  0.00  0.00    +0.000 A 
ATOM     21  S   UNL     1      49.897   8.686  20.030  0.00  0.00    +0.000 S 
ATOM     22  C   UNL     1      48.746   7.453  20.172  0.00  0.00    +0.000 A 
ATOM     23  N   UNL     1      48.148   7.160  21.366  0.00  0.00    +0.000 NA
ATOM     24  C   UNL     1      47.295   6.188  21.322  0.00  0.00    +0.000 A 
ATOM     25  N   UNL     1      46.960   5.496  20.189  0.00  0.00    +0.000 N 
ATOM     26  C   UNL     1      47.517   5.759  18.964  0.00  0.00    +0.000 A 
ATOM     27  O   UNL     1      47.199   5.107  17.977  0.00  0.00    +0.000 OA
ATOM     28  C   UNL     1      48.527   6.802  18.970  0.00  0.00    +0.000 A 
ATOM     29  H   UNL     1      46.285   4.745  20.215  0.00  0.00    +0.000 HD
ENDBRANCH  16  19
ENDBRANCH   1  15
BRANCH   1  31
ATOM     30  C   UNL     1      50.564   8.587  12.071  0.00  0.00    +0.000 C 
ATOM     31  C   UNL     1      50.286   8.690  13.568  0.00  0.00    +0.000 C 
ENDBRANCH   1  31
TORSDOF 6
ENDMDL
