MODEL 1
REMARK VINA RESULT:    -8.125      0.000      0.000
REMARK INTER + INTRA:         -10.186
REMARK INTER:                 -10.500
REMARK INTRA:                   0.314
REMARK UNBOUND:                 0.314
REMARK  Name = 
REMARK  7 active torsions:
REMARK  status: ('A' for Active; 'I' for Inactive)
REMARK    1  A    between atoms: C_1  and  C_2
REMARK    2  A    between atoms: C_2  and  C_3
REMARK    3  A    between atoms: C_2  and  C_4
REMARK    4  A    between atoms: C_2  and  N_18
REMARK    5  A    between atoms: C_5  and  C_6
REMARK    6  A    between atoms: C_10  and  C_11
REMARK    7  A    between atoms: C_22  and  C_23
REMARK                            x       y       z     vdW  Elec       q    Type
REMARK                         _______ _______ _______ _____ _____    ______ ____
ROOT
ATOM      1  C   UNL     1      43.392   3.387  11.608  0.00  0.00    +0.000 C 
ATOM      2  C   UNL     1      43.643   4.887  11.341  0.00  0.00    +0.000 C 
ATOM      3  C   UNL     1      42.315   5.621  11.614  0.00  0.00    +0.000 C 
ENDROOT
BRANCH   2   4
ATOM      4  N   UNL     1      44.048   5.015   9.928  0.00  0.00    +0.000 N 
ATOM      5  C   UNL     1      44.755   3.983   9.300  0.00  0.00    +0.000 A 
ATOM      6  C   UNL     1      45.110   4.134   7.961  0.00  0.00    +0.000 A 
ATOM      7  C   UNL     1      45.812   3.116   7.308  0.00  0.00    +0.000 A 
ATOM      8  C   UNL     1      46.142   1.950   7.998  0.00  0.00    +0.000 A 
ATOM      9  C   UNL     1      45.733   1.871   9.315  0.00  0.00    +0.000 A 
ATOM     10  N   UNL     1      45.055   2.849   9.960  0.00  0.00    +0.000 NA
ATOM     11  H   UNL     1      44.526   5.893   9.753  0.00  0.00    +0.000 HD
BRANCH   8  12
ATOM     12  C   UNL     1      46.900   0.877   7.316  0.00  0.00    +0.000 C 
ATOM     13  N   UNL     1      47.675   1.192   6.235  0.00  0.00    +0.000 N 
ATOM     14  O   UNL     1      46.834  -0.286   7.700  0.00  0.00    +0.000 OA
ATOM     15  H   UNL     1      47.777   2.102   5.815  0.00  0.00    +0.000 HD
ATOM     16  H   UNL     1      48.156   0.419   5.793  0.00  0.00    +0.000 HD
ENDBRANCH   8  12
ENDBRANCH   2   4
BRANCH   2  17
ATOM     17  C   UNL     1      44.819   5.282  12.209  0.00  0.00    +0.000 C 
ATOM     18  C   UNL     1      45.620   6.347  12.046  0.00  0.00    +0.000 C 
BRANCH  18  19
ATOM     19  C   UNL     1      46.796   6.519  12.894  0.00  0.00    +0.000 A 
ATOM     20  C   UNL     1      47.703   7.549  12.660  0.00  0.00    +0.000 A 
ATOM     21  C   UNL     1      48.794   7.711  13.509  0.00  0.00    +0.000 A 
ATOM     22  C   UNL     1      48.962   6.858  14.607  0.00  0.00    +0.000 A 
ATOM     23  C   UNL     1      48.035   5.840  14.897  0.00  0.00    +0.000 A 
ATOM     24  C   UNL     1      46.964   5.677  14.001  0.00  0.00    +0.000 A 
BRANCH  23  25
ATOM     25  C   UNL     1      48.111   5.037  16.141  0.00  0.00    +0.000 A 
ATOM     26  C   UNL     1      47.206   3.985  16.374  0.00  0.00    +0.000 A 
ATOM     27  C   UNL     1      47.332   3.143  17.483  0.00  0.00    +0.000 A 
ATOM     28  C   UNL     1      48.372   3.331  18.386  0.00  0.00    +0.000 A 
ATOM     29  C   UNL     1      49.271   4.377  18.193  0.00  0.00    +0.000 A 
ATOM     30  C   UNL     1      49.133   5.226  17.090  0.00  0.00    +0.000 A 
ENDBRANCH  23  25
ENDBRANCH  18  19
ENDBRANCH   2  17
TORSDOF 5
ENDMDL
MODEL 2
REMARK VINA RESULT:    -7.974      1.569      2.240
REMARK INTER + INTRA:          -9.991
REMARK INTER:                  -9.655
REMARK INTRA:                  -0.335
REMARK UNBOUND:                 0.314
REMARK  Name = 
REMARK  7 active torsions:
REMARK  status: ('A' for Active; 'I' for Inactive)
REMARK    1  A    between atoms: C_1  and  C_2
REMARK    2  A    between atoms: C_2  and  C_3
REMARK    3  A    between atoms: C_2  and  C_4
REMARK    4  A    between atoms: C_2  and  N_18
REMARK    5  A    between atoms: C_5  and  C_6
REMARK    6  A    between atoms: C_10  and  C_11
REMARK    7  A    between atoms: C_22  and  C_23
REMARK                            x       y       z     vdW  Elec       q    Type
REMARK                         _______ _______ _______ _____ _____    ______ ____
ROOT
ATOM      1  C   UNL     1      43.158   4.715  12.939  0.00  0.00    +0.000 C 
ATOM      2  C   UNL     1      44.017   4.875  11.666  0.00  0.00    +0.000 C 
ATOM      3  C   UNL     1      43.219   5.767  10.695  0.00  0.00    +0.000 C 
ENDROOT
BRANCH   2   4
ATOM      4  N   UNL     1      44.224   3.524  11.109  0.00  0.00    +0.000 N 
ATOM      5  C   UNL     1      44.945   3.353   9.921  0.00  0.00    +0.000 A 
ATOM      6  C   UNL     1      45.131   2.061   9.433  0.00  0.00    +0.000 A 
ATOM      7  C   UNL     1      45.852   1.862   8.251  0.00  0.00    +0.000 A 
ATOM      8  C   UNL     1      46.391   2.956   7.576  0.00  0.00    +0.000 A 
ATOM      9  C   UNL     1      46.180   4.200   8.140  0.00  0.00    +0.000 A 
ATOM     10  N   UNL     1      45.483   4.407   9.282  0.00  0.00    +0.000 NA
ATOM     11  H   UNL     1      43.351   3.009  11.040  0.00  0.00    +0.000 HD
BRANCH   8  12
ATOM     12  C   UNL     1      47.140   2.751   6.316  0.00  0.00    +0.000 C 
ATOM     13  N   UNL     1      48.495   2.577   6.367  0.00  0.00    +0.000 N 
ATOM     14  O   UNL     1      46.565   2.746   5.232  0.00  0.00    +0.000 OA
ATOM     15  H   UNL     1      49.071   2.597   7.193  0.00  0.00    +0.000 HD
ATOM     16  H   UNL     1      48.962   2.462   5.476  0.00  0.00    +0.000 HD
ENDBRANCH   8  12
ENDBRANCH   2   4
BRANCH   2  17
ATOM     17  C   UNL     1      45.357   5.410  12.122  0.00  0.00    +0.000 C 
ATOM     18  C   UNL     1      45.857   6.635  11.891  0.00  0.00    +0.000 C 
BRANCH  18  19
ATOM     19  C   UNL     1      47.224   6.958  12.288  0.00  0.00    +0.000 A 
ATOM     20  C   UNL     1      48.057   7.697  11.451  0.00  0.00    +0.000 A 
ATOM     21  C   UNL     1      49.343   8.021  11.874  0.00  0.00    +0.000 A 
ATOM     22  C   UNL     1      49.786   7.627  13.142  0.00  0.00    +0.000 A 
ATOM     23  C   UNL     1      48.950   6.922  14.028  0.00  0.00    +0.000 A 
ATOM     24  C   UNL     1      47.671   6.577  13.560  0.00  0.00    +0.000 A 
BRANCH  23  25
ATOM     25  C   UNL     1      49.346   6.640  15.429  0.00  0.00    +0.000 A 
ATOM     26  C   UNL     1      50.547   7.150  15.953  0.00  0.00    +0.000 A 
ATOM     27  C   UNL     1      50.883   6.994  17.301  0.00  0.00    +0.000 A 
ATOM     28  C   UNL     1      50.019   6.326  18.161  0.00  0.00    +0.000 A 
ATOM     29  C   UNL     1      48.832   5.792  17.667  0.00  0.00    +0.000 A 
ATOM     30  C   UNL     1      48.507   5.938  16.314  0.00  0.00    +0.000 A 
ENDBRANCH  23  25
ENDBRANCH  18  19
ENDBRANCH   2  17
TORSDOF 5
ENDMDL
MODEL 3
REMARK VINA RESULT:    -7.947      5.971      9.152
REMARK INTER + INTRA:          -9.956
REMARK INTER:                  -9.715
REMARK INTRA:                  -0.241
REMARK UNBOUND:                 0.314
REMARK  Name = 
REMARK  7 active torsions:
REMARK  status: ('A' for Active; 'I' for Inactive)
REMARK    1  A    between atoms: C_1  and  C_2
REMARK    2  A    between atoms: C_2  and  C_3
REMARK    3  A    between atoms: C_2  and  C_4
REMARK    4  A    between atoms: C_2  and  N_18
REMARK    5  A    between atoms: C_5  and  C_6
REMARK    6  A    between atoms: C_10  and  C_11
REMARK    7  A    between atoms: C_22  and  C_23
REMARK                            x       y       z     vdW  Elec       q    Type
REMARK                         _______ _______ _______ _____ _____    ______ ____
ROOT
ATOM      1  C   UNL     1      45.479  10.461  11.572  0.00  0.00    +0.000 C 
ATOM      2  C   UNL     1      44.045  10.249  11.039  0.00  0.00    +0.000 C 
ATOM      3  C   UNL     1      43.973  10.934   9.660  0.00  0.00    +0.000 C 
ENDROOT
BRANCH   2   4
ATOM      4  N   UNL     1      43.125  10.883  12.004  0.00  0.00    +0.000 N 
ATOM      5  C   UNL     1      41.758  10.976  11.719  0.00  0.00    +0.000 A 
ATOM      6  C   UNL     1      40.919  11.570  12.659  0.00  0.00    +0.000 A 
ATOM      7  C   UNL     1      39.547  11.670  12.402  0.00  0.00    +0.000 A 
ATOM      8  C   UNL     1      39.028  11.164  11.211  0.00  0.00    +0.000 A 
ATOM      9  C   UNL     1      39.924  10.570  10.344  0.00  0.00    +0.000 A 
ATOM     10  N   UNL     1      41.253  10.468  10.579  0.00  0.00    +0.000 NA
ATOM     11  H   UNL     1      43.461  11.795  12.298  0.00  0.00    +0.000 HD
BRANCH   8  12
ATOM     12  C   UNL     1      37.579  11.283  10.927  0.00  0.00    +0.000 C 
ATOM     13  N   UNL     1      37.173  11.926   9.791  0.00  0.00    +0.000 N 
ATOM     14  O   UNL     1      36.744  10.824  11.699  0.00  0.00    +0.000 OA
ATOM     15  H   UNL     1      37.767  12.369   9.108  0.00  0.00    +0.000 HD
ATOM     16  H   UNL     1      36.173  11.999   9.655  0.00  0.00    +0.000 HD
ENDBRANCH   8  12
ENDBRANCH   2   4
BRANCH   2  17
ATOM     17  C   UNL     1      43.800   8.755  11.061  0.00  0.00    +0.000 C 
ATOM     18  C   UNL     1      44.672   7.800  11.421  0.00  0.00    +0.000 C 
BRANCH  18  19
ATOM     19  C   UNL     1      44.326   6.391  11.263  0.00  0.00    +0.000 A 
ATOM     20  C   UNL     1      43.259   5.833  11.962  0.00  0.00    +0.000 A 
ATOM     21  C   UNL     1      42.929   4.496  11.761  0.00  0.00    +0.000 A 
ATOM     22  C   UNL     1      43.652   3.725  10.843  0.00  0.00    +0.000 A 
ATOM     23  C   UNL     1      44.703   4.274  10.086  0.00  0.00    +0.000 A 
ATOM     24  C   UNL     1      45.037   5.616  10.338  0.00  0.00    +0.000 A 
BRANCH  23  25
ATOM     25  C   UNL     1      45.369   3.519   8.998  0.00  0.00    +0.000 A 
ATOM     26  C   UNL     1      46.009   4.193   7.942  0.00  0.00    +0.000 A 
ATOM     27  C   UNL     1      46.740   3.504   6.970  0.00  0.00    +0.000 A 
ATOM     28  C   UNL     1      46.853   2.120   7.034  0.00  0.00    +0.000 A 
ATOM     29  C   UNL     1      46.213   1.423   8.055  0.00  0.00    +0.000 A 
ATOM     30  C   UNL     1      45.470   2.115   9.018  0.00  0.00    +0.000 A 
ENDBRANCH  23  25
ENDBRANCH  18  19
ENDBRANCH   2  17
TORSDOF 5
ENDMDL
MODEL 4
REMARK VINA RESULT:    -7.906      2.451      4.645
REMARK INTER + INTRA:          -9.902
REMARK INTER:                  -9.654
REMARK INTRA:                  -0.248
REMARK UNBOUND:                 0.314
REMARK  Name = 
REMARK  7 active torsions:
REMARK  status: ('A' for Active; 'I' for Inactive)
REMARK    1  A    between atoms: C_1  and  C_2
REMARK    2  A    between atoms: C_2  and  C_3
REMARK    3  A    between atoms: C_2  and  C_4
REMARK    4  A    between atoms: C_2  and  N_18
REMARK    5  A    between atoms: C_5  and  C_6
REMARK    6  A    between atoms: C_10  and  C_11
REMARK    7  A    between atoms: C_22  and  C_23
REMARK                            x       y       z     vdW  Elec       q    Type
REMARK                         _______ _______ _______ _____ _____    ______ ____
ROOT
ATOM      1  C   UNL     1      42.924   4.967  12.877  0.00  0.00    +0.000 C 
ATOM      2  C   UNL     1      43.930   5.089  11.712  0.00  0.00    +0.000 C 
ATOM      3  C   UNL     1      43.278   5.997  10.650  0.00  0.00    +0.000 C 
ENDROOT
BRANCH   2   4
ATOM      4  N   UNL     1      44.157   3.728  11.189  0.00  0.00    +0.000 N 
ATOM      5  C   UNL     1      44.878   3.538  10.004  0.00  0.00    +0.000 A 
ATOM      6  C   UNL     1      45.083   2.238   9.548  0.00  0.00    +0.000 A 
ATOM      7  C   UNL     1      45.804   2.020   8.369  0.00  0.00    +0.000 A 
ATOM      8  C   UNL     1      46.323   3.105   7.664  0.00  0.00    +0.000 A 
ATOM      9  C   UNL     1      46.094   4.359   8.197  0.00  0.00    +0.000 A 
ATOM     10  N   UNL     1      45.397   4.585   9.335  0.00  0.00    +0.000 NA
ATOM     11  H   UNL     1      43.293   3.198  11.136  0.00  0.00    +0.000 HD
BRANCH   8  12
ATOM     12  C   UNL     1      47.072   2.880   6.407  0.00  0.00    +0.000 C 
ATOM     13  N   UNL     1      48.433   2.766   6.454  0.00  0.00    +0.000 N 
ATOM     14  O   UNL     1      46.490   2.805   5.330  0.00  0.00    +0.000 OA
ATOM     15  H   UNL     1      49.013   2.845   7.274  0.00  0.00    +0.000 HD
ATOM     16  H   UNL     1      48.899   2.634   5.565  0.00  0.00    +0.000 HD
ENDBRANCH   8  12
ENDBRANCH   2   4
BRANCH   2  17
ATOM     17  C   UNL     1      45.224   5.588  12.318  0.00  0.00    +0.000 C 
ATOM     18  C   UNL     1      45.956   6.637  11.908  0.00  0.00    +0.000 C 
BRANCH  18  19
ATOM     19  C   UNL     1      47.253   6.912  12.518  0.00  0.00    +0.000 A 
ATOM     20  C   UNL     1      47.524   6.528  13.829  0.00  0.00    +0.000 A 
ATOM     21  C   UNL     1      48.783   6.770  14.370  0.00  0.00    +0.000 A 
ATOM     22  C   UNL     1      49.777   7.375  13.591  0.00  0.00    +0.000 A 
ATOM     23  C   UNL     1      49.548   7.729  12.249  0.00  0.00    +0.000 A 
ATOM     24  C   UNL     1      48.256   7.506  11.742  0.00  0.00    +0.000 A 
BRANCH  23  25
ATOM     25  C   UNL     1      50.634   8.219  11.366  0.00  0.00    +0.000 A 
ATOM     26  C   UNL     1      51.397   7.320  10.599  0.00  0.00    +0.000 A 
ATOM     27  C   UNL     1      52.347   7.768   9.676  0.00  0.00    +0.000 A 
ATOM     28  C   UNL     1      52.552   9.131   9.495  0.00  0.00    +0.000 A 
ATOM     29  C   UNL     1      51.828  10.045  10.254  0.00  0.00    +0.000 A 
ATOM     30  C   UNL     1      50.888   9.591  11.188  0.00  0.00    +0.000 A 
ENDBRANCH  23  25
ENDBRANCH  18  19
ENDBRANCH   2  17
TORSDOF 5
ENDMDL
MODEL 5
REMARK VINA RESULT:    -7.692      1.160      3.491
REMARK INTER + INTRA:          -9.625
REMARK INTER:                  -9.789
REMARK INTRA:                   0.163
REMARK UNBOUND:                 0.314
REMARK  Name = 
REMARK  7 active torsions:
REMARK  status: ('A' for Active; 'I' for Inactive)
REMARK    1  A    between atoms: C_1  and  C_2
REMARK    2  A    between atoms: C_2  and  C_3
REMARK    3  A    between atoms: C_2  and  C_4
REMARK    4  A    between atoms: C_2  and  N_18
REMARK    5  A    between atoms: C_5  and  C_6
REMARK    6  A    between atoms: C_10  and  C_11
REMARK    7  A    between atoms: C_22  and  C_23
REMARK                            x       y       z     vdW  Elec       q    Type
REMARK                         _______ _______ _______ _____ _____    ______ ____
ROOT
ATOM      1  C   UNL     1      43.297   3.369  11.682  0.00  0.00    +0.000 C 
ATOM      2  C   UNL     1      43.576   4.856  11.377  0.00  0.00    +0.000 C 
ATOM      3  C   UNL     1      42.287   5.633  11.711  0.00  0.00    +0.000 C 
ENDROOT
BRANCH   2   4
ATOM      4  N   UNL     1      43.905   4.951   9.941  0.00  0.00    +0.000 N 
ATOM      5  C   UNL     1      44.660   3.947   9.323  0.00  0.00    +0.000 A 
ATOM      6  C   UNL     1      44.940   4.064   7.962  0.00  0.00    +0.000 A 
ATOM      7  C   UNL     1      45.687   3.072   7.319  0.00  0.00    +0.000 A 
ATOM      8  C   UNL     1      46.137   1.967   8.039  0.00  0.00    +0.000 A 
ATOM      9  C   UNL     1      45.796   1.917   9.377  0.00  0.00    +0.000 A 
ATOM     10  N   UNL     1      45.075   2.869  10.013  0.00  0.00    +0.000 NA
ATOM     11  H   UNL     1      44.306   5.854   9.707  0.00  0.00    +0.000 HD
BRANCH   8  12
ATOM     12  C   UNL     1      46.943   0.924   7.366  0.00  0.00    +0.000 C 
ATOM     13  N   UNL     1      47.833   1.292   6.396  0.00  0.00    +0.000 N 
ATOM     14  O   UNL     1      46.816  -0.260   7.658  0.00  0.00    +0.000 OA
ATOM     15  H   UNL     1      47.995   2.226   6.054  0.00  0.00    +0.000 HD
ATOM     16  H   UNL     1      48.344   0.539   5.952  0.00  0.00    +0.000 HD
ENDBRANCH   8  12
ENDBRANCH   2   4
BRANCH   2  17
ATOM     17  C   UNL     1      44.809   5.229  12.172  0.00  0.00    +0.000 C 
ATOM     18  C   UNL     1      45.370   4.525  13.168  0.00  0.00    +0.000 C 
BRANCH  18  19
ATOM     19  C   UNL     1      46.485   5.083  13.926  0.00  0.00    +0.000 A 
ATOM     20  C   UNL     1      46.855   4.547  15.157  0.00  0.00    +0.000 A 
ATOM     21  C   UNL     1      47.947   5.077  15.837  0.00  0.00    +0.000 A 
ATOM     22  C   UNL     1      48.683   6.127  15.275  0.00  0.00    +0.000 A 
ATOM     23  C   UNL     1      48.363   6.657  14.011  0.00  0.00    +0.000 A 
ATOM     24  C   UNL     1      47.233   6.127  13.365  0.00  0.00    +0.000 A 
BRANCH  23  25
ATOM     25  C   UNL     1      49.226   7.654  13.333  0.00  0.00    +0.000 A 
ATOM     26  C   UNL     1      48.819   8.257  12.130  0.00  0.00    +0.000 A 
ATOM     27  C   UNL     1      49.562   9.281  11.536  0.00  0.00    +0.000 A 
ATOM     28  C   UNL     1      50.732   9.731  12.137  0.00  0.00    +0.000 A 
ATOM     29  C   UNL     1      51.172   9.139  13.318  0.00  0.00    +0.000 A 
ATOM     30  C   UNL     1      50.432   8.104  13.901  0.00  0.00    +0.000 A 
ENDBRANCH  23  25
ENDBRANCH  18  19
ENDBRANCH   2  17
TORSDOF 5
ENDMDL
MODEL 6
REMARK VINA RESULT:    -7.571      3.119      7.774
REMARK INTER + INTRA:          -9.470
REMARK INTER:                  -9.610
REMARK INTRA:                   0.141
REMARK UNBOUND:                 0.314
REMARK  Name = 
REMARK  7 active torsions:
REMARK  status: ('A' for Active; 'I' for Inactive)
REMARK    1  A    between atoms: C_1  and  C_2
REMARK    2  A    between atoms: C_2  and  C_3
REMARK    3  A    between atoms: C_2  and  C_4
REMARK    4  A    between atoms: C_2  and  N_18
REMARK    5  A    between atoms: C_5  and  C_6
REMARK    6  A    between atoms: C_10  and  C_11
REMARK    7  A    between atoms: C_22  and  C_23
REMARK                            x       y       z     vdW  Elec       q    Type
REMARK                         _______ _______ _______ _____ _____    ______ ____
ROOT
ATOM      1  C   UNL     1      49.790   8.254  12.098  0.00  0.00    +0.000 C 
ATOM      2  C   UNL     1      48.430   8.613  12.735  0.00  0.00    +0.000 C 
ATOM      3  C   UNL     1      48.165  10.098  12.421  0.00  0.00    +0.000 C 
ENDROOT
BRANCH   2   4
ATOM      4  N   UNL     1      48.557   8.383  14.187  0.00  0.00    +0.000 N 
ATOM      5  C   UNL     1      48.371   7.101  14.718  0.00  0.00    +0.000 A 
ATOM      6  C   UNL     1      48.511   6.921  16.092  0.00  0.00    +0.000 A 
ATOM      7  C   UNL     1      48.335   5.649  16.648  0.00  0.00    +0.000 A 
ATOM      8  C   UNL     1      48.034   4.568  15.821  0.00  0.00    +0.000 A 
ATOM      9  C   UNL     1      47.935   4.828  14.468  0.00  0.00    +0.000 A 
ATOM     10  N   UNL     1      48.101   6.054  13.917  0.00  0.00    +0.000 NA
ATOM     11  H   UNL     1      48.000   9.043  14.720  0.00  0.00    +0.000 HD
BRANCH   8  12
ATOM     12  C   UNL     1      47.831   3.223  16.407  0.00  0.00    +0.000 C 
ATOM     13  N   UNL     1      46.936   3.070  17.429  0.00  0.00    +0.000 N 
ATOM     14  O   UNL     1      48.458   2.253  15.996  0.00  0.00    +0.000 OA
ATOM     15  H   UNL     1      46.393   3.798  17.865  0.00  0.00    +0.000 HD
ATOM     16  H   UNL     1      46.849   2.135  17.807  0.00  0.00    +0.000 HD
ENDBRANCH   8  12
ENDBRANCH   2   4
BRANCH   2  17
ATOM     17  C   UNL     1      47.428   7.621  12.183  0.00  0.00    +0.000 C 
ATOM     18  C   UNL     1      46.178   7.884  11.769  0.00  0.00    +0.000 C 
BRANCH  18  19
ATOM     19  C   UNL     1      45.287   6.794  11.384  0.00  0.00    +0.000 A 
ATOM     20  C   UNL     1      43.951   6.787  11.778  0.00  0.00    +0.000 A 
ATOM     21  C   UNL     1      43.117   5.754  11.363  0.00  0.00    +0.000 A 
ATOM     22  C   UNL     1      43.614   4.740  10.534  0.00  0.00    +0.000 A 
ATOM     23  C   UNL     1      44.946   4.747  10.080  0.00  0.00    +0.000 A 
ATOM     24  C   UNL     1      45.774   5.783  10.545  0.00  0.00    +0.000 A 
BRANCH  23  25
ATOM     25  C   UNL     1      45.440   3.775   9.076  0.00  0.00    +0.000 A 
ATOM     26  C   UNL     1      46.146   4.211   7.940  0.00  0.00    +0.000 A 
ATOM     27  C   UNL     1      46.720   3.306   7.042  0.00  0.00    +0.000 A 
ATOM     28  C   UNL     1      46.605   1.938   7.263  0.00  0.00    +0.000 A 
ATOM     29  C   UNL     1      45.894   1.476   8.367  0.00  0.00    +0.000 A 
ATOM     30  C   UNL     1      45.309   2.385   9.255  0.00  0.00    +0.000 A 
ENDBRANCH  23  25
ENDBRANCH  18  19
ENDBRANCH   2  17
TORSDOF 5
ENDMDL
MODEL 7
REMARK VINA RESULT:    -7.518      5.374      8.679
REMARK INTER + INTRA:          -9.401
REMARK INTER:                  -9.157
REMARK INTRA:                  -0.244
REMARK UNBOUND:                 0.314
REMARK  Name = 
REMARK  7 active torsions:
REMARK  status: ('A' for Active; 'I' for Inactive)
REMARK    1  A    between atoms: C_1  and  C_2
REMARK    2  A    between atoms: C_2  and  C_3
REMARK    3  A    between atoms: C_2  and  C_4
REMARK    4  A    between atoms: C_2  and  N_18
REMARK    5  A    between atoms: C_5  and  C_6
REMARK    6  A    between atoms: C_10  and  C_11
REMARK    7  A    between atoms: C_22  and  C_23
REMARK                            x       y       z     vdW  Elec       q    Type
REMARK                         _______ _______ _______ _____ _____    ______ ____
ROOT
ATOM      1  C   UNL     1      44.944  12.691  10.628  0.00  0.00    +0.000 C 
ATOM      2  C   UNL     1      43.778  11.679  10.593  0.00  0.00    +0.000 C 
ATOM      3  C   UNL     1      43.102  11.821   9.215  0.00  0.00    +0.000 C 
ENDROOT
BRANCH   2   4
ATOM      4  N   UNL     1      42.854  12.042  11.686  0.00  0.00    +0.000 N 
ATOM      5  C   UNL     1      41.548  11.538  11.702  0.00  0.00    +0.000 A 
ATOM      6  C   UNL     1      40.709  11.893  12.756  0.00  0.00    +0.000 A 
ATOM      7  C   UNL     1      39.401  11.399  12.800  0.00  0.00    +0.000 A 
ATOM      8  C   UNL     1      38.949  10.545  11.794  0.00  0.00    +0.000 A 
ATOM      9  C   UNL     1      39.852  10.225  10.799  0.00  0.00    +0.000 A 
ATOM     10  N   UNL     1      41.120  10.697  10.743  0.00  0.00    +0.000 NA
ATOM     11  H   UNL     1      42.820  13.046  11.829  0.00  0.00    +0.000 HD
BRANCH   8  12
ATOM     12  C   UNL     1      37.560  10.034  11.828  0.00  0.00    +0.000 C 
ATOM     13  N   UNL     1      36.527  10.897  11.592  0.00  0.00    +0.000 N 
ATOM     14  O   UNL     1      37.327   8.855  12.072  0.00  0.00    +0.000 OA
ATOM     15  H   UNL     1      36.600  11.886  11.415  0.00  0.00    +0.000 HD
ATOM     16  H   UNL     1      35.596  10.501  11.647  0.00  0.00    +0.000 HD
ENDBRANCH   8  12
ENDBRANCH   2   4
BRANCH   2  17
ATOM     17  C   UNL     1      44.379  10.326  10.910  0.00  0.00    +0.000 C 
ATOM     18  C   UNL     1      44.814   9.897  12.106  0.00  0.00    +0.000 C 
BRANCH  18  19
ATOM     19  C   UNL     1      45.491   8.609  12.223  0.00  0.00    +0.000 A 
ATOM     20  C   UNL     1      46.413   8.375  13.239  0.00  0.00    +0.000 A 
ATOM     21  C   UNL     1      47.013   7.124  13.348  0.00  0.00    +0.000 A 
ATOM     22  C   UNL     1      46.673   6.101  12.454  0.00  0.00    +0.000 A 
ATOM     23  C   UNL     1      45.708   6.294  11.448  0.00  0.00    +0.000 A 
ATOM     24  C   UNL     1      45.146   7.578  11.340  0.00  0.00    +0.000 A 
BRANCH  23  25
ATOM     25  C   UNL     1      45.219   5.179  10.601  0.00  0.00    +0.000 A 
ATOM     26  C   UNL     1      45.592   5.088   9.248  0.00  0.00    +0.000 A 
ATOM     27  C   UNL     1      45.238   3.986   8.464  0.00  0.00    +0.000 A 
ATOM     28  C   UNL     1      44.505   2.943   9.018  0.00  0.00    +0.000 A 
ATOM     29  C   UNL     1      44.103   3.015  10.349  0.00  0.00    +0.000 A 
ATOM     30  C   UNL     1      44.447   4.127  11.126  0.00  0.00    +0.000 A 
ENDBRANCH  23  25
ENDBRANCH  18  19
ENDBRANCH   2  17
TORSDOF 5
ENDMDL
MODEL 8
REMARK VINA RESULT:    -7.475      4.587      8.421
REMARK INTER + INTRA:          -9.345
REMARK INTER:                  -9.258
REMARK INTRA:                  -0.087
REMARK UNBOUND:                 0.314
REMARK  Name = 
REMARK  7 active torsions:
REMARK  status: ('A' for Active; 'I' for Inactive)
REMARK    1  A    between atoms: C_1  and  C_2
REMARK    2  A    between atoms: C_2  and  C_3
REMARK    3  A    between atoms: C_2  and  C_4
REMARK    4  A    between atoms: C_2  and  N_18
REMARK    5  A    between atoms: C_5  and  C_6
REMARK    6  A    between atoms: C_10  and  C_11
REMARK    7  A    between atoms: C_22  and  C_23
REMARK                            x       y       z     vdW  Elec       q    Type
REMARK                         _______ _______ _______ _____ _____    ______ ____
ROOT
ATOM      1  C   UNL     1      47.464   5.561  18.550  0.00  0.00    +0.000 C 
ATOM      2  C   UNL     1      48.273   4.570  17.685  0.00  0.00    +0.000 C 
ATOM      3  C   UNL     1      47.796   3.154  18.061  0.00  0.00    +0.000 C 
ENDROOT
BRANCH   2   4
ATOM      4  N   UNL     1      49.697   4.765  18.019  0.00  0.00    +0.000 N 
ATOM      5  C   UNL     1      50.601   3.702  17.900  0.00  0.00    +0.000 A 
ATOM      6  C   UNL     1      51.941   3.927  18.212  0.00  0.00    +0.000 A 
ATOM      7  C   UNL     1      52.866   2.884  18.096  0.00  0.00    +0.000 A 
ATOM      8  C   UNL     1      52.444   1.630  17.658  0.00  0.00    +0.000 A 
ATOM      9  C   UNL     1      51.105   1.499  17.347  0.00  0.00    +0.000 A 
ATOM     10  N   UNL     1      50.198   2.498  17.456  0.00  0.00    +0.000 NA
ATOM     11  H   UNL     1      49.813   5.193  18.933  0.00  0.00    +0.000 HD
BRANCH   8  12
ATOM     12  C   UNL     1      53.417   0.519  17.550  0.00  0.00    +0.000 C 
ATOM     13  N   UNL     1      53.226  -0.609  18.298  0.00  0.00    +0.000 N 
ATOM     14  O   UNL     1      54.391   0.602  16.809  0.00  0.00    +0.000 OA
ATOM     15  H   UNL     1      52.484  -0.771  18.959  0.00  0.00    +0.000 HD
ATOM     16  H   UNL     1      53.930  -1.330  18.202  0.00  0.00    +0.000 HD
ENDBRANCH   8  12
ENDBRANCH   2   4
BRANCH   2  17
ATOM     17  C   UNL     1      48.061   4.991  16.247  0.00  0.00    +0.000 C 
ATOM     18  C   UNL     1      48.523   6.105  15.655  0.00  0.00    +0.000 C 
BRANCH  18  19
ATOM     19  C   UNL     1      48.123   6.433  14.291  0.00  0.00    +0.000 A 
ATOM     20  C   UNL     1      48.834   7.366  13.541  0.00  0.00    +0.000 A 
ATOM     21  C   UNL     1      48.450   7.629  12.229  0.00  0.00    +0.000 A 
ATOM     22  C   UNL     1      47.370   6.942  11.661  0.00  0.00    +0.000 A 
ATOM     23  C   UNL     1      46.664   5.959  12.379  0.00  0.00    +0.000 A 
ATOM     24  C   UNL     1      47.050   5.741  13.713  0.00  0.00    +0.000 A 
BRANCH  23  25
ATOM     25  C   UNL     1      45.627   5.112  11.743  0.00  0.00    +0.000 A 
ATOM     26  C   UNL     1      45.353   5.222  10.367  0.00  0.00    +0.000 A 
ATOM     27  C   UNL     1      44.465   4.354   9.726  0.00  0.00    +0.000 A 
ATOM     28  C   UNL     1      43.830   3.349  10.447  0.00  0.00    +0.000 A 
ATOM     29  C   UNL     1      44.064   3.228  11.813  0.00  0.00    +0.000 A 
ATOM     30  C   UNL     1      44.944   4.108  12.454  0.00  0.00    +0.000 A 
ENDBRANCH  23  25
ENDBRANCH  18  19
ENDBRANCH   2  17
TORSDOF 5
ENDMDL
MODEL 9
REMARK VINA RESULT:    -7.426      2.769      5.308
REMARK INTER + INTRA:          -9.283
REMARK INTER:                  -9.028
REMARK INTRA:                  -0.254
REMARK UNBOUND:                 0.314
REMARK  Name = 
REMARK  7 active torsions:
REMARK  status: ('A' for Active; 'I' for Inactive)
REMARK    1  A    between atoms: C_1  and  C_2
REMARK    2  A    between atoms: C_2  and  C_3
REMARK    3  A    between atoms: C_2  and  C_4
REMARK    4  A    between atoms: C_2  and  N_18
REMARK    5  A    between atoms: C_5  and  C_6
REMARK    6  A    between atoms: C_10  and  C_11
REMARK    7  A    between atoms: C_22  and  C_23
REMARK                            x       y       z     vdW  Elec       q    Type
REMARK                         _______ _______ _______ _____ _____    ______ ____
ROOT
ATOM      1  C   UNL     1      48.516   9.094  14.805  0.00  0.00    +0.000 C 
ATOM      2  C   UNL     1      48.118   7.939  13.860  0.00  0.00    +0.000 C 
ATOM      3  C   UNL     1      49.127   7.944  12.695  0.00  0.00    +0.000 C 
ENDROOT
BRANCH   2   4
ATOM      4  N   UNL     1      46.748   8.217  13.387  0.00  0.00    +0.000 N 
ATOM      5  C   UNL     1      46.056   7.264  12.631  0.00  0.00    +0.000 A 
ATOM      6  C   UNL     1      44.759   7.557  12.213  0.00  0.00    +0.000 A 
ATOM      7  C   UNL     1      44.043   6.620  11.460  0.00  0.00    +0.000 A 
ATOM      8  C   UNL     1      44.627   5.395  11.144  0.00  0.00    +0.000 A 
ATOM      9  C   UNL     1      45.906   5.175  11.617  0.00  0.00    +0.000 A 
ATOM     10  N   UNL     1      46.611   6.072  12.344  0.00  0.00    +0.000 NA
ATOM     11  H   UNL     1      46.689   9.115  12.917  0.00  0.00    +0.000 HD
BRANCH   8  12
ATOM     12  C   UNL     1      43.878   4.407  10.334  0.00  0.00    +0.000 C 
ATOM     13  N   UNL     1      43.945   4.476   8.970  0.00  0.00    +0.000 N 
ATOM     14  O   UNL     1      43.196   3.539  10.867  0.00  0.00    +0.000 OA
ATOM     15  H   UNL     1      44.444   5.164   8.429  0.00  0.00    +0.000 HD
ATOM     16  H   UNL     1      43.399   3.791   8.463  0.00  0.00    +0.000 HD
ENDBRANCH   8  12
ENDBRANCH   2   4
BRANCH   2  17
ATOM     17  C   UNL     1      48.082   6.687  14.711  0.00  0.00    +0.000 C 
ATOM     18  C   UNL     1      48.503   6.562  15.980  0.00  0.00    +0.000 C 
BRANCH  18  19
ATOM     19  C   UNL     1      48.521   5.252  16.623  0.00  0.00    +0.000 A 
ATOM     20  C   UNL     1      47.344   4.536  16.823  0.00  0.00    +0.000 A 
ATOM     21  C   UNL     1      47.397   3.272  17.403  0.00  0.00    +0.000 A 
ATOM     22  C   UNL     1      48.631   2.716  17.762  0.00  0.00    +0.000 A 
ATOM     23  C   UNL     1      49.841   3.396  17.527  0.00  0.00    +0.000 A 
ATOM     24  C   UNL     1      49.753   4.684  16.974  0.00  0.00    +0.000 A 
BRANCH  23  25
ATOM     25  C   UNL     1      51.160   2.756  17.750  0.00  0.00    +0.000 A 
ATOM     26  C   UNL     1      51.375   1.410  17.402  0.00  0.00    +0.000 A 
ATOM     27  C   UNL     1      52.639   0.821  17.496  0.00  0.00    +0.000 A 
ATOM     28  C   UNL     1      53.724   1.569  17.938  0.00  0.00    +0.000 A 
ATOM     29  C   UNL     1      53.539   2.898  18.311  0.00  0.00    +0.000 A 
ATOM     30  C   UNL     1      52.269   3.479  18.228  0.00  0.00    +0.000 A 
ENDBRANCH  23  25
ENDBRANCH  18  19
ENDBRANCH   2  17
TORSDOF 5
ENDMDL
