MODEL 1
REMARK VINA RESULT:    -6.709      0.000      0.000
REMARK INTER + INTRA:          -9.093
REMARK INTER:                  -8.474
REMARK INTRA:                  -0.619
REMARK UNBOUND:                -0.619
REMARK  Name = 
REMARK  5 active torsions:
REMARK  status: ('A' for Active; 'I' for Inactive)
REMARK    1  A    between atoms: N_1  and  C_2
REMARK    2  A    between atoms: C_2  and  C_3
REMARK    3  A    between atoms: N_8  and  C_9
REMARK    4  A    between atoms: C_9  and  C_10
REMARK    5  A    between atoms: C_10  and  C_11
REMARK                            x       y       z     vdW  Elec       q    Type
REMARK                         _______ _______ _______ _____ _____    ______ ____
ROOT
ATOM      1  C   UNL     1      46.230   6.275  12.773  0.00  0.00    +0.000 A 
ATOM      2  C   UNL     1      47.149   5.992  13.778  0.00  0.00    +0.000 A 
ATOM      3  C   UNL     1      47.221   4.687  14.238  0.00  0.00    +0.000 A 
ATOM      4  N   UNL     1      46.461   3.667  13.778  0.00  0.00    +0.000 NA
ATOM      5  C   UNL     1      45.571   3.938  12.803  0.00  0.00    +0.000 A 
ATOM      6  N   UNL     1      44.823   2.877  12.348  0.00  0.00    +0.000 N 
ATOM      7  C   UNL     1      45.442   5.225  12.290  0.00  0.00    +0.000 A 
ATOM      8  H   UNL     1      44.992   2.001  12.827  0.00  0.00    +0.000 HD
ENDROOT
BRANCH   1   9
ATOM      9  C   UNL     1      46.079   7.652  12.188  0.00  0.00    +0.000 C 
BRANCH   9  10
ATOM     10  N   UNL     1      44.743   8.187  12.422  0.00  0.00    +0.000 NA
ATOM     11  H   UNL     1      44.143   7.449  12.783  0.00  0.00    +0.000 HD
ATOM     12  H   UNL     1      44.342   8.481  11.534  0.00  0.00    +0.000 HD
ENDBRANCH   9  10
ENDBRANCH   1   9
BRANCH   6  13
ATOM     13  C   UNL     1      43.805   3.025  11.332  0.00  0.00    +0.000 C 
BRANCH  13  14
ATOM     14  C   UNL     1      43.975   2.042  10.177  0.00  0.00    +0.000 C 
BRANCH  14  15
ATOM     15  C   UNL     1      44.923   2.609   9.141  0.00  0.00    +0.000 A 
ATOM     16  C   UNL     1      45.001   3.994   8.935  0.00  0.00    +0.000 A 
ATOM     17  C   UNL     1      45.909   4.526   8.017  0.00  0.00    +0.000 A 
ATOM     18  C   UNL     1      46.754   3.680   7.298  0.00  0.00    +0.000 A 
ATOM     19  C   UNL     1      46.689   2.304   7.507  0.00  0.00    +0.000 A 
ATOM     20 CL   UNL     1      47.742   1.260   6.630  0.00  0.00    +0.000 Cl
ATOM     21  C   UNL     1      45.785   1.766   8.424  0.00  0.00    +0.000 A 
ENDBRANCH  14  15
ENDBRANCH  13  14
ENDBRANCH   6  13
TORSDOF 5
ENDMDL
MODEL 2
REMARK VINA RESULT:    -6.521      1.526      2.700
REMARK INTER + INTRA:          -8.855
REMARK INTER:                  -8.498
REMARK INTRA:                  -0.358
REMARK UNBOUND:                -0.619
REMARK  Name = 
REMARK  5 active torsions:
REMARK  status: ('A' for Active; 'I' for Inactive)
REMARK    1  A    between atoms: N_1  and  C_2
REMARK    2  A    between atoms: C_2  and  C_3
REMARK    3  A    between atoms: N_8  and  C_9
REMARK    4  A    between atoms: C_9  and  C_10
REMARK    5  A    between atoms: C_10  and  C_11
REMARK                            x       y       z     vdW  Elec       q    Type
REMARK                         _______ _______ _______ _____ _____    ______ ____
ROOT
ATOM      1  C   UNL     1      47.073   5.359  14.016  0.00  0.00    +0.000 A 
ATOM      2  C   UNL     1      47.664   6.617  13.981  0.00  0.00    +0.000 A 
ATOM      3  C   UNL     1      47.473   7.390  12.846  0.00  0.00    +0.000 A 
ATOM      4  N   UNL     1      46.747   7.007  11.770  0.00  0.00    +0.000 NA
ATOM      5  C   UNL     1      46.171   5.790  11.803  0.00  0.00    +0.000 A 
ATOM      6  N   UNL     1      45.431   5.436  10.698  0.00  0.00    +0.000 N 
ATOM      7  C   UNL     1      46.320   4.957  12.908  0.00  0.00    +0.000 A 
ATOM      8  H   UNL     1      45.430   6.118   9.951  0.00  0.00    +0.000 HD
ENDROOT
BRANCH   1   9
ATOM      9  C   UNL     1      47.201   4.445  15.203  0.00  0.00    +0.000 C 
BRANCH   9  10
ATOM     10  N   UNL     1      47.594   3.100  14.799  0.00  0.00    +0.000 NA
ATOM     11  H   UNL     1      48.609   3.050  14.731  0.00  0.00    +0.000 HD
ATOM     12  H   UNL     1      47.231   2.912  13.867  0.00  0.00    +0.000 HD
ENDBRANCH   9  10
ENDBRANCH   1   9
BRANCH   6  13
ATOM     13  C   UNL     1      44.786   4.147  10.578  0.00  0.00    +0.000 C 
BRANCH  13  14
ATOM     14  C   UNL     1      44.306   3.857   9.157  0.00  0.00    +0.000 C 
BRANCH  14  15
ATOM     15  C   UNL     1      45.404   3.185   8.359  0.00  0.00    +0.000 A 
ATOM     16  C   UNL     1      46.290   3.952   7.589  0.00  0.00    +0.000 A 
ATOM     17  C   UNL     1      47.336   3.343   6.891  0.00  0.00    +0.000 A 
ATOM     18  C   UNL     1      47.508   1.961   6.958  0.00  0.00    +0.000 A 
ATOM     19  C   UNL     1      46.638   1.195   7.729  0.00  0.00    +0.000 A 
ATOM     20 CL   UNL     1      46.860  -0.510   7.823  0.00  0.00    +0.000 Cl
ATOM     21  C   UNL     1      45.592   1.797   8.431  0.00  0.00    +0.000 A 
ENDBRANCH  14  15
ENDBRANCH  13  14
ENDBRANCH   6  13
TORSDOF 5
ENDMDL
MODEL 3
REMARK VINA RESULT:    -6.437      1.756      3.197
REMARK INTER + INTRA:          -8.749
REMARK INTER:                  -8.443
REMARK INTRA:                  -0.306
REMARK UNBOUND:                -0.619
REMARK  Name = 
REMARK  5 active torsions:
REMARK  status: ('A' for Active; 'I' for Inactive)
REMARK    1  A    between atoms: N_1  and  C_2
REMARK    2  A    between atoms: C_2  and  C_3
REMARK    3  A    between atoms: N_8  and  C_9
REMARK    4  A    between atoms: C_9  and  C_10
REMARK    5  A    between atoms: C_10  and  C_11
REMARK                            x       y       z     vdW  Elec       q    Type
REMARK                         _______ _______ _______ _____ _____    ______ ____
ROOT
ATOM      1  C   UNL     1      45.776   4.443  12.754  0.00  0.00    +0.000 A 
ATOM      2  C   UNL     1      45.236   5.521  13.447  0.00  0.00    +0.000 A 
ATOM      3  C   UNL     1      44.332   6.332  12.779  0.00  0.00    +0.000 A 
ATOM      4  N   UNL     1      43.936   6.147  11.499  0.00  0.00    +0.000 NA
ATOM      5  C   UNL     1      44.456   5.103  10.825  0.00  0.00    +0.000 A 
ATOM      6  N   UNL     1      44.023   4.936   9.530  0.00  0.00    +0.000 N 
ATOM      7  C   UNL     1      45.370   4.245  11.430  0.00  0.00    +0.000 A 
ATOM      8  H   UNL     1      43.383   5.647   9.201  0.00  0.00    +0.000 HD
ENDROOT
BRANCH   1   9
ATOM      9  C   UNL     1      46.753   3.490  13.386  0.00  0.00    +0.000 C 
BRANCH   9  10
ATOM     10  N   UNL     1      47.398   4.083  14.551  0.00  0.00    +0.000 NA
ATOM     11  H   UNL     1      47.944   3.373  15.033  0.00  0.00    +0.000 HD
ATOM     12  H   UNL     1      46.682   4.394  15.206  0.00  0.00    +0.000 HD
ENDBRANCH   9  10
ENDBRANCH   1   9
BRANCH   6  13
ATOM     13  C   UNL     1      44.522   3.881   8.676  0.00  0.00    +0.000 C 
BRANCH  13  14
ATOM     14  C   UNL     1      45.843   4.244   8.001  0.00  0.00    +0.000 C 
BRANCH  14  15
ATOM     15  C   UNL     1      46.362   3.069   7.199  0.00  0.00    +0.000 A 
ATOM     16  C   UNL     1      46.899   3.268   5.918  0.00  0.00    +0.000 A 
ATOM     17  C   UNL     1      47.425   2.196   5.193  0.00  0.00    +0.000 A 
ATOM     18  C   UNL     1      47.425   0.913   5.743  0.00  0.00    +0.000 A 
ATOM     19  C   UNL     1      46.903   0.712   7.018  0.00  0.00    +0.000 A 
ATOM     20 CL   UNL     1      46.915  -0.869   7.703  0.00  0.00    +0.000 Cl
ATOM     21  C   UNL     1      46.377   1.779   7.749  0.00  0.00    +0.000 A 
ENDBRANCH  14  15
ENDBRANCH  13  14
ENDBRANCH   6  13
TORSDOF 5
ENDMDL
MODEL 4
REMARK VINA RESULT:    -6.426      1.906      2.830
REMARK INTER + INTRA:          -8.735
REMARK INTER:                  -8.412
REMARK INTRA:                  -0.323
REMARK UNBOUND:                -0.619
REMARK  Name = 
REMARK  5 active torsions:
REMARK  status: ('A' for Active; 'I' for Inactive)
REMARK    1  A    between atoms: N_1  and  C_2
REMARK    2  A    between atoms: C_2  and  C_3
REMARK    3  A    between atoms: N_8  and  C_9
REMARK    4  A    between atoms: C_9  and  C_10
REMARK    5  A    between atoms: C_10  and  C_11
REMARK                            x       y       z     vdW  Elec       q    Type
REMARK                         _______ _______ _______ _____ _____    ______ ____
ROOT
ATOM      1  C   UNL     1      47.005   7.378  12.976  0.00  0.00    +0.000 A 
ATOM      2  C   UNL     1      46.467   8.659  13.007  0.00  0.00    +0.000 A 
ATOM      3  C   UNL     1      45.329   8.901  12.254  0.00  0.00    +0.000 A 
ATOM      4  N   UNL     1      44.702   7.976  11.491  0.00  0.00    +0.000 NA
ATOM      5  C   UNL     1      45.221   6.733  11.460  0.00  0.00    +0.000 A 
ATOM      6  N   UNL     1      44.553   5.813  10.685  0.00  0.00    +0.000 N 
ATOM      7  C   UNL     1      46.362   6.415  12.190  0.00  0.00    +0.000 A 
ATOM      8  H   UNL     1      43.757   6.181  10.180  0.00  0.00    +0.000 HD
ENDROOT
BRANCH   1   9
ATOM      9  C   UNL     1      48.228   7.001  13.767  0.00  0.00    +0.000 C 
BRANCH   9  10
ATOM     10  N   UNL     1      49.306   6.548  12.897  0.00  0.00    +0.000 NA
ATOM     11  H   UNL     1      50.123   7.140  13.035  0.00  0.00    +0.000 HD
ATOM     12  H   UNL     1      49.023   6.666  11.926  0.00  0.00    +0.000 HD
ENDBRANCH   9  10
ENDBRANCH   1   9
BRANCH   6  13
ATOM     13  C   UNL     1      45.015   4.451  10.528  0.00  0.00    +0.000 C 
BRANCH  13  14
ATOM     14  C   UNL     1      44.354   3.736   9.352  0.00  0.00    +0.000 C 
BRANCH  14  15
ATOM     15  C   UNL     1      45.405   3.087   8.475  0.00  0.00    +0.000 A 
ATOM     16  C   UNL     1      46.251   3.876   7.683  0.00  0.00    +0.000 A 
ATOM     17  C   UNL     1      47.255   3.287   6.910  0.00  0.00    +0.000 A 
ATOM     18  C   UNL     1      47.427   1.903   6.925  0.00  0.00    +0.000 A 
ATOM     19  C   UNL     1      46.596   1.115   7.719  0.00  0.00    +0.000 A 
ATOM     20 CL   UNL     1      46.818  -0.593   7.748  0.00  0.00    +0.000 Cl
ATOM     21  C   UNL     1      45.592   1.697   8.494  0.00  0.00    +0.000 A 
ENDBRANCH  14  15
ENDBRANCH  13  14
ENDBRANCH   6  13
TORSDOF 5
ENDMDL
MODEL 5
REMARK VINA RESULT:    -6.319      2.087      3.777
REMARK INTER + INTRA:          -8.601
REMARK INTER:                  -8.256
REMARK INTRA:                  -0.345
REMARK UNBOUND:                -0.619
REMARK  Name = 
REMARK  5 active torsions:
REMARK  status: ('A' for Active; 'I' for Inactive)
REMARK    1  A    between atoms: N_1  and  C_2
REMARK    2  A    between atoms: C_2  and  C_3
REMARK    3  A    between atoms: N_8  and  C_9
REMARK    4  A    between atoms: C_9  and  C_10
REMARK    5  A    between atoms: C_10  and  C_11
REMARK                            x       y       z     vdW  Elec       q    Type
REMARK                         _______ _______ _______ _____ _____    ______ ____
ROOT
ATOM      1  C   UNL     1      44.293   4.305  12.279  0.00  0.00    +0.000 A 
ATOM      2  C   UNL     1      44.603   5.416  13.055  0.00  0.00    +0.000 A 
ATOM      3  C   UNL     1      45.314   6.445  12.458  0.00  0.00    +0.000 A 
ATOM      4  N   UNL     1      45.726   6.446  11.170  0.00  0.00    +0.000 NA
ATOM      5  C   UNL     1      45.426   5.372  10.414  0.00  0.00    +0.000 A 
ATOM      6  N   UNL     1      45.849   5.410   9.106  0.00  0.00    +0.000 N 
ATOM      7  C   UNL     1      44.715   4.300  10.945  0.00  0.00    +0.000 A 
ATOM      8  H   UNL     1      46.384   6.232   8.855  0.00  0.00    +0.000 HD
ENDROOT
BRANCH   1   9
ATOM      9  C   UNL     1      43.511   3.140  12.820  0.00  0.00    +0.000 C 
BRANCH   9  10
ATOM     10  N   UNL     1      43.032   2.276  11.747  0.00  0.00    +0.000 NA
ATOM     11  H   UNL     1      42.015   2.242  11.771  0.00  0.00    +0.000 HD
ATOM     12  H   UNL     1      43.359   1.326  11.913  0.00  0.00    +0.000 HD
ENDBRANCH   9  10
ENDBRANCH   1   9
BRANCH   6  13
ATOM     13  C   UNL     1      45.630   4.313   8.188  0.00  0.00    +0.000 C 
BRANCH  13  14
ATOM     14  C   UNL     1      46.738   4.186   7.145  0.00  0.00    +0.000 C 
BRANCH  14  15
ATOM     15  C   UNL     1      46.889   2.743   6.713  0.00  0.00    +0.000 A 
ATOM     16  C   UNL     1      46.941   1.719   7.671  0.00  0.00    +0.000 A 
ATOM     17  C   UNL     1      47.030   0.381   7.277  0.00  0.00    +0.000 A 
ATOM     18  C   UNL     1      47.064   0.052   5.922  0.00  0.00    +0.000 A 
ATOM     19  C   UNL     1      47.001   1.064   4.967  0.00  0.00    +0.000 A 
ATOM     20 CL   UNL     1      47.028   0.656   3.293  0.00  0.00    +0.000 Cl
ATOM     21  C   UNL     1      46.911   2.402   5.353  0.00  0.00    +0.000 A 
ENDBRANCH  14  15
ENDBRANCH  13  14
ENDBRANCH   6  13
TORSDOF 5
ENDMDL
MODEL 6
REMARK VINA RESULT:    -6.094      3.194      6.228
REMARK INTER + INTRA:          -8.316
REMARK INTER:                  -8.068
REMARK INTRA:                  -0.248
REMARK UNBOUND:                -0.619
REMARK  Name = 
REMARK  5 active torsions:
REMARK  status: ('A' for Active; 'I' for Inactive)
REMARK    1  A    between atoms: N_1  and  C_2
REMARK    2  A    between atoms: C_2  and  C_3
REMARK    3  A    between atoms: N_8  and  C_9
REMARK    4  A    between atoms: C_9  and  C_10
REMARK    5  A    between atoms: C_10  and  C_11
REMARK                            x       y       z     vdW  Elec       q    Type
REMARK                         _______ _______ _______ _____ _____    ______ ____
ROOT
ATOM      1  C   UNL     1      46.378   1.931   7.866  0.00  0.00    +0.000 A 
ATOM      2  C   UNL     1      46.890   2.938   7.056  0.00  0.00    +0.000 A 
ATOM      3  C   UNL     1      46.497   4.241   7.318  0.00  0.00    +0.000 A 
ATOM      4  N   UNL     1      45.650   4.603   8.309  0.00  0.00    +0.000 NA
ATOM      5  C   UNL     1      45.154   3.629   9.096  0.00  0.00    +0.000 A 
ATOM      6  N   UNL     1      44.305   4.032  10.102  0.00  0.00    +0.000 N 
ATOM      7  C   UNL     1      45.503   2.298   8.894  0.00  0.00    +0.000 A 
ATOM      8  H   UNL     1      44.108   5.024  10.120  0.00  0.00    +0.000 HD
ENDROOT
BRANCH   1   9
ATOM      9  C   UNL     1      46.751   0.485   7.682  0.00  0.00    +0.000 C 
BRANCH   9  10
ATOM     10  N   UNL     1      47.137   0.206   6.304  0.00  0.00    +0.000 NA
ATOM     11  H   UNL     1      46.747   0.920   5.693  0.00  0.00    +0.000 HD
ATOM     12  H   UNL     1      46.726  -0.680   6.016  0.00  0.00    +0.000 HD
ENDBRANCH   9  10
ENDBRANCH   1   9
BRANCH   6  13
ATOM     13  C   UNL     1      43.669   3.094  11.001  0.00  0.00    +0.000 C 
BRANCH  13  14
ATOM     14  C   UNL     1      43.495   3.653  12.411  0.00  0.00    +0.000 C 
BRANCH  14  15
ATOM     15  C   UNL     1      44.668   4.540  12.772  0.00  0.00    +0.000 A 
ATOM     16  C   UNL     1      45.908   3.974  13.104  0.00  0.00    +0.000 A 
ATOM     17  C   UNL     1      47.007   4.788  13.388  0.00  0.00    +0.000 A 
ATOM     18  C   UNL     1      46.880   6.177  13.340  0.00  0.00    +0.000 A 
ATOM     19  C   UNL     1      45.654   6.744  13.001  0.00  0.00    +0.000 A 
ATOM     20 CL   UNL     1      45.501   8.458  12.927  0.00  0.00    +0.000 Cl
ATOM     21  C   UNL     1      44.552   5.936  12.713  0.00  0.00    +0.000 A 
ENDBRANCH  14  15
ENDBRANCH  13  14
ENDBRANCH   6  13
TORSDOF 5
ENDMDL
MODEL 7
REMARK VINA RESULT:    -6.047      3.300      6.122
REMARK INTER + INTRA:          -8.256
REMARK INTER:                  -7.785
REMARK INTRA:                  -0.471
REMARK UNBOUND:                -0.619
REMARK  Name = 
REMARK  5 active torsions:
REMARK  status: ('A' for Active; 'I' for Inactive)
REMARK    1  A    between atoms: N_1  and  C_2
REMARK    2  A    between atoms: C_2  and  C_3
REMARK    3  A    between atoms: N_8  and  C_9
REMARK    4  A    between atoms: C_9  and  C_10
REMARK    5  A    between atoms: C_10  and  C_11
REMARK                            x       y       z     vdW  Elec       q    Type
REMARK                         _______ _______ _______ _____ _____    ______ ____
ROOT
ATOM      1  C   UNL     1      47.043   2.432   6.914  0.00  0.00    +0.000 A 
ATOM      2  C   UNL     1      47.203   1.057   7.038  0.00  0.00    +0.000 A 
ATOM      3  C   UNL     1      46.412   0.394   7.963  0.00  0.00    +0.000 A 
ATOM      4  N   UNL     1      45.492   0.992   8.754  0.00  0.00    +0.000 NA
ATOM      5  C   UNL     1      45.333   2.324   8.635  0.00  0.00    +0.000 A 
ATOM      6  N   UNL     1      44.381   2.899   9.445  0.00  0.00    +0.000 N 
ATOM      7  C   UNL     1      46.092   3.057   7.728  0.00  0.00    +0.000 A 
ATOM      8  H   UNL     1      43.922   2.261  10.082  0.00  0.00    +0.000 HD
ENDROOT
BRANCH   1   9
ATOM      9  C   UNL     1      47.837   3.248   5.931  0.00  0.00    +0.000 C 
BRANCH   9  10
ATOM     10  N   UNL     1      48.247   2.447   4.784  0.00  0.00    +0.000 NA
ATOM     11  H   UNL     1      47.683   2.700   3.976  0.00  0.00    +0.000 HD
ATOM     12  H   UNL     1      48.056   1.466   4.977  0.00  0.00    +0.000 HD
ENDBRANCH   9  10
ENDBRANCH   1   9
BRANCH   6  13
ATOM     13  C   UNL     1      44.127   4.324   9.452  0.00  0.00    +0.000 C 
BRANCH  13  14
ATOM     14  C   UNL     1      43.813   4.860  10.847  0.00  0.00    +0.000 C 
BRANCH  14  15
ATOM     15  C   UNL     1      45.090   5.257  11.556  0.00  0.00    +0.000 A 
ATOM     16  C   UNL     1      45.900   6.279  11.039  0.00  0.00    +0.000 A 
ATOM     17  C   UNL     1      47.053   6.684  11.715  0.00  0.00    +0.000 A 
ATOM     18  C   UNL     1      47.408   6.073  12.918  0.00  0.00    +0.000 A 
ATOM     19  C   UNL     1      46.603   5.065  13.442  0.00  0.00    +0.000 A 
ATOM     20 CL   UNL     1      47.034   4.321  14.935  0.00  0.00    +0.000 Cl
ATOM     21  C   UNL     1      45.448   4.657  12.772  0.00  0.00    +0.000 A 
ENDBRANCH  14  15
ENDBRANCH  13  14
ENDBRANCH   6  13
TORSDOF 5
ENDMDL
MODEL 8
REMARK VINA RESULT:    -5.991      2.885      5.628
REMARK INTER + INTRA:          -8.186
REMARK INTER:                  -7.511
REMARK INTRA:                  -0.675
REMARK UNBOUND:                -0.619
REMARK  Name = 
REMARK  5 active torsions:
REMARK  status: ('A' for Active; 'I' for Inactive)
REMARK    1  A    between atoms: N_1  and  C_2
REMARK    2  A    between atoms: C_2  and  C_3
REMARK    3  A    between atoms: N_8  and  C_9
REMARK    4  A    between atoms: C_9  and  C_10
REMARK    5  A    between atoms: C_10  and  C_11
REMARK                            x       y       z     vdW  Elec       q    Type
REMARK                         _______ _______ _______ _____ _____    ______ ____
ROOT
ATOM      1  C   UNL     1      45.857   3.610   8.342  0.00  0.00    +0.000 A 
ATOM      2  C   UNL     1      45.737   2.228   8.261  0.00  0.00    +0.000 A 
ATOM      3  C   UNL     1      44.803   1.610   9.077  0.00  0.00    +0.000 A 
ATOM      4  N   UNL     1      43.997   2.260   9.948  0.00  0.00    +0.000 NA
ATOM      5  C   UNL     1      44.109   3.600  10.028  0.00  0.00    +0.000 A 
ATOM      6  N   UNL     1      43.266   4.231  10.913  0.00  0.00    +0.000 N 
ATOM      7  C   UNL     1      45.025   4.289   9.239  0.00  0.00    +0.000 A 
ATOM      8  H   UNL     1      42.671   3.611  11.449  0.00  0.00    +0.000 HD
ENDROOT
BRANCH   1   9
ATOM      9  C   UNL     1      46.826   4.384   7.490  0.00  0.00    +0.000 C 
BRANCH   9  10
ATOM     10  N   UNL     1      46.782   3.945   6.101  0.00  0.00    +0.000 NA
ATOM     11  H   UNL     1      47.011   4.727   5.492  0.00  0.00    +0.000 HD
ATOM     12  H   UNL     1      45.830   3.665   5.870  0.00  0.00    +0.000 HD
ENDBRANCH   9  10
ENDBRANCH   1   9
BRANCH   6  13
ATOM     13  C   UNL     1      43.300   5.660  11.131  0.00  0.00    +0.000 C 
BRANCH  13  14
ATOM     14  C   UNL     1      43.615   6.030  12.579  0.00  0.00    +0.000 C 
BRANCH  14  15
ATOM     15  C   UNL     1      45.110   5.994  12.817  0.00  0.00    +0.000 A 
ATOM     16  C   UNL     1      45.679   4.976  13.596  0.00  0.00    +0.000 A 
ATOM     17  C   UNL     1      47.063   4.908  13.777  0.00  0.00    +0.000 A 
ATOM     18  C   UNL     1      47.893   5.856  13.178  0.00  0.00    +0.000 A 
ATOM     19  C   UNL     1      47.335   6.863  12.394  0.00  0.00    +0.000 A 
ATOM     20 CL   UNL     1      48.361   8.024  11.643  0.00  0.00    +0.000 Cl
ATOM     21  C   UNL     1      45.953   6.935  12.208  0.00  0.00    +0.000 A 
ENDBRANCH  14  15
ENDBRANCH  13  14
ENDBRANCH   6  13
TORSDOF 5
ENDMDL
MODEL 9
REMARK VINA RESULT:    -5.965      1.721      2.431
REMARK INTER + INTRA:          -8.153
REMARK INTER:                  -7.927
REMARK INTRA:                  -0.226
REMARK UNBOUND:                -0.619
REMARK  Name = 
REMARK  5 active torsions:
REMARK  status: ('A' for Active; 'I' for Inactive)
REMARK    1  A    between atoms: N_1  and  C_2
REMARK    2  A    between atoms: C_2  and  C_3
REMARK    3  A    between atoms: N_8  and  C_9
REMARK    4  A    between atoms: C_9  and  C_10
REMARK    5  A    between atoms: C_10  and  C_11
REMARK                            x       y       z     vdW  Elec       q    Type
REMARK                         _______ _______ _______ _____ _____    ______ ____
ROOT
ATOM      1  C   UNL     1      44.929   8.241  11.741  0.00  0.00    +0.000 A 
ATOM      2  C   UNL     1      45.952   8.447  12.660  0.00  0.00    +0.000 A 
ATOM      3  C   UNL     1      46.709   7.351  13.042  0.00  0.00    +0.000 A 
ATOM      4  N   UNL     1      46.524   6.092  12.581  0.00  0.00    +0.000 NA
ATOM      5  C   UNL     1      45.535   5.890  11.689  0.00  0.00    +0.000 A 
ATOM      6  N   UNL     1      45.381   4.602  11.232  0.00  0.00    +0.000 N 
ATOM      7  C   UNL     1      44.733   6.942  11.259  0.00  0.00    +0.000 A 
ATOM      8  H   UNL     1      46.008   3.925  11.648  0.00  0.00    +0.000 HD
ENDROOT
BRANCH   1   9
ATOM      9  C   UNL     1      44.058   9.362  11.245  0.00  0.00    +0.000 C 
BRANCH   9  10
ATOM     10  N   UNL     1      42.774   8.865  10.765  0.00  0.00    +0.000 NA
ATOM     11  H   UNL     1      42.687   7.877  10.993  0.00  0.00    +0.000 HD
ATOM     12  H   UNL     1      42.749   8.933   9.749  0.00  0.00    +0.000 HD
ENDBRANCH   9  10
ENDBRANCH   1   9
BRANCH   6  13
ATOM     13  C   UNL     1      44.338   4.229  10.301  0.00  0.00    +0.000 C 
BRANCH  13  14
ATOM     14  C   UNL     1      44.720   4.501   8.847  0.00  0.00    +0.000 C 
BRANCH  14  15
ATOM     15  C   UNL     1      45.484   3.325   8.277  0.00  0.00    +0.000 A 
ATOM     16  C   UNL     1      45.397   2.063   8.883  0.00  0.00    +0.000 A 
ATOM     17  C   UNL     1      46.060   0.963   8.333  0.00  0.00    +0.000 A 
ATOM     18  C   UNL     1      46.814   1.112   7.168  0.00  0.00    +0.000 A 
ATOM     19  C   UNL     1      46.895   2.360   6.556  0.00  0.00    +0.000 A 
ATOM     20 CL   UNL     1      47.814   2.541   5.111  0.00  0.00    +0.000 Cl
ATOM     21  C   UNL     1      46.234   3.463   7.100  0.00  0.00    +0.000 A 
ENDBRANCH  14  15
ENDBRANCH  13  14
ENDBRANCH   6  13
TORSDOF 5
ENDMDL
