MODEL 1
REMARK VINA RESULT:    -8.386      0.000      0.000
REMARK INTER + INTRA:         -13.109
REMARK INTER:                 -12.062
REMARK INTRA:                  -1.047
REMARK UNBOUND:                -1.047
REMARK  Name = 
REMARK  10 active torsions:
REMARK  status: ('A' for Active; 'I' for Inactive)
REMARK    1  A    between atoms: C_1  and  C_2
REMARK    2  A    between atoms: C_6  and  C_7
REMARK    3  A    between atoms: C_7  and  N_8
REMARK    4  A    between atoms: N_8  and  C_9
REMARK    5  A    between atoms: C_9  and  C_10
REMARK    6  A    between atoms: C_9  and  C_11
REMARK    7  A    between atoms: C_14  and  C_15
REMARK    8  A    between atoms: C_15  and  N_16
REMARK    9  A    between atoms: C_17  and  C_19
REMARK   10  A    between atoms: C_26  and  O_27
REMARK                            x       y       z     vdW  Elec       q    Type
REMARK                         _______ _______ _______ _____ _____    ______ ____
ROOT
ATOM      1  C   UNL     1      44.734   6.252  11.600  0.00  0.00    +0.000 A 
ATOM      2  C   UNL     1      45.765   5.379  11.976  0.00  0.00    +0.000 A 
ATOM      3  C   UNL     1      46.990   5.875  12.444  0.00  0.00    +0.000 A 
ATOM      4  C   UNL     1      47.207   7.255  12.559  0.00  0.00    +0.000 A 
ATOM      5  C   UNL     1      46.197   8.129  12.143  0.00  0.00    +0.000 A 
ATOM      6  C   UNL     1      44.975   7.634  11.679  0.00  0.00    +0.000 A 
ENDROOT
BRANCH   1   7
ATOM      7  C   UNL     1      43.383   5.716  11.129  0.00  0.00    +0.000 C 
ATOM      8  C   UNL     1      42.769   4.827  12.218  0.00  0.00    +0.000 C 
BRANCH   7   9
ATOM      9  N   UNL     1      43.558   5.013   9.848  0.00  0.00    +0.000 NA
ATOM     10  H   UNL     1      42.648   4.983   9.382  0.00  0.00    +0.000 HD
BRANCH   9  11
ATOM     11  C   UNL     1      44.022   3.626   9.990  0.00  0.00    +0.000 C 
BRANCH  11  17
ATOM     12  C   UNL     1      46.669   0.149   7.799  0.00  0.00    +0.000 C 
ATOM     13  C   UNL     1      46.339   1.607   7.913  0.00  0.00    +0.000 A 
ATOM     14  C   UNL     1      47.006   2.549   7.138  0.00  0.00    +0.000 A 
ATOM     15  C   UNL     1      46.683   3.892   7.293  0.00  0.00    +0.000 A 
ATOM     16  C   UNL     1      45.709   4.256   8.217  0.00  0.00    +0.000 A 
ATOM     17  C   UNL     1      45.075   3.258   8.956  0.00  0.00    +0.000 A 
ATOM     18  N   UNL     1      45.380   1.944   8.813  0.00  0.00    +0.000 NA
ENDBRANCH  11  17
ENDBRANCH   9  11
ENDBRANCH   7   9
ENDBRANCH   1   7
BRANCH   4  19
ATOM     19  C   UNL     1      48.507   7.796  13.102  0.00  0.00    +0.000 C 
BRANCH  19  20
ATOM     20  N   UNL     1      48.955   7.032  14.237  0.00  0.00    +0.000 N 
ATOM     21  C   UNL     1      48.789   7.479  15.523  0.00  0.00    +0.000 C 
ATOM     22  O   UNL     1      48.381   8.607  15.780  0.00  0.00    +0.000 OA
ATOM     23  H   UNL     1      49.136   6.049  14.079  0.00  0.00    +0.000 HD
BRANCH  21  24
ATOM     24  C   UNL     1      49.166   6.535  16.584  0.00  0.00    +0.000 A 
ATOM     25  C   UNL     1      50.192   6.852  17.464  0.00  0.00    +0.000 A 
ATOM     26  S   UNL     1      50.500   5.629  18.613  0.00  0.00    +0.000 S 
ATOM     27  C   UNL     1      49.246   4.663  17.996  0.00  0.00    +0.000 A 
ATOM     28  N   UNL     1      48.968   3.472  18.558  0.00  0.00    +0.000 NA
ATOM     29  C   UNL     1      47.950   2.844  17.962  0.00  0.00    +0.000 A 
ATOM     30  N   UNL     1      47.231   3.271  16.918  0.00  0.00    +0.000 NA
ATOM     31  C   UNL     1      47.560   4.458  16.407  0.00  0.00    +0.000 A 
ATOM     32  C   UNL     1      48.599   5.240  16.912  0.00  0.00    +0.000 A 
BRANCH  31  33
ATOM     33  O   UNL     1      46.795   4.826  15.339  0.00  0.00    +0.000 OA
ATOM     34  H   UNL     1      47.290   4.404  14.611  0.00  0.00    +0.000 HD
ENDBRANCH  31  33
ENDBRANCH  21  24
ENDBRANCH  19  20
ENDBRANCH   4  19
TORSDOF 8
ENDMDL
MODEL 2
REMARK VINA RESULT:    -8.137      1.961      2.339
REMARK INTER + INTRA:         -12.751
REMARK INTER:                 -11.446
REMARK INTRA:                  -1.305
REMARK UNBOUND:                -1.047
REMARK  Name = 
REMARK  10 active torsions:
REMARK  status: ('A' for Active; 'I' for Inactive)
REMARK    1  A    between atoms: C_1  and  C_2
REMARK    2  A    between atoms: C_6  and  C_7
REMARK    3  A    between atoms: C_7  and  N_8
REMARK    4  A    between atoms: N_8  and  C_9
REMARK    5  A    between atoms: C_9  and  C_10
REMARK    6  A    between atoms: C_9  and  C_11
REMARK    7  A    between atoms: C_14  and  C_15
REMARK    8  A    between atoms: C_15  and  N_16
REMARK    9  A    between atoms: C_17  and  C_19
REMARK   10  A    between atoms: C_26  and  O_27
REMARK                            x       y       z     vdW  Elec       q    Type
REMARK                         _______ _______ _______ _____ _____    ______ ____
ROOT
ATOM      1  C   UNL     1      44.758   5.964  11.860  0.00  0.00    +0.000 A 
ATOM      2  C   UNL     1      45.604   6.968  11.368  0.00  0.00    +0.000 A 
ATOM      3  C   UNL     1      46.866   7.185  11.939  0.00  0.00    +0.000 A 
ATOM      4  C   UNL     1      47.315   6.396  13.007  0.00  0.00    +0.000 A 
ATOM      5  C   UNL     1      46.455   5.423  13.528  0.00  0.00    +0.000 A 
ATOM      6  C   UNL     1      45.198   5.205  12.957  0.00  0.00    +0.000 A 
ENDROOT
BRANCH   1   7
ATOM      7  C   UNL     1      43.400   5.695  11.214  0.00  0.00    +0.000 C 
ATOM      8  C   UNL     1      42.510   4.908  12.186  0.00  0.00    +0.000 C 
BRANCH   7   9
ATOM      9  N   UNL     1      43.599   5.001   9.931  0.00  0.00    +0.000 NA
ATOM     10  H   UNL     1      42.690   4.934   9.468  0.00  0.00    +0.000 HD
BRANCH   9  11
ATOM     11  C   UNL     1      44.119   3.633  10.071  0.00  0.00    +0.000 C 
BRANCH  11  17
ATOM     12  C   UNL     1      46.715   0.210   7.738  0.00  0.00    +0.000 C 
ATOM     13  C   UNL     1      46.380   1.665   7.887  0.00  0.00    +0.000 A 
ATOM     14  C   UNL     1      47.016   2.624   7.107  0.00  0.00    +0.000 A 
ATOM     15  C   UNL     1      46.690   3.962   7.295  0.00  0.00    +0.000 A 
ATOM     16  C   UNL     1      45.744   4.304   8.255  0.00  0.00    +0.000 A 
ATOM     17  C   UNL     1      45.140   3.290   8.998  0.00  0.00    +0.000 A 
ATOM     18  N   UNL     1      45.448   1.981   8.823  0.00  0.00    +0.000 NA
ENDBRANCH  11  17
ENDBRANCH   9  11
ENDBRANCH   7   9
ENDBRANCH   1   7
BRANCH   4  19
ATOM     19  C   UNL     1      48.688   6.596  13.600  0.00  0.00    +0.000 C 
BRANCH  19  20
ATOM     20  N   UNL     1      48.609   7.214  14.897  0.00  0.00    +0.000 N 
ATOM     21  C   UNL     1      48.873   6.517  16.050  0.00  0.00    +0.000 C 
ATOM     22  O   UNL     1      49.053   5.304  16.058  0.00  0.00    +0.000 OA
ATOM     23  H   UNL     1      48.631   8.225  14.920  0.00  0.00    +0.000 HD
BRANCH  21  24
ATOM     24  C   UNL     1      48.890   7.309  17.287  0.00  0.00    +0.000 A 
ATOM     25  C   UNL     1      49.505   8.554  17.308  0.00  0.00    +0.000 A 
ATOM     26  S   UNL     1      49.441   9.314  18.834  0.00  0.00    +0.000 S 
ATOM     27  C   UNL     1      48.555   8.025  19.496  0.00  0.00    +0.000 A 
ATOM     28  N   UNL     1      48.159   8.064  20.782  0.00  0.00    +0.000 NA
ATOM     29  C   UNL     1      47.467   6.980  21.143  0.00  0.00    +0.000 A 
ATOM     30  N   UNL     1      47.155   5.923  20.382  0.00  0.00    +0.000 NA
ATOM     31  C   UNL     1      47.580   5.948  19.119  0.00  0.00    +0.000 A 
ATOM     32  C   UNL     1      48.317   7.004  18.586  0.00  0.00    +0.000 A 
BRANCH  31  33
ATOM     33  O   UNL     1      47.238   4.836  18.404  0.00  0.00    +0.000 OA
ATOM     34  H   UNL     1      46.890   5.247  17.590  0.00  0.00    +0.000 HD
ENDBRANCH  31  33
ENDBRANCH  21  24
ENDBRANCH  19  20
ENDBRANCH   4  19
TORSDOF 8
ENDMDL
MODEL 3
REMARK VINA RESULT:    -7.972      2.316      2.947
REMARK INTER + INTRA:         -12.514
REMARK INTER:                 -11.306
REMARK INTRA:                  -1.208
REMARK UNBOUND:                -1.047
REMARK  Name = 
REMARK  10 active torsions:
REMARK  status: ('A' for Active; 'I' for Inactive)
REMARK    1  A    between atoms: C_1  and  C_2
REMARK    2  A    between atoms: C_6  and  C_7
REMARK    3  A    between atoms: C_7  and  N_8
REMARK    4  A    between atoms: N_8  and  C_9
REMARK    5  A    between atoms: C_9  and  C_10
REMARK    6  A    between atoms: C_9  and  C_11
REMARK    7  A    between atoms: C_14  and  C_15
REMARK    8  A    between atoms: C_15  and  N_16
REMARK    9  A    between atoms: C_17  and  C_19
REMARK   10  A    between atoms: C_26  and  O_27
REMARK                            x       y       z     vdW  Elec       q    Type
REMARK                         _______ _______ _______ _____ _____    ______ ____
ROOT
ATOM      1  C   UNL     1      45.012   5.513  11.809  0.00  0.00    +0.000 A 
ATOM      2  C   UNL     1      45.304   4.757  12.953  0.00  0.00    +0.000 A 
ATOM      3  C   UNL     1      46.430   5.048  13.737  0.00  0.00    +0.000 A 
ATOM      4  C   UNL     1      47.282   6.109  13.401  0.00  0.00    +0.000 A 
ATOM      5  C   UNL     1      47.018   6.836  12.236  0.00  0.00    +0.000 A 
ATOM      6  C   UNL     1      45.895   6.548  11.456  0.00  0.00    +0.000 A 
ENDROOT
BRANCH   1   7
ATOM      7  C   UNL     1      43.765   5.227  10.975  0.00  0.00    +0.000 C 
ATOM      8  C   UNL     1      42.838   4.271  11.738  0.00  0.00    +0.000 C 
BRANCH   7   9
ATOM      9  N   UNL     1      44.167   4.704   9.659  0.00  0.00    +0.000 NA
ATOM     10  H   UNL     1      43.441   4.959   8.986  0.00  0.00    +0.000 HD
BRANCH   9  11
ATOM     11  C   UNL     1      44.306   3.242   9.618  0.00  0.00    +0.000 C 
BRANCH  11  17
ATOM     12  C   UNL     1      46.872  -0.431   7.664  0.00  0.00    +0.000 C 
ATOM     13  C   UNL     1      46.613   1.045   7.718  0.00  0.00    +0.000 A 
ATOM     14  C   UNL     1      47.365   1.927   6.951  0.00  0.00    +0.000 A 
ATOM     15  C   UNL     1      47.104   3.289   7.051  0.00  0.00    +0.000 A 
ATOM     16  C   UNL     1      46.107   3.730   7.913  0.00  0.00    +0.000 A 
ATOM     17  C   UNL     1      45.388   2.790   8.649  0.00  0.00    +0.000 A 
ATOM     18  N   UNL     1      45.631   1.458   8.560  0.00  0.00    +0.000 NA
ENDBRANCH  11  17
ENDBRANCH   9  11
ENDBRANCH   7   9
ENDBRANCH   1   7
BRANCH   4  19
ATOM     19  C   UNL     1      48.472   6.454  14.263  0.00  0.00    +0.000 C 
BRANCH  19  20
ATOM     20  N   UNL     1      48.092   6.588  15.645  0.00  0.00    +0.000 N 
ATOM     21  C   UNL     1      48.865   6.087  16.662  0.00  0.00    +0.000 C 
ATOM     22  O   UNL     1      49.846   5.381  16.455  0.00  0.00    +0.000 OA
ATOM     23  H   UNL     1      47.398   7.292  15.858  0.00  0.00    +0.000 HD
BRANCH  21  24
ATOM     24  C   UNL     1      48.426   6.418  18.024  0.00  0.00    +0.000 A 
ATOM     25  C   UNL     1      48.345   5.424  18.990  0.00  0.00    +0.000 A 
ATOM     26  S   UNL     1      47.800   5.993  20.503  0.00  0.00    +0.000 S 
ATOM     27  C   UNL     1      47.699   7.587  19.924  0.00  0.00    +0.000 A 
ATOM     28  N   UNL     1      47.308   8.581  20.742  0.00  0.00    +0.000 NA
ATOM     29  C   UNL     1      47.291   9.772  20.137  0.00  0.00    +0.000 A 
ATOM     30  N   UNL     1      47.608  10.043  18.865  0.00  0.00    +0.000 NA
ATOM     31  C   UNL     1      47.985   9.011  18.108  0.00  0.00    +0.000 A 
ATOM     32  C   UNL     1      48.054   7.703  18.587  0.00  0.00    +0.000 A 
BRANCH  31  33
ATOM     33  O   UNL     1      48.282   9.355  16.822  0.00  0.00    +0.000 OA
ATOM     34  H   UNL     1      47.710   8.732  16.333  0.00  0.00    +0.000 HD
ENDBRANCH  31  33
ENDBRANCH  21  24
ENDBRANCH  19  20
ENDBRANCH   4  19
TORSDOF 8
ENDMDL
MODEL 4
REMARK VINA RESULT:    -7.755      2.937      5.051
REMARK INTER + INTRA:         -12.202
REMARK INTER:                 -11.105
REMARK INTRA:                  -1.097
REMARK UNBOUND:                -1.047
REMARK  Name = 
REMARK  10 active torsions:
REMARK  status: ('A' for Active; 'I' for Inactive)
REMARK    1  A    between atoms: C_1  and  C_2
REMARK    2  A    between atoms: C_6  and  C_7
REMARK    3  A    between atoms: C_7  and  N_8
REMARK    4  A    between atoms: N_8  and  C_9
REMARK    5  A    between atoms: C_9  and  C_10
REMARK    6  A    between atoms: C_9  and  C_11
REMARK    7  A    between atoms: C_14  and  C_15
REMARK    8  A    between atoms: C_15  and  N_16
REMARK    9  A    between atoms: C_17  and  C_19
REMARK   10  A    between atoms: C_26  and  O_27
REMARK                            x       y       z     vdW  Elec       q    Type
REMARK                         _______ _______ _______ _____ _____    ______ ____
ROOT
ATOM      1  C   UNL     1      45.633   2.636   8.049  0.00  0.00    +0.000 A 
ATOM      2  C   UNL     1      45.865   4.018   8.102  0.00  0.00    +0.000 A 
ATOM      3  C   UNL     1      45.355   4.791   9.155  0.00  0.00    +0.000 A 
ATOM      4  C   UNL     1      44.612   4.197  10.186  0.00  0.00    +0.000 A 
ATOM      5  C   UNL     1      44.342   2.826  10.112  0.00  0.00    +0.000 A 
ATOM      6  C   UNL     1      44.853   2.056   9.063  0.00  0.00    +0.000 A 
ENDROOT
BRANCH   1   7
ATOM      7  C   UNL     1      46.222   1.783   6.927  0.00  0.00    +0.000 C 
ATOM      8  C   UNL     1      47.338   0.890   7.485  0.00  0.00    +0.000 C 
BRANCH   7   9
ATOM      9  N   UNL     1      46.683   2.661   5.838  0.00  0.00    +0.000 NA
ATOM     10  H   UNL     1      45.861   2.957   5.307  0.00  0.00    +0.000 HD
BRANCH   9  11
ATOM     11  C   UNL     1      47.601   2.006   4.896  0.00  0.00    +0.000 C 
BRANCH  11  17
ATOM     12  C   UNL     1      47.223  -2.528   3.109  0.00  0.00    +0.000 C 
ATOM     13  C   UNL     1      46.703  -1.121   3.116  0.00  0.00    +0.000 A 
ATOM     14  C   UNL     1      45.656  -0.747   2.280  0.00  0.00    +0.000 A 
ATOM     15  C   UNL     1      45.222   0.574   2.304  0.00  0.00    +0.000 A 
ATOM     16  C   UNL     1      45.845   1.480   3.156  0.00  0.00    +0.000 A 
ATOM     17  C   UNL     1      46.885   1.035   3.971  0.00  0.00    +0.000 A 
ATOM     18  N   UNL     1      47.317  -0.251   3.958  0.00  0.00    +0.000 NA
ENDBRANCH  11  17
ENDBRANCH   9  11
ENDBRANCH   7   9
ENDBRANCH   1   7
BRANCH   4  19
ATOM     19  C   UNL     1      44.096   5.015  11.344  0.00  0.00    +0.000 C 
BRANCH  19  20
ATOM     20  N   UNL     1      45.175   5.645  12.058  0.00  0.00    +0.000 N 
ATOM     21  C   UNL     1      45.918   4.969  12.993  0.00  0.00    +0.000 C 
ATOM     22  O   UNL     1      45.625   3.842  13.376  0.00  0.00    +0.000 OA
ATOM     23  H   UNL     1      45.548   6.497  11.658  0.00  0.00    +0.000 HD
BRANCH  21  24
ATOM     24  C   UNL     1      47.074   5.693  13.539  0.00  0.00    +0.000 A 
ATOM     25  C   UNL     1      47.642   6.739  12.823  0.00  0.00    +0.000 A 
ATOM     26  S   UNL     1      48.982   7.446  13.606  0.00  0.00    +0.000 S 
ATOM     27  C   UNL     1      48.815   6.408  14.940  0.00  0.00    +0.000 A 
ATOM     28  N   UNL     1      49.653   6.510  15.988  0.00  0.00    +0.000 NA
ATOM     29  C   UNL     1      49.381   5.630  16.955  0.00  0.00    +0.000 A 
ATOM     30  N   UNL     1      48.408   4.711  16.969  0.00  0.00    +0.000 NA
ATOM     31  C   UNL     1      47.614   4.662  15.899  0.00  0.00    +0.000 A 
ATOM     32  C   UNL     1      47.766   5.509  14.802  0.00  0.00    +0.000 A 
BRANCH  31  33
ATOM     33  O   UNL     1      46.653   3.696  15.973  0.00  0.00    +0.000 OA
ATOM     34  H   UNL     1      46.693   3.334  15.067  0.00  0.00    +0.000 HD
ENDBRANCH  31  33
ENDBRANCH  21  24
ENDBRANCH  19  20
ENDBRANCH   4  19
TORSDOF 8
ENDMDL
MODEL 5
REMARK VINA RESULT:    -7.579      3.463      6.525
REMARK INTER + INTRA:         -11.949
REMARK INTER:                 -10.888
REMARK INTRA:                  -1.061
REMARK UNBOUND:                -1.047
REMARK  Name = 
REMARK  10 active torsions:
REMARK  status: ('A' for Active; 'I' for Inactive)
REMARK    1  A    between atoms: C_1  and  C_2
REMARK    2  A    between atoms: C_6  and  C_7
REMARK    3  A    between atoms: C_7  and  N_8
REMARK    4  A    between atoms: N_8  and  C_9
REMARK    5  A    between atoms: C_9  and  C_10
REMARK    6  A    between atoms: C_9  and  C_11
REMARK    7  A    between atoms: C_14  and  C_15
REMARK    8  A    between atoms: C_15  and  N_16
REMARK    9  A    between atoms: C_17  and  C_19
REMARK   10  A    between atoms: C_26  and  O_27
REMARK                            x       y       z     vdW  Elec       q    Type
REMARK                         _______ _______ _______ _____ _____    ______ ____
ROOT
ATOM      1  C   UNL     1      46.630   2.111   7.131  0.00  0.00    +0.000 A 
ATOM      2  C   UNL     1      46.340   3.482   7.142  0.00  0.00    +0.000 A 
ATOM      3  C   UNL     1      45.480   4.025   8.108  0.00  0.00    +0.000 A 
ATOM      4  C   UNL     1      44.903   3.211   9.093  0.00  0.00    +0.000 A 
ATOM      5  C   UNL     1      45.156   1.835   9.056  0.00  0.00    +0.000 A 
ATOM      6  C   UNL     1      46.014   1.295   8.094  0.00  0.00    +0.000 A 
ENDROOT
BRANCH   1   7
ATOM      7  C   UNL     1      47.598   1.521   6.106  0.00  0.00    +0.000 C 
ATOM      8  C   UNL     1      47.766   2.493   4.931  0.00  0.00    +0.000 C 
BRANCH   7   9
ATOM      9  N   UNL     1      47.114   0.195   5.686  0.00  0.00    +0.000 NA
ATOM     10  H   UNL     1      47.852  -0.484   5.884  0.00  0.00    +0.000 HD
BRANCH   9  11
ATOM     11  C   UNL     1      46.808   0.102   4.252  0.00  0.00    +0.000 C 
BRANCH  11  17
ATOM     12  C   UNL     1      46.278  -4.727   4.797  0.00  0.00    +0.000 C 
ATOM     13  C   UNL     1      46.791  -3.595   3.957  0.00  0.00    +0.000 A 
ATOM     14  C   UNL     1      47.475  -3.844   2.772  0.00  0.00    +0.000 A 
ATOM     15  C   UNL     1      47.952  -2.764   2.038  0.00  0.00    +0.000 A 
ATOM     16  C   UNL     1      47.737  -1.473   2.507  0.00  0.00    +0.000 A 
ATOM     17  C   UNL     1      47.039  -1.297   3.700  0.00  0.00    +0.000 A 
ATOM     18  N   UNL     1      46.566  -2.341   4.426  0.00  0.00    +0.000 NA
ENDBRANCH  11  17
ENDBRANCH   9  11
ENDBRANCH   7   9
ENDBRANCH   1   7
BRANCH   4  19
ATOM     19  C   UNL     1      44.011   3.794  10.161  0.00  0.00    +0.000 C 
BRANCH  19  20
ATOM     20  N   UNL     1      44.573   5.003  10.704  0.00  0.00    +0.000 N 
ATOM     21  C   UNL     1      44.827   5.146  12.045  0.00  0.00    +0.000 C 
ATOM     22  O   UNL     1      44.466   4.318  12.874  0.00  0.00    +0.000 OA
ATOM     23  H   UNL     1      45.030   5.625  10.050  0.00  0.00    +0.000 HD
BRANCH  21  24
ATOM     24  C   UNL     1      45.528   6.376  12.437  0.00  0.00    +0.000 A 
ATOM     25  C   UNL     1      45.046   7.612  12.029  0.00  0.00    +0.000 A 
ATOM     26  S   UNL     1      46.000   8.921  12.564  0.00  0.00    +0.000 S 
ATOM     27  C   UNL     1      47.057   7.879  13.389  0.00  0.00    +0.000 A 
ATOM     28  N   UNL     1      48.098   8.378  14.083  0.00  0.00    +0.000 NA
ATOM     29  C   UNL     1      48.824   7.429  14.680  0.00  0.00    +0.000 A 
ATOM     30  N   UNL     1      48.620   6.107  14.647  0.00  0.00    +0.000 NA
ATOM     31  C   UNL     1      47.573   5.679  13.940  0.00  0.00    +0.000 A 
ATOM     32  C   UNL     1      46.716   6.540  13.255  0.00  0.00    +0.000 A 
BRANCH  31  33
ATOM     33  O   UNL     1      47.430   4.322  13.939  0.00  0.00    +0.000 OA
ATOM     34  H   UNL     1      46.617   4.228  13.407  0.00  0.00    +0.000 HD
ENDBRANCH  31  33
ENDBRANCH  21  24
ENDBRANCH  19  20
ENDBRANCH   4  19
TORSDOF 8
ENDMDL
MODEL 6
REMARK VINA RESULT:    -7.443      1.378      2.438
REMARK INTER + INTRA:         -11.753
REMARK INTER:                 -10.295
REMARK INTRA:                  -1.458
REMARK UNBOUND:                -1.047
REMARK  Name = 
REMARK  10 active torsions:
REMARK  status: ('A' for Active; 'I' for Inactive)
REMARK    1  A    between atoms: C_1  and  C_2
REMARK    2  A    between atoms: C_6  and  C_7
REMARK    3  A    between atoms: C_7  and  N_8
REMARK    4  A    between atoms: N_8  and  C_9
REMARK    5  A    between atoms: C_9  and  C_10
REMARK    6  A    between atoms: C_9  and  C_11
REMARK    7  A    between atoms: C_14  and  C_15
REMARK    8  A    between atoms: C_15  and  N_16
REMARK    9  A    between atoms: C_17  and  C_19
REMARK   10  A    between atoms: C_26  and  O_27
REMARK                            x       y       z     vdW  Elec       q    Type
REMARK                         _______ _______ _______ _____ _____    ______ ____
ROOT
ATOM      1  C   UNL     1      46.081   7.914  11.884  0.00  0.00    +0.000 A 
ATOM      2  C   UNL     1      46.912   6.786  11.824  0.00  0.00    +0.000 A 
ATOM      3  C   UNL     1      48.188   6.805  12.404  0.00  0.00    +0.000 A 
ATOM      4  C   UNL     1      48.658   7.946  13.068  0.00  0.00    +0.000 A 
ATOM      5  C   UNL     1      47.849   9.088  13.091  0.00  0.00    +0.000 A 
ATOM      6  C   UNL     1      46.575   9.068  12.515  0.00  0.00    +0.000 A 
ENDROOT
BRANCH   1   7
ATOM      7  C   UNL     1      44.674   7.886  11.291  0.00  0.00    +0.000 C 
ATOM      8  C   UNL     1      44.107   9.311  11.232  0.00  0.00    +0.000 C 
BRANCH   7   9
ATOM      9  N   UNL     1      43.832   6.969  12.077  0.00  0.00    +0.000 NA
ATOM     10  H   UNL     1      44.448   6.287  12.526  0.00  0.00    +0.000 HD
BRANCH   9  11
ATOM     11  C   UNL     1      42.861   6.215  11.270  0.00  0.00    +0.000 C 
BRANCH  11  17
ATOM     12  C   UNL     1      45.148   3.522   7.892  0.00  0.00    +0.000 C 
ATOM     13  C   UNL     1      44.481   3.572   9.234  0.00  0.00    +0.000 A 
ATOM     14  C   UNL     1      44.334   2.419   9.998  0.00  0.00    +0.000 A 
ATOM     15  C   UNL     1      43.690   2.509  11.226  0.00  0.00    +0.000 A 
ATOM     16  C   UNL     1      43.209   3.741  11.655  0.00  0.00    +0.000 A 
ATOM     17  C   UNL     1      43.396   4.857  10.841  0.00  0.00    +0.000 A 
ATOM     18  N   UNL     1      44.024   4.784   9.641  0.00  0.00    +0.000 NA
ENDBRANCH  11  17
ENDBRANCH   9  11
ENDBRANCH   7   9
ENDBRANCH   1   7
BRANCH   4  19
ATOM     19  C   UNL     1      50.013   7.959  13.731  0.00  0.00    +0.000 C 
BRANCH  19  20
ATOM     20  N   UNL     1      50.077   7.002  14.803  0.00  0.00    +0.000 N 
ATOM     21  C   UNL     1      49.714   7.325  16.086  0.00  0.00    +0.000 C 
ATOM     22  O   UNL     1      49.449   8.473  16.426  0.00  0.00    +0.000 OA
ATOM     23  H   UNL     1      50.125   6.026  14.538  0.00  0.00    +0.000 HD
BRANCH  21  24
ATOM     24  C   UNL     1      49.696   6.213  17.047  0.00  0.00    +0.000 A 
ATOM     25  C   UNL     1      50.612   6.181  18.090  0.00  0.00    +0.000 A 
ATOM     26  S   UNL     1      50.451   4.808  19.090  0.00  0.00    +0.000 S 
ATOM     27  C   UNL     1      49.129   4.242  18.186  0.00  0.00    +0.000 A 
ATOM     28  N   UNL     1      48.506   3.101  18.536  0.00  0.00    +0.000 NA
ATOM     29  C   UNL     1      47.484   2.802  17.731  0.00  0.00    +0.000 A 
ATOM     30  N   UNL     1      47.054   3.495  16.670  0.00  0.00    +0.000 NA
ATOM     31  C   UNL     1      47.717   4.615  16.376  0.00  0.00    +0.000 A 
ATOM     32  C   UNL     1      48.810   5.066  17.116  0.00  0.00    +0.000 A 
BRANCH  31  33
ATOM     33  O   UNL     1      47.235   5.264  15.277  0.00  0.00    +0.000 OA
ATOM     34  H   UNL     1      48.000   5.828  15.053  0.00  0.00    +0.000 HD
ENDBRANCH  31  33
ENDBRANCH  21  24
ENDBRANCH  19  20
ENDBRANCH   4  19
TORSDOF 8
ENDMDL
MODEL 7
REMARK VINA RESULT:    -7.319      2.746      8.032
REMARK INTER + INTRA:         -11.574
REMARK INTER:                  -9.792
REMARK INTRA:                  -1.782
REMARK UNBOUND:                -1.047
REMARK  Name = 
REMARK  10 active torsions:
REMARK  status: ('A' for Active; 'I' for Inactive)
REMARK    1  A    between atoms: C_1  and  C_2
REMARK    2  A    between atoms: C_6  and  C_7
REMARK    3  A    between atoms: C_7  and  N_8
REMARK    4  A    between atoms: N_8  and  C_9
REMARK    5  A    between atoms: C_9  and  C_10
REMARK    6  A    between atoms: C_9  and  C_11
REMARK    7  A    between atoms: C_14  and  C_15
REMARK    8  A    between atoms: C_15  and  N_16
REMARK    9  A    between atoms: C_17  and  C_19
REMARK   10  A    between atoms: C_26  and  O_27
REMARK                            x       y       z     vdW  Elec       q    Type
REMARK                         _______ _______ _______ _____ _____    ______ ____
ROOT
ATOM      1  C   UNL     1      49.848   8.290  15.573  0.00  0.00    +0.000 A 
ATOM      2  C   UNL     1      48.498   8.668  15.563  0.00  0.00    +0.000 A 
ATOM      3  C   UNL     1      47.745   8.603  14.382  0.00  0.00    +0.000 A 
ATOM      4  C   UNL     1      48.321   8.146  13.188  0.00  0.00    +0.000 A 
ATOM      5  C   UNL     1      49.679   7.811  13.186  0.00  0.00    +0.000 A 
ATOM      6  C   UNL     1      50.429   7.874  14.364  0.00  0.00    +0.000 A 
ENDROOT
BRANCH   1   7
ATOM      7  C   UNL     1      50.662   8.319  16.866  0.00  0.00    +0.000 C 
ATOM      8  C   UNL     1      52.135   8.023  16.558  0.00  0.00    +0.000 C 
BRANCH   7   9
ATOM      9  N   UNL     1      50.078   7.372  17.831  0.00  0.00    +0.000 NA
ATOM     10  H   UNL     1      50.330   7.689  18.770  0.00  0.00    +0.000 HD
BRANCH   9  11
ATOM     11  C   UNL     1      50.574   5.996  17.686  0.00  0.00    +0.000 C 
BRANCH  11  17
ATOM     12  C   UNL     1      46.942   4.409  14.825  0.00  0.00    +0.000 C 
ATOM     13  C   UNL     1      47.719   4.241  16.097  0.00  0.00    +0.000 A 
ATOM     14  C   UNL     1      47.379   3.250  17.011  0.00  0.00    +0.000 A 
ATOM     15  C   UNL     1      48.114   3.145  18.187  0.00  0.00    +0.000 A 
ATOM     16  C   UNL     1      49.161   4.032  18.417  0.00  0.00    +0.000 A 
ATOM     17  C   UNL     1      49.450   4.997  17.454  0.00  0.00    +0.000 A 
ATOM     18  N   UNL     1      48.742   5.109  16.302  0.00  0.00    +0.000 NA
ENDBRANCH  11  17
ENDBRANCH   9  11
ENDBRANCH   7   9
ENDBRANCH   1   7
BRANCH   4  19
ATOM     19  C   UNL     1      47.506   8.034  11.923  0.00  0.00    +0.000 C 
BRANCH  19  20
ATOM     20  N   UNL     1      46.813   6.774  11.861  0.00  0.00    +0.000 N 
ATOM     21  C   UNL     1      45.444   6.695  11.904  0.00  0.00    +0.000 C 
ATOM     22  O   UNL     1      44.737   7.669  12.137  0.00  0.00    +0.000 OA
ATOM     23  H   UNL     1      47.339   5.985  11.507  0.00  0.00    +0.000 HD
BRANCH  21  24
ATOM     24  C   UNL     1      44.871   5.359  11.691  0.00  0.00    +0.000 A 
ATOM     25  C   UNL     1      44.155   4.739  12.706  0.00  0.00    +0.000 A 
ATOM     26  S   UNL     1      43.584   3.189  12.282  0.00  0.00    +0.000 S 
ATOM     27  C   UNL     1      44.238   3.319  10.720  0.00  0.00    +0.000 A 
ATOM     28  N   UNL     1      44.080   2.320   9.832  0.00  0.00    +0.000 NA
ATOM     29  C   UNL     1      44.644   2.584   8.651  0.00  0.00    +0.000 A 
ATOM     30  N   UNL     1      45.314   3.687   8.297  0.00  0.00    +0.000 NA
ATOM     31  C   UNL     1      45.436   4.638   9.224  0.00  0.00    +0.000 A 
ATOM     32  C   UNL     1      44.907   4.517  10.509  0.00  0.00    +0.000 A 
BRANCH  31  33
ATOM     33  O   UNL     1      46.139   5.728   8.802  0.00  0.00    +0.000 OA
ATOM     34  H   UNL     1      45.409   6.339   8.584  0.00  0.00    +0.000 HD
ENDBRANCH  31  33
ENDBRANCH  21  24
ENDBRANCH  19  20
ENDBRANCH   4  19
TORSDOF 8
ENDMDL
MODEL 8
REMARK VINA RESULT:    -7.268      2.126      3.171
REMARK INTER + INTRA:         -11.501
REMARK INTER:                 -10.428
REMARK INTRA:                  -1.073
REMARK UNBOUND:                -1.047
REMARK  Name = 
REMARK  10 active torsions:
REMARK  status: ('A' for Active; 'I' for Inactive)
REMARK    1  A    between atoms: C_1  and  C_2
REMARK    2  A    between atoms: C_6  and  C_7
REMARK    3  A    between atoms: C_7  and  N_8
REMARK    4  A    between atoms: N_8  and  C_9
REMARK    5  A    between atoms: C_9  and  C_10
REMARK    6  A    between atoms: C_9  and  C_11
REMARK    7  A    between atoms: C_14  and  C_15
REMARK    8  A    between atoms: C_15  and  N_16
REMARK    9  A    between atoms: C_17  and  C_19
REMARK   10  A    between atoms: C_26  and  O_27
REMARK                            x       y       z     vdW  Elec       q    Type
REMARK                         _______ _______ _______ _____ _____    ______ ____
ROOT
ATOM      1  C   UNL     1      45.504   5.047  11.809  0.00  0.00    +0.000 A 
ATOM      2  C   UNL     1      45.423   3.688  12.147  0.00  0.00    +0.000 A 
ATOM      3  C   UNL     1      46.122   3.181  13.251  0.00  0.00    +0.000 A 
ATOM      4  C   UNL     1      46.907   4.023  14.052  0.00  0.00    +0.000 A 
ATOM      5  C   UNL     1      47.025   5.370  13.691  0.00  0.00    +0.000 A 
ATOM      6  C   UNL     1      46.326   5.875  12.591  0.00  0.00    +0.000 A 
ENDROOT
BRANCH   1   7
ATOM      7  C   UNL     1      44.712   5.613  10.632  0.00  0.00    +0.000 C 
ATOM      8  C   UNL     1      43.260   5.124  10.701  0.00  0.00    +0.000 C 
BRANCH   7   9
ATOM      9  N   UNL     1      45.380   5.243   9.373  0.00  0.00    +0.000 NA
ATOM     10  H   UNL     1      45.271   6.023   8.721  0.00  0.00    +0.000 HD
BRANCH   9  11
ATOM     11  C   UNL     1      44.813   4.051   8.727  0.00  0.00    +0.000 C 
BRANCH  11  17
ATOM     12  C   UNL     1      46.755  -0.340   7.812  0.00  0.00    +0.000 C 
ATOM     13  C   UNL     1      46.797   1.139   7.569  0.00  0.00    +0.000 A 
ATOM     14  C   UNL     1      47.782   1.699   6.763  0.00  0.00    +0.000 A 
ATOM     15  C   UNL     1      47.795   3.078   6.585  0.00  0.00    +0.000 A 
ATOM     16  C   UNL     1      46.830   3.855   7.216  0.00  0.00    +0.000 A 
ATOM     17  C   UNL     1      45.868   3.227   8.005  0.00  0.00    +0.000 A 
ATOM     18  N   UNL     1      45.843   1.883   8.186  0.00  0.00    +0.000 NA
ENDBRANCH  11  17
ENDBRANCH   9  11
ENDBRANCH   7   9
ENDBRANCH   1   7
BRANCH   4  19
ATOM     19  C   UNL     1      47.628   3.493  15.266  0.00  0.00    +0.000 C 
BRANCH  19  20
ATOM     20  N   UNL     1      47.915   4.548  16.202  0.00  0.00    +0.000 N 
ATOM     21  C   UNL     1      47.535   4.473  17.519  0.00  0.00    +0.000 C 
ATOM     22  O   UNL     1      46.814   3.578  17.945  0.00  0.00    +0.000 OA
ATOM     23  H   UNL     1      48.636   5.206  15.937  0.00  0.00    +0.000 HD
BRANCH  21  24
ATOM     24  C   UNL     1      48.016   5.556  18.388  0.00  0.00    +0.000 A 
ATOM     25  C   UNL     1      47.131   6.221  19.226  0.00  0.00    +0.000 A 
ATOM     26  S   UNL     1      47.866   7.456  20.143  0.00  0.00    +0.000 S 
ATOM     27  C   UNL     1      49.392   7.111  19.481  0.00  0.00    +0.000 A 
ATOM     28  N   UNL     1      50.474   7.809  19.870  0.00  0.00    +0.000 NA
ATOM     29  C   UNL     1      51.594   7.408  19.263  0.00  0.00    +0.000 A 
ATOM     30  N   UNL     1      51.723   6.432  18.356  0.00  0.00    +0.000 NA
ATOM     31  C   UNL     1      50.611   5.781  18.013  0.00  0.00    +0.000 A 
ATOM     32  C   UNL     1      49.360   6.080  18.552  0.00  0.00    +0.000 A 
BRANCH  31  33
ATOM     33  O   UNL     1      50.812   4.810  17.076  0.00  0.00    +0.000 OA
ATOM     34  H   UNL     1      50.260   5.149  16.345  0.00  0.00    +0.000 HD
ENDBRANCH  31  33
ENDBRANCH  21  24
ENDBRANCH  19  20
ENDBRANCH   4  19
TORSDOF 8
ENDMDL
MODEL 9
REMARK VINA RESULT:    -6.994      3.319      9.160
REMARK INTER + INTRA:         -11.107
REMARK INTER:                  -9.304
REMARK INTRA:                  -1.803
REMARK UNBOUND:                -1.047
REMARK  Name = 
REMARK  10 active torsions:
REMARK  status: ('A' for Active; 'I' for Inactive)
REMARK    1  A    between atoms: C_1  and  C_2
REMARK    2  A    between atoms: C_6  and  C_7
REMARK    3  A    between atoms: C_7  and  N_8
REMARK    4  A    between atoms: N_8  and  C_9
REMARK    5  A    between atoms: C_9  and  C_10
REMARK    6  A    between atoms: C_9  and  C_11
REMARK    7  A    between atoms: C_14  and  C_15
REMARK    8  A    between atoms: C_15  and  N_16
REMARK    9  A    between atoms: C_17  and  C_19
REMARK   10  A    between atoms: C_26  and  O_27
REMARK                            x       y       z     vdW  Elec       q    Type
REMARK                         _______ _______ _______ _____ _____    ______ ____
ROOT
ATOM      1  C   UNL     1      48.313   5.732  20.466  0.00  0.00    +0.000 A 
ATOM      2  C   UNL     1      49.083   4.616  20.105  0.00  0.00    +0.000 A 
ATOM      3  C   UNL     1      48.819   3.918  18.919  0.00  0.00    +0.000 A 
ATOM      4  C   UNL     1      47.789   4.326  18.060  0.00  0.00    +0.000 A 
ATOM      5  C   UNL     1      46.991   5.411  18.440  0.00  0.00    +0.000 A 
ATOM      6  C   UNL     1      47.256   6.109  19.622  0.00  0.00    +0.000 A 
ENDROOT
BRANCH   1   7
ATOM      7  C   UNL     1      48.622   6.522  21.737  0.00  0.00    +0.000 C 
ATOM      8  C   UNL     1      47.493   7.524  22.012  0.00  0.00    +0.000 C 
BRANCH   7   9
ATOM      9  N   UNL     1      49.939   7.167  21.601  0.00  0.00    +0.000 NA
ATOM     10  H   UNL     1      50.285   7.370  22.541  0.00  0.00    +0.000 HD
BRANCH   9  11
ATOM     11  C   UNL     1      49.904   8.438  20.864  0.00  0.00    +0.000 C 
BRANCH  11  17
ATOM     12  C   UNL     1      48.320   9.380  16.336  0.00  0.00    +0.000 C 
ATOM     13  C   UNL     1      49.324   8.687  17.209  0.00  0.00    +0.000 A 
ATOM     14  C   UNL     1      50.313   7.882  16.654  0.00  0.00    +0.000 A 
ATOM     15  C   UNL     1      51.207   7.242  17.503  0.00  0.00    +0.000 A 
ATOM     16  C   UNL     1      51.088   7.418  18.877  0.00  0.00    +0.000 A 
ATOM     17  C   UNL     1      50.076   8.243  19.365  0.00  0.00    +0.000 A 
ATOM     18  N   UNL     1      49.197   8.876  18.548  0.00  0.00    +0.000 NA
ENDBRANCH  11  17
ENDBRANCH   9  11
ENDBRANCH   7   9
ENDBRANCH   1   7
BRANCH   4  19
ATOM     19  C   UNL     1      47.526   3.604  16.761  0.00  0.00    +0.000 C 
BRANCH  19  20
ATOM     20  N   UNL     1      46.976   4.495  15.773  0.00  0.00    +0.000 N 
ATOM     21  C   UNL     1      46.862   4.135  14.454  0.00  0.00    +0.000 C 
ATOM     22  O   UNL     1      47.344   3.097  14.012  0.00  0.00    +0.000 OA
ATOM     23  H   UNL     1      46.427   5.272  16.118  0.00  0.00    +0.000 HD
BRANCH  21  24
ATOM     24  C   UNL     1      46.157   5.088  13.588  0.00  0.00    +0.000 A 
ATOM     25  C   UNL     1      46.533   6.425  13.573  0.00  0.00    +0.000 A 
ATOM     26  S   UNL     1      45.590   7.382  12.521  0.00  0.00    +0.000 S 
ATOM     27  C   UNL     1      44.683   6.033  12.025  0.00  0.00    +0.000 A 
ATOM     28  N   UNL     1      43.710   6.171  11.106  0.00  0.00    +0.000 NA
ATOM     29  C   UNL     1      43.101   5.017  10.820  0.00  0.00    +0.000 A 
ATOM     30  N   UNL     1      43.360   3.811  11.339  0.00  0.00    +0.000 NA
ATOM     31  C   UNL     1      44.335   3.744  12.246  0.00  0.00    +0.000 A 
ATOM     32  C   UNL     1      45.066   4.858  12.657  0.00  0.00    +0.000 A 
BRANCH  31  33
ATOM     33  O   UNL     1      44.537   2.490  12.742  0.00  0.00    +0.000 OA
ATOM     34  H   UNL     1      45.337   2.637  13.282  0.00  0.00    +0.000 HD
ENDBRANCH  31  33
ENDBRANCH  21  24
ENDBRANCH  19  20
ENDBRANCH   4  19
TORSDOF 8
ENDMDL
