MODEL 1
REMARK VINA RESULT:    -8.221      0.000      0.000
REMARK INTER + INTRA:         -12.424
REMARK INTER:                 -11.585
REMARK INTRA:                  -0.840
REMARK UNBOUND:                -0.840
REMARK  Name = 
REMARK  7 active torsions:
REMARK  status: ('A' for Active; 'I' for Inactive)
REMARK    1  A    between atoms: C_2  and  C_20
REMARK    2  A    between atoms: N_3  and  C_4
REMARK    3  A    between atoms: C_4  and  C_5
REMARK    4  A    between atoms: C_8  and  C_9
REMARK    5  A    between atoms: C_9  and  N_10
REMARK    6  A    between atoms: N_10  and  C_11
REMARK    7  A    between atoms: C_11  and  C_12
REMARK                            x       y       z     vdW  Elec       q    Type
REMARK                         _______ _______ _______ _____ _____    ______ ____
ROOT
ATOM      1  C   UNL     1      46.805   6.031  13.137  0.00  0.00    +0.000 A 
ATOM      2  C   UNL     1      45.880   5.079  13.580  0.00  0.00    +0.000 A 
ATOM      3  C   UNL     1      44.830   4.668  12.758  0.00  0.00    +0.000 A 
ATOM      4  C   UNL     1      44.680   5.198  11.467  0.00  0.00    +0.000 A 
ATOM      5  C   UNL     1      45.624   6.128  11.010  0.00  0.00    +0.000 A 
ATOM      6  C   UNL     1      46.676   6.538  11.833  0.00  0.00    +0.000 A 
ENDROOT
BRANCH   1   7
ATOM      7  C   UNL     1      47.930   6.475  14.029  0.00  0.00    +0.000 C 
BRANCH   7  10
ATOM      8  O   UNL     1      49.388   7.129  16.303  0.00  0.00    +0.000 OA
ATOM      9  C   UNL     1      48.747   6.080  16.299  0.00  0.00    +0.000 C 
ATOM     10  N   UNL     1      47.986   5.683  15.228  0.00  0.00    +0.000 N 
ATOM     11  H   UNL     1      47.349   4.906  15.333  0.00  0.00    +0.000 HD
BRANCH   9  12
ATOM     12  C   UNL     1      48.732   5.169  17.441  0.00  0.00    +0.000 A 
ATOM     13  C   UNL     1      49.163   3.848  17.452  0.00  0.00    +0.000 A 
ATOM     14  N   UNL     1      49.089   3.384  18.741  0.00  0.00    +0.000 N 
ATOM     15  C   UNL     1      48.615   4.366  19.562  0.00  0.00    +0.000 A 
ATOM     16  N   UNL     1      48.467   4.236  20.893  0.00  0.00    +0.000 NA
ATOM     17  C   UNL     1      47.969   5.351  21.476  0.00  0.00    +0.000 A 
ATOM     18  C   UNL     1      47.600   6.515  20.815  0.00  0.00    +0.000 A 
ATOM     19  C   UNL     1      47.781   6.595  19.434  0.00  0.00    +0.000 A 
ATOM     20  C   UNL     1      48.335   5.481  18.779  0.00  0.00    +0.000 A 
ATOM     21  H   UNL     1      49.363   2.470  19.071  0.00  0.00    +0.000 HD
ENDBRANCH   9  12
ENDBRANCH   7  10
ENDBRANCH   1   7
BRANCH   4  22
ATOM     22  C   UNL     1      43.523   4.768  10.594  0.00  0.00    +0.000 C 
BRANCH  22  23
ATOM     23  N   UNL     1      44.004   4.238   9.320  0.00  0.00    +0.000 NA
ATOM     24  H   UNL     1      44.815   4.784   9.024  0.00  0.00    +0.000 HD
BRANCH  23  25
ATOM     25  C   UNL     1      44.420   2.835   9.443  0.00  0.00    +0.000 C 
BRANCH  25  26
ATOM     26  C   UNL     1      45.531   2.486   8.468  0.00  0.00    +0.000 A 
ATOM     27  C   UNL     1      46.066   3.468   7.634  0.00  0.00    +0.000 A 
ATOM     28  C   UNL     1      47.094   3.126   6.759  0.00  0.00    +0.000 A 
ATOM     29  C   UNL     1      47.558   1.817   6.736  0.00  0.00    +0.000 A 
ATOM     30  C   UNL     1      46.972   0.901   7.594  0.00  0.00    +0.000 A 
ATOM     31  N   UNL     1      45.975   1.203   8.455  0.00  0.00    +0.000 NA
ENDBRANCH  25  26
ENDBRANCH  23  25
ENDBRANCH  22  23
ENDBRANCH   4  22
TORSDOF 7
ENDMDL
MODEL 2
REMARK VINA RESULT:    -8.033      1.483      2.035
REMARK INTER + INTRA:         -12.160
REMARK INTER:                 -11.036
REMARK INTRA:                  -1.125
REMARK UNBOUND:                -0.840
REMARK  Name = 
REMARK  7 active torsions:
REMARK  status: ('A' for Active; 'I' for Inactive)
REMARK    1  A    between atoms: C_2  and  C_20
REMARK    2  A    between atoms: N_3  and  C_4
REMARK    3  A    between atoms: C_4  and  C_5
REMARK    4  A    between atoms: C_8  and  C_9
REMARK    5  A    between atoms: C_9  and  N_10
REMARK    6  A    between atoms: N_10  and  C_11
REMARK    7  A    between atoms: C_11  and  C_12
REMARK                            x       y       z     vdW  Elec       q    Type
REMARK                         _______ _______ _______ _____ _____    ______ ____
ROOT
ATOM      1  C   UNL     1      46.068   6.565  12.580  0.00  0.00    +0.000 A 
ATOM      2  C   UNL     1      45.499   5.579  13.394  0.00  0.00    +0.000 A 
ATOM      3  C   UNL     1      44.688   4.584  12.848  0.00  0.00    +0.000 A 
ATOM      4  C   UNL     1      44.426   4.548  11.470  0.00  0.00    +0.000 A 
ATOM      5  C   UNL     1      45.020   5.516  10.649  0.00  0.00    +0.000 A 
ATOM      6  C   UNL     1      45.834   6.511  11.196  0.00  0.00    +0.000 A 
ENDROOT
BRANCH   1   7
ATOM      7  C   UNL     1      46.936   7.638  13.176  0.00  0.00    +0.000 C 
BRANCH   7  10
ATOM      8  O   UNL     1      49.555   6.860  13.685  0.00  0.00    +0.000 OA
ATOM      9  C   UNL     1      48.751   6.859  14.615  0.00  0.00    +0.000 C 
ATOM     10  N   UNL     1      47.442   7.242  14.462  0.00  0.00    +0.000 N 
ATOM     11  H   UNL     1      46.868   7.386  15.281  0.00  0.00    +0.000 HD
BRANCH   9  12
ATOM     12  C   UNL     1      49.124   6.459  15.970  0.00  0.00    +0.000 A 
ATOM     13  C   UNL     1      49.915   7.179  16.857  0.00  0.00    +0.000 A 
ATOM     14  N   UNL     1      49.928   6.514  18.057  0.00  0.00    +0.000 N 
ATOM     15  C   UNL     1      49.171   5.381  17.968  0.00  0.00    +0.000 A 
ATOM     16  N   UNL     1      48.951   4.535  18.991  0.00  0.00    +0.000 NA
ATOM     17  C   UNL     1      48.176   3.482  18.641  0.00  0.00    +0.000 A 
ATOM     18  C   UNL     1      47.669   3.235  17.373  0.00  0.00    +0.000 A 
ATOM     19  C   UNL     1      47.926   4.150  16.352  0.00  0.00    +0.000 A 
ATOM     20  C   UNL     1      48.691   5.287  16.667  0.00  0.00    +0.000 A 
ATOM     21  H   UNL     1      50.391   6.807  18.906  0.00  0.00    +0.000 HD
ENDBRANCH   9  12
ENDBRANCH   7  10
ENDBRANCH   1   7
BRANCH   4  22
ATOM     22  C   UNL     1      43.522   3.483  10.891  0.00  0.00    +0.000 C 
BRANCH  22  23
ATOM     23  N   UNL     1      43.910   3.166   9.518  0.00  0.00    +0.000 NA
ATOM     24  H   UNL     1      44.387   3.974   9.117  0.00  0.00    +0.000 HD
BRANCH  23  25
ATOM     25  C   UNL     1      44.830   2.023   9.469  0.00  0.00    +0.000 C 
BRANCH  25  26
ATOM     26  C   UNL     1      45.775   2.107   8.283  0.00  0.00    +0.000 A 
ATOM     27  C   UNL     1      45.845   3.275   7.524  0.00  0.00    +0.000 A 
ATOM     28  C   UNL     1      46.730   3.333   6.451  0.00  0.00    +0.000 A 
ATOM     29  C   UNL     1      47.519   2.226   6.161  0.00  0.00    +0.000 A 
ATOM     30  C   UNL     1      47.388   1.104   6.962  0.00  0.00    +0.000 A 
ATOM     31  N   UNL     1      46.540   1.019   8.011  0.00  0.00    +0.000 NA
ENDBRANCH  25  26
ENDBRANCH  23  25
ENDBRANCH  22  23
ENDBRANCH   4  22
TORSDOF 7
ENDMDL
MODEL 3
REMARK VINA RESULT:    -7.690      1.285      1.771
REMARK INTER + INTRA:         -11.676
REMARK INTER:                 -10.757
REMARK INTRA:                  -0.920
REMARK UNBOUND:                -0.840
REMARK  Name = 
REMARK  7 active torsions:
REMARK  status: ('A' for Active; 'I' for Inactive)
REMARK    1  A    between atoms: C_2  and  C_20
REMARK    2  A    between atoms: N_3  and  C_4
REMARK    3  A    between atoms: C_4  and  C_5
REMARK    4  A    between atoms: C_8  and  C_9
REMARK    5  A    between atoms: C_9  and  N_10
REMARK    6  A    between atoms: N_10  and  C_11
REMARK    7  A    between atoms: C_11  and  C_12
REMARK                            x       y       z     vdW  Elec       q    Type
REMARK                         _______ _______ _______ _____ _____    ______ ____
ROOT
ATOM      1  C   UNL     1      46.989   6.000  12.754  0.00  0.00    +0.000 A 
ATOM      2  C   UNL     1      46.200   5.066  13.434  0.00  0.00    +0.000 A 
ATOM      3  C   UNL     1      45.030   4.568  12.860  0.00  0.00    +0.000 A 
ATOM      4  C   UNL     1      44.619   4.991  11.586  0.00  0.00    +0.000 A 
ATOM      5  C   UNL     1      45.424   5.903  10.891  0.00  0.00    +0.000 A 
ATOM      6  C   UNL     1      46.597   6.400  11.465  0.00  0.00    +0.000 A 
ENDROOT
BRANCH   1   7
ATOM      7  C   UNL     1      48.245   6.537  13.380  0.00  0.00    +0.000 C 
BRANCH   7  10
ATOM      8  O   UNL     1      50.195   6.503  15.360  0.00  0.00    +0.000 OA
ATOM      9  C   UNL     1      49.052   6.833  15.668  0.00  0.00    +0.000 C 
ATOM     10  N   UNL     1      48.028   6.895  14.756  0.00  0.00    +0.000 N 
ATOM     11  H   UNL     1      47.155   7.330  15.018  0.00  0.00    +0.000 HD
BRANCH   9  12
ATOM     12  C   UNL     1      48.686   7.201  17.034  0.00  0.00    +0.000 A 
ATOM     13  C   UNL     1      48.217   8.437  17.461  0.00  0.00    +0.000 A 
ATOM     14  N   UNL     1      47.882   8.333  18.788  0.00  0.00    +0.000 N 
ATOM     15  C   UNL     1      48.127   7.066  19.231  0.00  0.00    +0.000 A 
ATOM     16  N   UNL     1      47.863   6.634  20.478  0.00  0.00    +0.000 NA
ATOM     17  C   UNL     1      48.207   5.340  20.668  0.00  0.00    +0.000 A 
ATOM     18  C   UNL     1      48.805   4.514  19.726  0.00  0.00    +0.000 A 
ATOM     19  C   UNL     1      49.051   5.014  18.447  0.00  0.00    +0.000 A 
ATOM     20  C   UNL     1      48.674   6.341  18.178  0.00  0.00    +0.000 A 
ATOM     21  H   UNL     1      47.483   9.057  19.369  0.00  0.00    +0.000 HD
ENDBRANCH   9  12
ENDBRANCH   7  10
ENDBRANCH   1   7
BRANCH   4  22
ATOM     22  C   UNL     1      43.334   4.468  10.985  0.00  0.00    +0.000 C 
BRANCH  22  23
ATOM     23  N   UNL     1      43.585   3.854   9.683  0.00  0.00    +0.000 NA
ATOM     24  H   UNL     1      44.073   4.528   9.091  0.00  0.00    +0.000 HD
BRANCH  23  25
ATOM     25  C   UNL     1      44.431   2.660   9.805  0.00  0.00    +0.000 C 
BRANCH  25  26
ATOM     26  C   UNL     1      45.429   2.553   8.666  0.00  0.00    +0.000 A 
ATOM     27  C   UNL     1      45.685   3.657   7.853  0.00  0.00    +0.000 A 
ATOM     28  C   UNL     1      46.616   3.539   6.824  0.00  0.00    +0.000 A 
ATOM     29  C   UNL     1      47.262   2.324   6.630  0.00  0.00    +0.000 A 
ATOM     30  C   UNL     1      46.949   1.275   7.479  0.00  0.00    +0.000 A 
ATOM     31  N   UNL     1      46.053   1.361   8.487  0.00  0.00    +0.000 NA
ENDBRANCH  25  26
ENDBRANCH  23  25
ENDBRANCH  22  23
ENDBRANCH   4  22
TORSDOF 7
ENDMDL
MODEL 4
REMARK VINA RESULT:    -7.327      5.095      6.445
REMARK INTER + INTRA:         -11.164
REMARK INTER:                 -10.441
REMARK INTRA:                  -0.723
REMARK UNBOUND:                -0.840
REMARK  Name = 
REMARK  7 active torsions:
REMARK  status: ('A' for Active; 'I' for Inactive)
REMARK    1  A    between atoms: C_2  and  C_20
REMARK    2  A    between atoms: N_3  and  C_4
REMARK    3  A    between atoms: C_4  and  C_5
REMARK    4  A    between atoms: C_8  and  C_9
REMARK    5  A    between atoms: C_9  and  N_10
REMARK    6  A    between atoms: N_10  and  C_11
REMARK    7  A    between atoms: C_11  and  C_12
REMARK                            x       y       z     vdW  Elec       q    Type
REMARK                         _______ _______ _______ _____ _____    ______ ____
ROOT
ATOM      1  C   UNL     1      44.411   4.122   9.902  0.00  0.00    +0.000 A 
ATOM      2  C   UNL     1      45.253   4.688   8.937  0.00  0.00    +0.000 A 
ATOM      3  C   UNL     1      45.992   3.879   8.074  0.00  0.00    +0.000 A 
ATOM      4  C   UNL     1      45.908   2.480   8.151  0.00  0.00    +0.000 A 
ATOM      5  C   UNL     1      45.042   1.912   9.096  0.00  0.00    +0.000 A 
ATOM      6  C   UNL     1      44.300   2.723   9.959  0.00  0.00    +0.000 A 
ENDROOT
BRANCH   1   7
ATOM      7  C   UNL     1      43.621   4.998  10.833  0.00  0.00    +0.000 C 
BRANCH   7  10
ATOM      8  O   UNL     1      45.630   5.269  12.734  0.00  0.00    +0.000 OA
ATOM      9  C   UNL     1      45.295   6.261  12.089  0.00  0.00    +0.000 C 
ATOM     10  N   UNL     1      44.324   6.219  11.119  0.00  0.00    +0.000 N 
ATOM     11  H   UNL     1      44.202   7.011  10.505  0.00  0.00    +0.000 HD
BRANCH   9  12
ATOM     12  C   UNL     1      45.910   7.571  12.293  0.00  0.00    +0.000 A 
ATOM     13  C   UNL     1      45.282   8.715  12.766  0.00  0.00    +0.000 A 
ATOM     14  N   UNL     1      46.232   9.694  12.919  0.00  0.00    +0.000 N 
ATOM     15  C   UNL     1      47.456   9.213  12.552  0.00  0.00    +0.000 A 
ATOM     16  N   UNL     1      48.600   9.917  12.628  0.00  0.00    +0.000 NA
ATOM     17  C   UNL     1      49.674   9.219  12.195  0.00  0.00    +0.000 A 
ATOM     18  C   UNL     1      49.649   7.928  11.683  0.00  0.00    +0.000 A 
ATOM     19  C   UNL     1      48.434   7.245  11.632  0.00  0.00    +0.000 A 
ATOM     20  C   UNL     1      47.289   7.906  12.110  0.00  0.00    +0.000 A 
ATOM     21  H   UNL     1      46.086  10.627  13.276  0.00  0.00    +0.000 HD
ENDBRANCH   9  12
ENDBRANCH   7  10
ENDBRANCH   1   7
BRANCH   4  22
ATOM     22  C   UNL     1      46.735   1.612   7.231  0.00  0.00    +0.000 C 
BRANCH  22  23
ATOM     23  N   UNL     1      46.952   2.278   5.948  0.00  0.00    +0.000 NA
ATOM     24  H   UNL     1      47.401   3.178   6.118  0.00  0.00    +0.000 HD
BRANCH  23  25
ATOM     25  C   UNL     1      47.829   1.489   5.074  0.00  0.00    +0.000 C 
BRANCH  25  26
ATOM     26  C   UNL     1      47.039   0.615   4.117  0.00  0.00    +0.000 A 
ATOM     27  C   UNL     1      46.112   1.188   3.246  0.00  0.00    +0.000 A 
ATOM     28  C   UNL     1      45.411   0.368   2.366  0.00  0.00    +0.000 A 
ATOM     29  C   UNL     1      45.647  -1.001   2.382  0.00  0.00    +0.000 A 
ATOM     30  C   UNL     1      46.581  -1.493   3.278  0.00  0.00    +0.000 A 
ATOM     31  N   UNL     1      47.280  -0.721   4.141  0.00  0.00    +0.000 NA
ENDBRANCH  25  26
ENDBRANCH  23  25
ENDBRANCH  22  23
ENDBRANCH   4  22
TORSDOF 7
ENDMDL
MODEL 5
REMARK VINA RESULT:    -7.150      3.793      6.033
REMARK INTER + INTRA:         -10.916
REMARK INTER:                 -10.104
REMARK INTRA:                  -0.812
REMARK UNBOUND:                -0.840
REMARK  Name = 
REMARK  7 active torsions:
REMARK  status: ('A' for Active; 'I' for Inactive)
REMARK    1  A    between atoms: C_2  and  C_20
REMARK    2  A    between atoms: N_3  and  C_4
REMARK    3  A    between atoms: C_4  and  C_5
REMARK    4  A    between atoms: C_8  and  C_9
REMARK    5  A    between atoms: C_9  and  N_10
REMARK    6  A    between atoms: N_10  and  C_11
REMARK    7  A    between atoms: C_11  and  C_12
REMARK                            x       y       z     vdW  Elec       q    Type
REMARK                         _______ _______ _______ _____ _____    ______ ____
ROOT
ATOM      1  C   UNL     1      46.898   5.723  12.882  0.00  0.00    +0.000 A 
ATOM      2  C   UNL     1      46.527   6.240  11.635  0.00  0.00    +0.000 A 
ATOM      3  C   UNL     1      45.455   5.696  10.928  0.00  0.00    +0.000 A 
ATOM      4  C   UNL     1      44.721   4.620  11.452  0.00  0.00    +0.000 A 
ATOM      5  C   UNL     1      45.072   4.121  12.714  0.00  0.00    +0.000 A 
ATOM      6  C   UNL     1      46.145   4.667  13.422  0.00  0.00    +0.000 A 
ENDROOT
BRANCH   1   7
ATOM      7  C   UNL     1      48.059   6.309  13.636  0.00  0.00    +0.000 C 
BRANCH   7  10
ATOM      8  O   UNL     1      50.290   7.741  14.469  0.00  0.00    +0.000 OA
ATOM      9  C   UNL     1      49.874   7.916  13.326  0.00  0.00    +0.000 C 
ATOM     10  N   UNL     1      48.789   7.242  12.822  0.00  0.00    +0.000 N 
ATOM     11  H   UNL     1      48.589   7.293  11.833  0.00  0.00    +0.000 HD
BRANCH   9  12
ATOM     12  C   UNL     1      50.507   8.851  12.399  0.00  0.00    +0.000 A 
ATOM     13  C   UNL     1      51.837   8.847  12.000  0.00  0.00    +0.000 A 
ATOM     14  N   UNL     1      51.999   9.812  11.037  0.00  0.00    +0.000 N 
ATOM     15  C   UNL     1      50.811  10.443  10.808  0.00  0.00    +0.000 A 
ATOM     16  N   UNL     1      50.630  11.409   9.889  0.00  0.00    +0.000 NA
ATOM     17  C   UNL     1      49.362  11.879   9.866  0.00  0.00    +0.000 A 
ATOM     18  C   UNL     1      48.331  11.471  10.701  0.00  0.00    +0.000 A 
ATOM     19  C   UNL     1      48.574  10.460  11.632  0.00  0.00    +0.000 A 
ATOM     20  C   UNL     1      49.865   9.903  11.673  0.00  0.00    +0.000 A 
ATOM     21  H   UNL     1      52.848  10.027  10.534  0.00  0.00    +0.000 HD
ENDBRANCH   9  12
ENDBRANCH   7  10
ENDBRANCH   1   7
BRANCH   4  22
ATOM     22  C   UNL     1      43.579   4.019  10.665  0.00  0.00    +0.000 C 
BRANCH  22  23
ATOM     23  N   UNL     1      44.044   3.528   9.370  0.00  0.00    +0.000 NA
ATOM     24  H   UNL     1      44.584   4.266   8.915  0.00  0.00    +0.000 HD
BRANCH  23  25
ATOM     25  C   UNL     1      44.913   2.354   9.519  0.00  0.00    +0.000 C 
BRANCH  25  26
ATOM     26  C   UNL     1      45.799   2.147   8.304  0.00  0.00    +0.000 A 
ATOM     27  C   UNL     1      45.983   3.181   7.386  0.00  0.00    +0.000 A 
ATOM     28  C   UNL     1      46.814   2.972   6.288  0.00  0.00    +0.000 A 
ATOM     29  C   UNL     1      47.434   1.738   6.132  0.00  0.00    +0.000 A 
ATOM     30  C   UNL     1      47.198   0.763   7.086  0.00  0.00    +0.000 A 
ATOM     31  N   UNL     1      46.400   0.937   8.163  0.00  0.00    +0.000 NA
ENDBRANCH  25  26
ENDBRANCH  23  25
ENDBRANCH  22  23
ENDBRANCH   4  22
TORSDOF 7
ENDMDL
MODEL 6
REMARK VINA RESULT:    -7.098      2.567      3.254
REMARK INTER + INTRA:         -10.842
REMARK INTER:                 -10.212
REMARK INTRA:                  -0.631
REMARK UNBOUND:                -0.840
REMARK  Name = 
REMARK  7 active torsions:
REMARK  status: ('A' for Active; 'I' for Inactive)
REMARK    1  A    between atoms: C_2  and  C_20
REMARK    2  A    between atoms: N_3  and  C_4
REMARK    3  A    between atoms: C_4  and  C_5
REMARK    4  A    between atoms: C_8  and  C_9
REMARK    5  A    between atoms: C_9  and  N_10
REMARK    6  A    between atoms: N_10  and  C_11
REMARK    7  A    between atoms: C_11  and  C_12
REMARK                            x       y       z     vdW  Elec       q    Type
REMARK                         _______ _______ _______ _____ _____    ______ ____
ROOT
ATOM      1  C   UNL     1      46.886   5.892  12.958  0.00  0.00    +0.000 A 
ATOM      2  C   UNL     1      45.881   5.045  13.439  0.00  0.00    +0.000 A 
ATOM      3  C   UNL     1      44.718   4.827  12.700  0.00  0.00    +0.000 A 
ATOM      4  C   UNL     1      44.530   5.449  11.456  0.00  0.00    +0.000 A 
ATOM      5  C   UNL     1      45.549   6.273  10.958  0.00  0.00    +0.000 A 
ATOM      6  C   UNL     1      46.715   6.490  11.698  0.00  0.00    +0.000 A 
ENDROOT
BRANCH   1   7
ATOM      7  C   UNL     1      48.134   6.128  13.761  0.00  0.00    +0.000 C 
BRANCH   7  10
ATOM      8  O   UNL     1      49.386   6.703  16.174  0.00  0.00    +0.000 OA
ATOM      9  C   UNL     1      48.729   7.587  15.629  0.00  0.00    +0.000 C 
ATOM     10  N   UNL     1      48.089   7.400  14.429  0.00  0.00    +0.000 N 
ATOM     11  H   UNL     1      47.706   8.197  13.941  0.00  0.00    +0.000 HD
BRANCH   9  12
ATOM     12  C   UNL     1      48.581   8.921  16.208  0.00  0.00    +0.000 A 
ATOM     13  C   UNL     1      48.865  10.129  15.584  0.00  0.00    +0.000 A 
ATOM     14  N   UNL     1      48.481  11.145  16.423  0.00  0.00    +0.000 N 
ATOM     15  C   UNL     1      47.963  10.626  17.574  0.00  0.00    +0.000 A 
ATOM     16  N   UNL     1      47.459  11.365  18.580  0.00  0.00    +0.000 NA
ATOM     17  C   UNL     1      47.017  10.611  19.613  0.00  0.00    +0.000 A 
ATOM     18  C   UNL     1      47.086   9.227  19.694  0.00  0.00    +0.000 A 
ATOM     19  C   UNL     1      47.615   8.512  18.618  0.00  0.00    +0.000 A 
ATOM     20  C   UNL     1      48.051   9.240  17.498  0.00  0.00    +0.000 A 
ATOM     21  H   UNL     1      48.533  12.136  16.236  0.00  0.00    +0.000 HD
ENDBRANCH   9  12
ENDBRANCH   7  10
ENDBRANCH   1   7
BRANCH   4  22
ATOM     22  C   UNL     1      43.254   5.229  10.676  0.00  0.00    +0.000 C 
BRANCH  22  23
ATOM     23  N   UNL     1      43.496   4.368   9.521  0.00  0.00    +0.000 NA
ATOM     24  H   UNL     1      44.002   4.902   8.814  0.00  0.00    +0.000 HD
BRANCH  23  25
ATOM     25  C   UNL     1      44.312   3.201   9.881  0.00  0.00    +0.000 C 
BRANCH  25  26
ATOM     26  C   UNL     1      45.329   2.868   8.804  0.00  0.00    +0.000 A 
ATOM     27  C   UNL     1      45.912   3.887   8.051  0.00  0.00    +0.000 A 
ATOM     28  C   UNL     1      46.854   3.557   7.080  0.00  0.00    +0.000 A 
ATOM     29  C   UNL     1      47.186   2.223   6.883  0.00  0.00    +0.000 A 
ATOM     30  C   UNL     1      46.561   1.271   7.670  0.00  0.00    +0.000 A 
ATOM     31  N   UNL     1      45.645   1.560   8.622  0.00  0.00    +0.000 NA
ENDBRANCH  25  26
ENDBRANCH  23  25
ENDBRANCH  22  23
ENDBRANCH   4  22
TORSDOF 7
ENDMDL
MODEL 7
REMARK VINA RESULT:    -6.996      2.488      9.485
REMARK INTER + INTRA:         -10.698
REMARK INTER:                  -9.793
REMARK INTRA:                  -0.905
REMARK UNBOUND:                -0.840
REMARK  Name = 
REMARK  7 active torsions:
REMARK  status: ('A' for Active; 'I' for Inactive)
REMARK    1  A    between atoms: C_2  and  C_20
REMARK    2  A    between atoms: N_3  and  C_4
REMARK    3  A    between atoms: C_4  and  C_5
REMARK    4  A    between atoms: C_8  and  C_9
REMARK    5  A    between atoms: C_9  and  N_10
REMARK    6  A    between atoms: N_10  and  C_11
REMARK    7  A    between atoms: C_11  and  C_12
REMARK                            x       y       z     vdW  Elec       q    Type
REMARK                         _______ _______ _______ _____ _____    ______ ____
ROOT
ATOM      1  C   UNL     1      45.585   6.460  12.069  0.00  0.00    +0.000 A 
ATOM      2  C   UNL     1      46.373   5.512  12.733  0.00  0.00    +0.000 A 
ATOM      3  C   UNL     1      47.376   5.911  13.616  0.00  0.00    +0.000 A 
ATOM      4  C   UNL     1      47.617   7.272  13.862  0.00  0.00    +0.000 A 
ATOM      5  C   UNL     1      46.809   8.222  13.222  0.00  0.00    +0.000 A 
ATOM      6  C   UNL     1      45.803   7.822  12.338  0.00  0.00    +0.000 A 
ENDROOT
BRANCH   1   7
ATOM      7  C   UNL     1      44.510   6.025  11.114  0.00  0.00    +0.000 C 
BRANCH   7  10
ATOM      8  O   UNL     1      45.770   5.500   8.693  0.00  0.00    +0.000 OA
ATOM      9  C   UNL     1      45.395   4.550   9.377  0.00  0.00    +0.000 C 
ATOM     10  N   UNL     1      44.779   4.712  10.593  0.00  0.00    +0.000 N 
ATOM     11  H   UNL     1      44.642   3.909  11.190  0.00  0.00    +0.000 HD
BRANCH   9  12
ATOM     12  C   UNL     1      45.583   3.162   8.959  0.00  0.00    +0.000 A 
ATOM     13  C   UNL     1      44.917   2.050   9.458  0.00  0.00    +0.000 A 
ATOM     14  N   UNL     1      45.298   0.956   8.721  0.00  0.00    +0.000 N 
ATOM     15  C   UNL     1      46.196   1.331   7.764  0.00  0.00    +0.000 A 
ATOM     16  N   UNL     1      46.727   0.495   6.853  0.00  0.00    +0.000 NA
ATOM     17  C   UNL     1      47.599   1.110   6.023  0.00  0.00    +0.000 A 
ATOM     18  C   UNL     1      47.970   2.447   6.083  0.00  0.00    +0.000 A 
ATOM     19  C   UNL     1      47.384   3.269   7.046  0.00  0.00    +0.000 A 
ATOM     20  C   UNL     1      46.436   2.693   7.911  0.00  0.00    +0.000 A 
ATOM     21  H   UNL     1      44.961   0.010   8.826  0.00  0.00    +0.000 HD
ENDBRANCH   9  12
ENDBRANCH   7  10
ENDBRANCH   1   7
BRANCH   4  22
ATOM     22  C   UNL     1      48.725   7.695  14.798  0.00  0.00    +0.000 C 
BRANCH  22  23
ATOM     23  N   UNL     1      48.342   7.467  16.190  0.00  0.00    +0.000 NA
ATOM     24  H   UNL     1      47.466   6.944  16.207  0.00  0.00    +0.000 HD
BRANCH  23  25
ATOM     25  C   UNL     1      49.355   6.680  16.905  0.00  0.00    +0.000 C 
BRANCH  25  26
ATOM     26  C   UNL     1      48.936   5.229  17.067  0.00  0.00    +0.000 A 
ATOM     27  C   UNL     1      47.585   4.897  17.164  0.00  0.00    +0.000 A 
ATOM     28  C   UNL     1      47.224   3.559  17.296  0.00  0.00    +0.000 A 
ATOM     29  C   UNL     1      48.219   2.589  17.333  0.00  0.00    +0.000 A 
ATOM     30  C   UNL     1      49.537   3.001  17.233  0.00  0.00    +0.000 A 
ATOM     31  N   UNL     1      49.917   4.292  17.101  0.00  0.00    +0.000 NA
ENDBRANCH  25  26
ENDBRANCH  23  25
ENDBRANCH  22  23
ENDBRANCH   4  22
TORSDOF 7
ENDMDL
MODEL 8
REMARK VINA RESULT:    -6.849      2.312      8.678
REMARK INTER + INTRA:         -10.492
REMARK INTER:                  -9.037
REMARK INTRA:                  -1.455
REMARK UNBOUND:                -0.840
REMARK  Name = 
REMARK  7 active torsions:
REMARK  status: ('A' for Active; 'I' for Inactive)
REMARK    1  A    between atoms: C_2  and  C_20
REMARK    2  A    between atoms: N_3  and  C_4
REMARK    3  A    between atoms: C_4  and  C_5
REMARK    4  A    between atoms: C_8  and  C_9
REMARK    5  A    between atoms: C_9  and  N_10
REMARK    6  A    between atoms: N_10  and  C_11
REMARK    7  A    between atoms: C_11  and  C_12
REMARK                            x       y       z     vdW  Elec       q    Type
REMARK                         _______ _______ _______ _____ _____    ______ ____
ROOT
ATOM      1  C   UNL     1      48.423   8.143  13.519  0.00  0.00    +0.000 A 
ATOM      2  C   UNL     1      47.859   8.778  14.631  0.00  0.00    +0.000 A 
ATOM      3  C   UNL     1      48.538   8.821  15.848  0.00  0.00    +0.000 A 
ATOM      4  C   UNL     1      49.803   8.230  15.985  0.00  0.00    +0.000 A 
ATOM      5  C   UNL     1      50.384   7.620  14.864  0.00  0.00    +0.000 A 
ATOM      6  C   UNL     1      49.703   7.580  13.645  0.00  0.00    +0.000 A 
ENDROOT
BRANCH   1   7
ATOM      7  C   UNL     1      47.683   8.095  12.211  0.00  0.00    +0.000 C 
BRANCH   7  10
ATOM      8  O   UNL     1      45.119   7.234  12.853  0.00  0.00    +0.000 OA
ATOM      9  C   UNL     1      45.890   6.438  12.320  0.00  0.00    +0.000 C 
ATOM     10  N   UNL     1      47.168   6.777  11.953  0.00  0.00    +0.000 N 
ATOM     11  H   UNL     1      47.701   6.147  11.372  0.00  0.00    +0.000 HD
BRANCH   9  12
ATOM     12  C   UNL     1      45.505   5.060  12.020  0.00  0.00    +0.000 A 
ATOM     13  C   UNL     1      45.192   4.069  12.942  0.00  0.00    +0.000 A 
ATOM     14  N   UNL     1      44.774   2.959  12.253  0.00  0.00    +0.000 N 
ATOM     15  C   UNL     1      44.814   3.204  10.910  0.00  0.00    +0.000 A 
ATOM     16  N   UNL     1      44.425   2.326   9.968  0.00  0.00    +0.000 NA
ATOM     17  C   UNL     1      44.573   2.806   8.712  0.00  0.00    +0.000 A 
ATOM     18  C   UNL     1      45.098   4.047   8.375  0.00  0.00    +0.000 A 
ATOM     19  C   UNL     1      45.482   4.918   9.395  0.00  0.00    +0.000 A 
ATOM     20  C   UNL     1      45.311   4.489  10.723  0.00  0.00    +0.000 A 
ATOM     21  H   UNL     1      44.451   2.088  12.649  0.00  0.00    +0.000 HD
ENDBRANCH   9  12
ENDBRANCH   7  10
ENDBRANCH   1   7
BRANCH   4  22
ATOM     22  C   UNL     1      50.519   8.256  17.317  0.00  0.00    +0.000 C 
BRANCH  22  23
ATOM     23  N   UNL     1      50.775   6.899  17.793  0.00  0.00    +0.000 NA
ATOM     24  H   UNL     1      51.539   6.928  18.470  0.00  0.00    +0.000 HD
BRANCH  23  25
ATOM     25  C   UNL     1      49.597   6.332  18.461  0.00  0.00    +0.000 C 
BRANCH  25  26
ATOM     26  C   UNL     1      49.124   5.055  17.789  0.00  0.00    +0.000 A 
ATOM     27  C   UNL     1      48.016   5.078  16.942  0.00  0.00    +0.000 A 
ATOM     28  C   UNL     1      47.610   3.898  16.325  0.00  0.00    +0.000 A 
ATOM     29  C   UNL     1      48.316   2.727  16.572  0.00  0.00    +0.000 A 
ATOM     30  C   UNL     1      49.403   2.787  17.427  0.00  0.00    +0.000 A 
ATOM     31  N   UNL     1      49.822   3.918  18.038  0.00  0.00    +0.000 NA
ENDBRANCH  25  26
ENDBRANCH  23  25
ENDBRANCH  22  23
ENDBRANCH   4  22
TORSDOF 7
ENDMDL
MODEL 9
REMARK VINA RESULT:    -6.552      3.250      8.546
REMARK INTER + INTRA:         -10.072
REMARK INTER:                  -8.549
REMARK INTRA:                  -1.524
REMARK UNBOUND:                -0.840
REMARK  Name = 
REMARK  7 active torsions:
REMARK  status: ('A' for Active; 'I' for Inactive)
REMARK    1  A    between atoms: C_2  and  C_20
REMARK    2  A    between atoms: N_3  and  C_4
REMARK    3  A    between atoms: C_4  and  C_5
REMARK    4  A    between atoms: C_8  and  C_9
REMARK    5  A    between atoms: C_9  and  N_10
REMARK    6  A    between atoms: N_10  and  C_11
REMARK    7  A    between atoms: C_11  and  C_12
REMARK                            x       y       z     vdW  Elec       q    Type
REMARK                         _______ _______ _______ _____ _____    ______ ____
ROOT
ATOM      1  C   UNL     1      48.455   8.644  15.334  0.00  0.00    +0.000 A 
ATOM      2  C   UNL     1      49.171   7.441  15.339  0.00  0.00    +0.000 A 
ATOM      3  C   UNL     1      49.580   6.860  16.539  0.00  0.00    +0.000 A 
ATOM      4  C   UNL     1      49.281   7.466  17.769  0.00  0.00    +0.000 A 
ATOM      5  C   UNL     1      48.537   8.654  17.767  0.00  0.00    +0.000 A 
ATOM      6  C   UNL     1      48.126   9.235  16.565  0.00  0.00    +0.000 A 
ENDROOT
BRANCH   1   7
ATOM      7  C   UNL     1      48.022   9.268  14.037  0.00  0.00    +0.000 C 
BRANCH   7  10
ATOM      8  O   UNL     1      47.770   7.619  11.815  0.00  0.00    +0.000 OA
ATOM      9  C   UNL     1      46.758   7.904  12.452  0.00  0.00    +0.000 C 
ATOM     10  N   UNL     1      46.788   8.697  13.571  0.00  0.00    +0.000 N 
ATOM     11  H   UNL     1      45.965   8.765  14.154  0.00  0.00    +0.000 HD
BRANCH   9  12
ATOM     12  C   UNL     1      45.435   7.411  12.077  0.00  0.00    +0.000 A 
ATOM     13  C   UNL     1      44.426   8.138  11.459  0.00  0.00    +0.000 A 
ATOM     14  N   UNL     1      43.391   7.281  11.177  0.00  0.00    +0.000 N 
ATOM     15  C   UNL     1      43.702   6.022  11.603  0.00  0.00    +0.000 A 
ATOM     16  N   UNL     1      42.910   4.947  11.433  0.00  0.00    +0.000 NA
ATOM     17  C   UNL     1      43.442   3.817  11.954  0.00  0.00    +0.000 A 
ATOM     18  C   UNL     1      44.651   3.728  12.631  0.00  0.00    +0.000 A 
ATOM     19  C   UNL     1      45.434   4.875  12.772  0.00  0.00    +0.000 A 
ATOM     20  C   UNL     1      44.951   6.071  12.213  0.00  0.00    +0.000 A 
ATOM     21  H   UNL     1      42.530   7.509  10.701  0.00  0.00    +0.000 HD
ENDBRANCH   9  12
ENDBRANCH   7  10
ENDBRANCH   1   7
BRANCH   4  22
ATOM     22  C   UNL     1      49.753   6.844  19.063  0.00  0.00    +0.000 C 
BRANCH  22  23
ATOM     23  N   UNL     1      48.625   6.315  19.826  0.00  0.00    +0.000 NA
ATOM     24  H   UNL     1      47.760   6.549  19.336  0.00  0.00    +0.000 HD
BRANCH  23  25
ATOM     25  C   UNL     1      48.696   4.854  19.950  0.00  0.00    +0.000 C 
BRANCH  25  26
ATOM     26  C   UNL     1      48.436   4.158  18.626  0.00  0.00    +0.000 A 
ATOM     27  C   UNL     1      47.289   4.459  17.890  0.00  0.00    +0.000 A 
ATOM     28  C   UNL     1      47.080   3.819  16.671  0.00  0.00    +0.000 A 
ATOM     29  C   UNL     1      48.016   2.896  16.221  0.00  0.00    +0.000 A 
ATOM     30  C   UNL     1      49.126   2.652  17.012  0.00  0.00    +0.000 A 
ATOM     31  N   UNL     1      49.358   3.259  18.197  0.00  0.00    +0.000 NA
ENDBRANCH  25  26
ENDBRANCH  23  25
ENDBRANCH  22  23
ENDBRANCH   4  22
TORSDOF 7
ENDMDL
