MODEL 1
REMARK VINA RESULT:    -8.305      0.000      0.000
REMARK INTER + INTRA:         -12.353
REMARK INTER:                 -11.461
REMARK INTRA:                  -0.892
REMARK UNBOUND:                -0.892
REMARK  Name = 
REMARK  7 active torsions:
REMARK  status: ('A' for Active; 'I' for Inactive)
REMARK    1  A    between atoms: C_2  and  C_20
REMARK    2  A    between atoms: N_3  and  C_4
REMARK    3  A    between atoms: C_4  and  C_5
REMARK    4  A    between atoms: C_8  and  C_9
REMARK    5  A    between atoms: C_9  and  C_10
REMARK    6  A    between atoms: C_10  and  O_11
REMARK    7  A    between atoms: C_10  and  C_12
REMARK                            x       y       z     vdW  Elec       q    Type
REMARK                         _______ _______ _______ _____ _____    ______ ____
ROOT
ATOM      1  C   UNL     1      44.719   3.848   9.470  0.00  0.00    +0.000 A 
ATOM      2  C   UNL     1      44.726   2.461   9.638  0.00  0.00    +0.000 A 
ATOM      3  C   UNL     1      45.468   1.651   8.782  0.00  0.00    +0.000 A 
ATOM      4  C   UNL     1      46.231   2.206   7.747  0.00  0.00    +0.000 A 
ATOM      5  C   UNL     1      46.235   3.601   7.594  0.00  0.00    +0.000 A 
ATOM      6  C   UNL     1      45.493   4.416   8.451  0.00  0.00    +0.000 A 
ENDROOT
BRANCH   1   7
ATOM      7  C   UNL     1      43.908   4.708  10.394  0.00  0.00    +0.000 C 
BRANCH   7  10
ATOM      8  O   UNL     1      44.337   5.794  12.858  0.00  0.00    +0.000 OA
ATOM      9  C   UNL     1      44.732   6.444  11.893  0.00  0.00    +0.000 C 
ATOM     10  N   UNL     1      44.548   5.980  10.613  0.00  0.00    +0.000 N 
ATOM     11  H   UNL     1      45.017   6.417   9.835  0.00  0.00    +0.000 HD
BRANCH   9  12
ATOM     12  C   UNL     1      45.412   7.710  12.000  0.00  0.00    +0.000 A 
ATOM     13  C   UNL     1      44.914   9.002  12.035  0.00  0.00    +0.000 A 
ATOM     14  N   UNL     1      45.905   9.938  12.139  0.00  0.00    +0.000 NA
ATOM     15  C   UNL     1      47.022   9.249  12.181  0.00  0.00    +0.000 A 
ATOM     16  C   UNL     1      48.376   9.681  12.281  0.00  0.00    +0.000 A 
ATOM     17  C   UNL     1      49.369   8.772  12.309  0.00  0.00    +0.000 A 
ATOM     18  C   UNL     1      49.093   7.349  12.250  0.00  0.00    +0.000 A 
ATOM     19  C   UNL     1      47.818   6.934  12.153  0.00  0.00    +0.000 A 
ATOM     20  N   UNL     1      46.784   7.876  12.112  0.00  0.00    +0.000 N 
ENDBRANCH   9  12
ENDBRANCH   7  10
ENDBRANCH   1   7
BRANCH   4  21
ATOM     21  C   UNL     1      47.038   1.371   6.773  0.00  0.00    +0.000 C 
BRANCH  21  22
ATOM     22  C   UNL     1      47.139   1.894   5.325  0.00  0.00    +0.000 C 
BRANCH  22  23
ATOM     23  C   UNL     1      46.745   0.905   4.250  0.00  0.00    +0.000 A 
ATOM     24  C   UNL     1      47.102  -0.442   4.413  0.00  0.00    +0.000 A 
ATOM     25  C   UNL     1      46.696  -1.403   3.492  0.00  0.00    +0.000 A 
ATOM     26  C   UNL     1      45.916  -1.038   2.399  0.00  0.00    +0.000 A 
ATOM     27  C   UNL     1      45.553   0.294   2.221  0.00  0.00    +0.000 A 
ATOM     28  C   UNL     1      45.962   1.260   3.141  0.00  0.00    +0.000 A 
ENDBRANCH  22  23
BRANCH  22  29
ATOM     29  O   UNL     1      48.477   2.302   5.020  0.00  0.00    +0.000 OA
ATOM     30  H   UNL     1      48.601   3.188   5.400  0.00  0.00    +0.000 HD
ENDBRANCH  22  29
ENDBRANCH  21  22
ENDBRANCH   4  21
TORSDOF 7
ENDMDL
MODEL 2
REMARK VINA RESULT:    -8.182      1.096      2.032
REMARK INTER + INTRA:         -12.183
REMARK INTER:                 -11.392
REMARK INTRA:                  -0.791
REMARK UNBOUND:                -0.892
REMARK  Name = 
REMARK  7 active torsions:
REMARK  status: ('A' for Active; 'I' for Inactive)
REMARK    1  A    between atoms: C_2  and  C_20
REMARK    2  A    between atoms: N_3  and  C_4
REMARK    3  A    between atoms: C_4  and  C_5
REMARK    4  A    between atoms: C_8  and  C_9
REMARK    5  A    between atoms: C_9  and  C_10
REMARK    6  A    between atoms: C_10  and  O_11
REMARK    7  A    between atoms: C_10  and  C_12
REMARK                            x       y       z     vdW  Elec       q    Type
REMARK                         _______ _______ _______ _____ _____    ______ ____
ROOT
ATOM      1  C   UNL     1      44.674   3.811   9.400  0.00  0.00    +0.000 A 
ATOM      2  C   UNL     1      44.639   2.425   9.571  0.00  0.00    +0.000 A 
ATOM      3  C   UNL     1      45.398   1.594   8.751  0.00  0.00    +0.000 A 
ATOM      4  C   UNL     1      46.221   2.126   7.752  0.00  0.00    +0.000 A 
ATOM      5  C   UNL     1      46.268   3.520   7.596  0.00  0.00    +0.000 A 
ATOM      6  C   UNL     1      45.509   4.356   8.417  0.00  0.00    +0.000 A 
ENDROOT
BRANCH   1   7
ATOM      7  C   UNL     1      43.845   4.693  10.285  0.00  0.00    +0.000 C 
BRANCH   7  10
ATOM      8  O   UNL     1      43.852   5.810  12.773  0.00  0.00    +0.000 OA
ATOM      9  C   UNL     1      44.509   6.386  11.909  0.00  0.00    +0.000 C 
ATOM     10  N   UNL     1      44.553   5.901  10.623  0.00  0.00    +0.000 N 
ATOM     11  H   UNL     1      45.220   6.264   9.960  0.00  0.00    +0.000 HD
BRANCH   9  12
ATOM     12  C   UNL     1      45.281   7.579  12.146  0.00  0.00    +0.000 A 
ATOM     13  C   UNL     1      46.467   7.764  12.838  0.00  0.00    +0.000 A 
ATOM     14  N   UNL     1      46.873   9.069  12.835  0.00  0.00    +0.000 NA
ATOM     15  C   UNL     1      45.959   9.708  12.141  0.00  0.00    +0.000 A 
ATOM     16  C   UNL     1      45.844  11.088  11.805  0.00  0.00    +0.000 A 
ATOM     17  C   UNL     1      44.802  11.514  11.068  0.00  0.00    +0.000 A 
ATOM     18  C   UNL     1      43.787  10.594  10.590  0.00  0.00    +0.000 A 
ATOM     19  C   UNL     1      43.888   9.291  10.904  0.00  0.00    +0.000 A 
ATOM     20  N   UNL     1      44.963   8.846  11.681  0.00  0.00    +0.000 N 
ENDBRANCH   9  12
ENDBRANCH   7  10
ENDBRANCH   1   7
BRANCH   4  21
ATOM     21  C   UNL     1      47.051   1.269   6.817  0.00  0.00    +0.000 C 
BRANCH  21  22
ATOM     22  C   UNL     1      47.223   1.780   5.371  0.00  0.00    +0.000 C 
BRANCH  22  23
ATOM     23  C   UNL     1      46.801   0.811   4.287  0.00  0.00    +0.000 A 
ATOM     24  C   UNL     1      47.075  -0.553   4.462  0.00  0.00    +0.000 A 
ATOM     25  C   UNL     1      46.640  -1.492   3.532  0.00  0.00    +0.000 A 
ATOM     26  C   UNL     1      45.912  -1.086   2.417  0.00  0.00    +0.000 A 
ATOM     27  C   UNL     1      45.631   0.264   2.228  0.00  0.00    +0.000 A 
ATOM     28  C   UNL     1      46.070   1.208   3.156  0.00  0.00    +0.000 A 
ENDBRANCH  22  23
BRANCH  22  29
ATOM     29  O   UNL     1      48.589   2.107   5.103  0.00  0.00    +0.000 OA
ATOM     30  H   UNL     1      48.840   2.818   5.716  0.00  0.00    +0.000 HD
ENDBRANCH  22  29
ENDBRANCH  21  22
ENDBRANCH   4  21
TORSDOF 7
ENDMDL
MODEL 3
REMARK VINA RESULT:    -8.130      4.658      6.257
REMARK INTER + INTRA:         -12.111
REMARK INTER:                 -11.140
REMARK INTRA:                  -0.971
REMARK UNBOUND:                -0.892
REMARK  Name = 
REMARK  7 active torsions:
REMARK  status: ('A' for Active; 'I' for Inactive)
REMARK    1  A    between atoms: C_2  and  C_20
REMARK    2  A    between atoms: N_3  and  C_4
REMARK    3  A    between atoms: C_4  and  C_5
REMARK    4  A    between atoms: C_8  and  C_9
REMARK    5  A    between atoms: C_9  and  C_10
REMARK    6  A    between atoms: C_10  and  O_11
REMARK    7  A    between atoms: C_10  and  C_12
REMARK                            x       y       z     vdW  Elec       q    Type
REMARK                         _______ _______ _______ _____ _____    ______ ____
ROOT
ATOM      1  C   UNL     1      46.844   6.041  12.883  0.00  0.00    +0.000 A 
ATOM      2  C   UNL     1      46.631   6.553  11.600  0.00  0.00    +0.000 A 
ATOM      3  C   UNL     1      45.855   5.851  10.681  0.00  0.00    +0.000 A 
ATOM      4  C   UNL     1      45.261   4.631  11.024  0.00  0.00    +0.000 A 
ATOM      5  C   UNL     1      45.462   4.130  12.320  0.00  0.00    +0.000 A 
ATOM      6  C   UNL     1      46.239   4.832  13.244  0.00  0.00    +0.000 A 
ENDROOT
BRANCH   1   7
ATOM      7  C   UNL     1      47.689   6.804  13.859  0.00  0.00    +0.000 C 
BRANCH   7  10
ATOM      8  O   UNL     1      49.914   6.526  15.411  0.00  0.00    +0.000 OA
ATOM      9  C   UNL     1      48.865   6.079  15.867  0.00  0.00    +0.000 C 
ATOM     10  N   UNL     1      47.696   6.164  15.150  0.00  0.00    +0.000 N 
ATOM     11  H   UNL     1      46.810   5.958  15.584  0.00  0.00    +0.000 HD
BRANCH   9  12
ATOM     12  C   UNL     1      48.753   5.450  17.159  0.00  0.00    +0.000 A 
ATOM     13  C   UNL     1      49.008   4.147  17.553  0.00  0.00    +0.000 A 
ATOM     14  N   UNL     1      48.770   3.950  18.885  0.00  0.00    +0.000 NA
ATOM     15  C   UNL     1      48.377   5.120  19.337  0.00  0.00    +0.000 A 
ATOM     16  C   UNL     1      47.986   5.526  20.645  0.00  0.00    +0.000 A 
ATOM     17  C   UNL     1      47.620   6.802  20.870  0.00  0.00    +0.000 A 
ATOM     18  C   UNL     1      47.623   7.787  19.805  0.00  0.00    +0.000 A 
ATOM     19  C   UNL     1      47.988   7.411  18.568  0.00  0.00    +0.000 A 
ATOM     20  N   UNL     1      48.358   6.083  18.328  0.00  0.00    +0.000 N 
ENDBRANCH   9  12
ENDBRANCH   7  10
ENDBRANCH   1   7
BRANCH   4  21
ATOM     21  C   UNL     1      44.425   3.815  10.058  0.00  0.00    +0.000 C 
BRANCH  21  22
ATOM     22  C   UNL     1      44.968   2.422   9.672  0.00  0.00    +0.000 C 
BRANCH  22  23
ATOM     23  C   UNL     1      45.759   2.370   8.382  0.00  0.00    +0.000 A 
ATOM     24  C   UNL     1      45.798   3.515   7.572  0.00  0.00    +0.000 A 
ATOM     25  C   UNL     1      46.573   3.543   6.417  0.00  0.00    +0.000 A 
ATOM     26  C   UNL     1      47.331   2.433   6.056  0.00  0.00    +0.000 A 
ATOM     27  C   UNL     1      47.303   1.289   6.848  0.00  0.00    +0.000 A 
ATOM     28  C   UNL     1      46.524   1.256   8.005  0.00  0.00    +0.000 A 
ENDBRANCH  22  23
BRANCH  22  29
ATOM     29  O   UNL     1      43.902   1.480   9.524  0.00  0.00    +0.000 OA
ATOM     30  H   UNL     1      43.857   1.242   8.583  0.00  0.00    +0.000 HD
ENDBRANCH  22  29
ENDBRANCH  21  22
ENDBRANCH   4  21
TORSDOF 7
ENDMDL
MODEL 4
REMARK VINA RESULT:    -7.936      2.044      2.455
REMARK INTER + INTRA:         -11.843
REMARK INTER:                 -11.328
REMARK INTRA:                  -0.516
REMARK UNBOUND:                -0.892
REMARK  Name = 
REMARK  7 active torsions:
REMARK  status: ('A' for Active; 'I' for Inactive)
REMARK    1  A    between atoms: C_2  and  C_20
REMARK    2  A    between atoms: N_3  and  C_4
REMARK    3  A    between atoms: C_4  and  C_5
REMARK    4  A    between atoms: C_8  and  C_9
REMARK    5  A    between atoms: C_9  and  C_10
REMARK    6  A    between atoms: C_10  and  O_11
REMARK    7  A    between atoms: C_10  and  C_12
REMARK                            x       y       z     vdW  Elec       q    Type
REMARK                         _______ _______ _______ _____ _____    ______ ____
ROOT
ATOM      1  C   UNL     1      44.995   3.860   9.433  0.00  0.00    +0.000 A 
ATOM      2  C   UNL     1      44.879   2.477   9.592  0.00  0.00    +0.000 A 
ATOM      3  C   UNL     1      45.514   1.610   8.706  0.00  0.00    +0.000 A 
ATOM      4  C   UNL     1      46.291   2.102   7.651  0.00  0.00    +0.000 A 
ATOM      5  C   UNL     1      46.419   3.492   7.507  0.00  0.00    +0.000 A 
ATOM      6  C   UNL     1      45.785   4.363   8.394  0.00  0.00    +0.000 A 
ENDROOT
BRANCH   1   7
ATOM      7  C   UNL     1      44.298   4.782  10.390  0.00  0.00    +0.000 C 
BRANCH   7  10
ATOM      8  O   UNL     1      45.151   3.931  12.836  0.00  0.00    +0.000 OA
ATOM      9  C   UNL     1      45.628   4.985  12.423  0.00  0.00    +0.000 C 
ATOM     10  N   UNL     1      45.247   5.496  11.205  0.00  0.00    +0.000 N 
ATOM     11  H   UNL     1      45.755   6.259  10.786  0.00  0.00    +0.000 HD
BRANCH   9  12
ATOM     12  C   UNL     1      46.607   5.761  13.140  0.00  0.00    +0.000 A 
ATOM     13  C   UNL     1      47.179   6.988  12.844  0.00  0.00    +0.000 A 
ATOM     14  N   UNL     1      48.082   7.383  13.792  0.00  0.00    +0.000 NA
ATOM     15  C   UNL     1      48.078   6.422  14.687  0.00  0.00    +0.000 A 
ATOM     16  C   UNL     1      48.818   6.275  15.895  0.00  0.00    +0.000 A 
ATOM     17  C   UNL     1      48.639   5.185  16.664  0.00  0.00    +0.000 A 
ATOM     18  C   UNL     1      47.693   4.148  16.296  0.00  0.00    +0.000 A 
ATOM     19  C   UNL     1      46.992   4.279  15.157  0.00  0.00    +0.000 A 
ATOM     20  N   UNL     1      47.184   5.405  14.349  0.00  0.00    +0.000 N 
ENDBRANCH   9  12
ENDBRANCH   7  10
ENDBRANCH   1   7
BRANCH   4  21
ATOM     21  C   UNL     1      46.985   1.206   6.645  0.00  0.00    +0.000 C 
BRANCH  21  22
ATOM     22  C   UNL     1      47.119   1.747   5.205  0.00  0.00    +0.000 C 
BRANCH  22  23
ATOM     23  C   UNL     1      46.690   0.792   4.112  0.00  0.00    +0.000 A 
ATOM     24  C   UNL     1      47.056  -0.558   4.219  0.00  0.00    +0.000 A 
ATOM     25  C   UNL     1      46.620  -1.490   3.281  0.00  0.00    +0.000 A 
ATOM     26  C   UNL     1      45.802  -1.091   2.227  0.00  0.00    +0.000 A 
ATOM     27  C   UNL     1      45.430   0.244   2.107  0.00  0.00    +0.000 A 
ATOM     28  C   UNL     1      45.868   1.181   3.043  0.00  0.00    +0.000 A 
ENDBRANCH  22  23
BRANCH  22  29
ATOM     29  O   UNL     1      48.475   2.101   4.916  0.00  0.00    +0.000 OA
ATOM     30  H   UNL     1      48.691   2.877   5.459  0.00  0.00    +0.000 HD
ENDBRANCH  22  29
ENDBRANCH  21  22
ENDBRANCH   4  21
TORSDOF 7
ENDMDL
MODEL 5
REMARK VINA RESULT:    -7.913      4.114      5.964
REMARK INTER + INTRA:         -11.812
REMARK INTER:                 -11.447
REMARK INTRA:                  -0.364
REMARK UNBOUND:                -0.892
REMARK  Name = 
REMARK  7 active torsions:
REMARK  status: ('A' for Active; 'I' for Inactive)
REMARK    1  A    between atoms: C_2  and  C_20
REMARK    2  A    between atoms: N_3  and  C_4
REMARK    3  A    between atoms: C_4  and  C_5
REMARK    4  A    between atoms: C_8  and  C_9
REMARK    5  A    between atoms: C_9  and  C_10
REMARK    6  A    between atoms: C_10  and  O_11
REMARK    7  A    between atoms: C_10  and  C_12
REMARK                            x       y       z     vdW  Elec       q    Type
REMARK                         _______ _______ _______ _____ _____    ______ ____
ROOT
ATOM      1  C   UNL     1      46.614   6.311  12.725  0.00  0.00    +0.000 A 
ATOM      2  C   UNL     1      46.180   6.486  11.409  0.00  0.00    +0.000 A 
ATOM      3  C   UNL     1      45.434   5.495  10.775  0.00  0.00    +0.000 A 
ATOM      4  C   UNL     1      45.092   4.314  11.444  0.00  0.00    +0.000 A 
ATOM      5  C   UNL     1      45.514   4.151  12.772  0.00  0.00    +0.000 A 
ATOM      6  C   UNL     1      46.261   5.143  13.411  0.00  0.00    +0.000 A 
ENDROOT
BRANCH   1   7
ATOM      7  C   UNL     1      47.423   7.384  13.392  0.00  0.00    +0.000 C 
BRANCH   7  10
ATOM      8  O   UNL     1      49.931   6.960  14.374  0.00  0.00    +0.000 OA
ATOM      9  C   UNL     1      49.003   6.859  15.173  0.00  0.00    +0.000 C 
ATOM     10  N   UNL     1      47.704   7.043  14.764  0.00  0.00    +0.000 N 
ATOM     11  H   UNL     1      46.960   7.132  15.439  0.00  0.00    +0.000 HD
BRANCH   9  12
ATOM     12  C   UNL     1      49.174   6.556  16.571  0.00  0.00    +0.000 A 
ATOM     13  C   UNL     1      49.689   7.323  17.603  0.00  0.00    +0.000 A 
ATOM     14  N   UNL     1      49.682   6.659  18.798  0.00  0.00    +0.000 NA
ATOM     15  C   UNL     1      49.158   5.484  18.531  0.00  0.00    +0.000 A 
ATOM     16  C   UNL     1      48.903   4.368  19.378  0.00  0.00    +0.000 A 
ATOM     17  C   UNL     1      48.346   3.252  18.868  0.00  0.00    +0.000 A 
ATOM     18  C   UNL     1      47.986   3.161  17.466  0.00  0.00    +0.000 A 
ATOM     19  C   UNL     1      48.226   4.209  16.660  0.00  0.00    +0.000 A 
ATOM     20  N   UNL     1      48.815   5.365  17.184  0.00  0.00    +0.000 N 
ENDBRANCH   9  12
ENDBRANCH   7  10
ENDBRANCH   1   7
BRANCH   4  21
ATOM     21  C   UNL     1      44.302   3.193  10.797  0.00  0.00    +0.000 C 
BRANCH  21  22
ATOM     22  C   UNL     1      44.154   3.243   9.261  0.00  0.00    +0.000 C 
BRANCH  22  23
ATOM     23  C   UNL     1      45.387   2.846   8.478  0.00  0.00    +0.000 A 
ATOM     24  C   UNL     1      45.792   1.503   8.501  0.00  0.00    +0.000 A 
ATOM     25  C   UNL     1      46.872   1.073   7.736  0.00  0.00    +0.000 A 
ATOM     26  C   UNL     1      47.558   1.974   6.926  0.00  0.00    +0.000 A 
ATOM     27  C   UNL     1      47.169   3.309   6.893  0.00  0.00    +0.000 A 
ATOM     28  C   UNL     1      46.089   3.744   7.661  0.00  0.00    +0.000 A 
ENDBRANCH  22  23
BRANCH  22  29
ATOM     29  O   UNL     1      43.810   4.561   8.823  0.00  0.00    +0.000 OA
ATOM     30  H   UNL     1      43.186   4.464   8.084  0.00  0.00    +0.000 HD
ENDBRANCH  22  29
ENDBRANCH  21  22
ENDBRANCH   4  21
TORSDOF 7
ENDMDL
MODEL 6
REMARK VINA RESULT:    -7.196      2.672      4.417
REMARK INTER + INTRA:         -10.823
REMARK INTER:                 -10.078
REMARK INTRA:                  -0.745
REMARK UNBOUND:                -0.892
REMARK  Name = 
REMARK  7 active torsions:
REMARK  status: ('A' for Active; 'I' for Inactive)
REMARK    1  A    between atoms: C_2  and  C_20
REMARK    2  A    between atoms: N_3  and  C_4
REMARK    3  A    between atoms: C_4  and  C_5
REMARK    4  A    between atoms: C_8  and  C_9
REMARK    5  A    between atoms: C_9  and  C_10
REMARK    6  A    between atoms: C_10  and  O_11
REMARK    7  A    between atoms: C_10  and  C_12
REMARK                            x       y       z     vdW  Elec       q    Type
REMARK                         _______ _______ _______ _____ _____    ______ ____
ROOT
ATOM      1  C   UNL     1      45.367   6.940  12.305  0.00  0.00    +0.000 A 
ATOM      2  C   UNL     1      45.961   6.664  11.071  0.00  0.00    +0.000 A 
ATOM      3  C   UNL     1      45.795   5.418  10.472  0.00  0.00    +0.000 A 
ATOM      4  C   UNL     1      45.024   4.423  11.083  0.00  0.00    +0.000 A 
ATOM      5  C   UNL     1      44.414   4.710  12.313  0.00  0.00    +0.000 A 
ATOM      6  C   UNL     1      44.577   5.960  12.916  0.00  0.00    +0.000 A 
ENDROOT
BRANCH   1   7
ATOM      7  C   UNL     1      45.560   8.284  12.942  0.00  0.00    +0.000 C 
BRANCH   7  10
ATOM      8  O   UNL     1      47.769   8.981  14.380  0.00  0.00    +0.000 OA
ATOM      9  C   UNL     1      47.778   9.265  13.184  0.00  0.00    +0.000 C 
ATOM     10  N   UNL     1      46.702   8.962  12.385  0.00  0.00    +0.000 N 
ATOM     11  H   UNL     1      46.771   9.034  11.381  0.00  0.00    +0.000 HD
BRANCH   9  12
ATOM     12  C   UNL     1      48.881   9.911  12.520  0.00  0.00    +0.000 A 
ATOM     13  C   UNL     1      49.222  11.252  12.434  0.00  0.00    +0.000 A 
ATOM     14  N   UNL     1      50.355  11.453  11.696  0.00  0.00    +0.000 NA
ATOM     15  C   UNL     1      50.737  10.253  11.324  0.00  0.00    +0.000 A 
ATOM     16  C   UNL     1      51.847   9.835  10.535  0.00  0.00    +0.000 A 
ATOM     17  C   UNL     1      52.038   8.526  10.285  0.00  0.00    +0.000 A 
ATOM     18  C   UNL     1      51.139   7.517  10.814  0.00  0.00    +0.000 A 
ATOM     19  C   UNL     1      50.088   7.904  11.557  0.00  0.00    +0.000 A 
ATOM     20  N   UNL     1      49.880   9.264  11.809  0.00  0.00    +0.000 N 
ENDBRANCH   9  12
ENDBRANCH   7  10
ENDBRANCH   1   7
BRANCH   4  21
ATOM     21  C   UNL     1      44.829   3.042  10.488  0.00  0.00    +0.000 C 
BRANCH  21  22
ATOM     22  C   UNL     1      44.470   2.974   8.988  0.00  0.00    +0.000 C 
BRANCH  22  23
ATOM     23  C   UNL     1      45.624   2.664   8.059  0.00  0.00    +0.000 A 
ATOM     24  C   UNL     1      46.249   1.413   8.159  0.00  0.00    +0.000 A 
ATOM     25  C   UNL     1      47.262   1.050   7.277  0.00  0.00    +0.000 A 
ATOM     26  C   UNL     1      47.661   1.928   6.272  0.00  0.00    +0.000 A 
ATOM     27  C   UNL     1      47.052   3.174   6.160  0.00  0.00    +0.000 A 
ATOM     28  C   UNL     1      46.038   3.541   7.045  0.00  0.00    +0.000 A 
ENDBRANCH  22  23
BRANCH  22  29
ATOM     29  O   UNL     1      43.917   4.215   8.538  0.00  0.00    +0.000 OA
ATOM     30  H   UNL     1      44.397   4.467   7.731  0.00  0.00    +0.000 HD
ENDBRANCH  22  29
ENDBRANCH  21  22
ENDBRANCH   4  21
TORSDOF 7
ENDMDL
MODEL 7
REMARK VINA RESULT:    -7.002      4.659      6.541
REMARK INTER + INTRA:         -10.554
REMARK INTER:                 -10.067
REMARK INTRA:                  -0.487
REMARK UNBOUND:                -0.892
REMARK  Name = 
REMARK  7 active torsions:
REMARK  status: ('A' for Active; 'I' for Inactive)
REMARK    1  A    between atoms: C_2  and  C_20
REMARK    2  A    between atoms: N_3  and  C_4
REMARK    3  A    between atoms: C_4  and  C_5
REMARK    4  A    between atoms: C_8  and  C_9
REMARK    5  A    between atoms: C_9  and  C_10
REMARK    6  A    between atoms: C_10  and  O_11
REMARK    7  A    between atoms: C_10  and  C_12
REMARK                            x       y       z     vdW  Elec       q    Type
REMARK                         _______ _______ _______ _____ _____    ______ ____
ROOT
ATOM      1  C   UNL     1      47.242   4.901  14.546  0.00  0.00    +0.000 A 
ATOM      2  C   UNL     1      47.520   6.084  13.858  0.00  0.00    +0.000 A 
ATOM      3  C   UNL     1      46.919   6.342  12.628  0.00  0.00    +0.000 A 
ATOM      4  C   UNL     1      46.017   5.433  12.064  0.00  0.00    +0.000 A 
ATOM      5  C   UNL     1      45.726   4.255  12.768  0.00  0.00    +0.000 A 
ATOM      6  C   UNL     1      46.325   3.994  14.001  0.00  0.00    +0.000 A 
ENDROOT
BRANCH   1   7
ATOM      7  C   UNL     1      47.902   4.632  15.866  0.00  0.00    +0.000 C 
BRANCH   7  10
ATOM      8  O   UNL     1      48.430   4.510  18.538  0.00  0.00    +0.000 OA
ATOM      9  C   UNL     1      48.012   5.583  18.108  0.00  0.00    +0.000 C 
ATOM     10  N   UNL     1      47.708   5.732  16.776  0.00  0.00    +0.000 N 
ATOM     11  H   UNL     1      47.533   6.646  16.388  0.00  0.00    +0.000 HD
BRANCH   9  12
ATOM     12  C   UNL     1      47.814   6.754  18.922  0.00  0.00    +0.000 A 
ATOM     13  C   UNL     1      47.518   6.876  20.271  0.00  0.00    +0.000 A 
ATOM     14  N   UNL     1      47.405   8.181  20.662  0.00  0.00    +0.000 NA
ATOM     15  C   UNL     1      47.636   8.883  19.577  0.00  0.00    +0.000 A 
ATOM     16  C   UNL     1      47.649  10.292  19.368  0.00  0.00    +0.000 A 
ATOM     17  C   UNL     1      47.919  10.787  18.145  0.00  0.00    +0.000 A 
ATOM     18  C   UNL     1      48.210   9.913  17.024  0.00  0.00    +0.000 A 
ATOM     19  C   UNL     1      48.197   8.582  17.213  0.00  0.00    +0.000 A 
ATOM     20  N   UNL     1      47.905   8.064  18.479  0.00  0.00    +0.000 N 
ENDBRANCH   9  12
ENDBRANCH   7  10
ENDBRANCH   1   7
BRANCH   4  21
ATOM     21  C   UNL     1      45.351   5.652  10.719  0.00  0.00    +0.000 C 
BRANCH  21  22
ATOM     22  C   UNL     1      44.561   4.464  10.131  0.00  0.00    +0.000 C 
BRANCH  22  23
ATOM     23  C   UNL     1      45.302   3.639   9.101  0.00  0.00    +0.000 A 
ATOM     24  C   UNL     1      46.043   4.306   8.114  0.00  0.00    +0.000 A 
ATOM     25  C   UNL     1      46.804   3.594   7.192  0.00  0.00    +0.000 A 
ATOM     26  C   UNL     1      46.848   2.204   7.248  0.00  0.00    +0.000 A 
ATOM     27  C   UNL     1      46.119   1.526   8.220  0.00  0.00    +0.000 A 
ATOM     28  C   UNL     1      45.352   2.237   9.143  0.00  0.00    +0.000 A 
ENDBRANCH  22  23
BRANCH  22  29
ATOM     29  O   UNL     1      43.361   4.912   9.494  0.00  0.00    +0.000 OA
ATOM     30  H   UNL     1      43.558   5.771   9.084  0.00  0.00    +0.000 HD
ENDBRANCH  22  29
ENDBRANCH  21  22
ENDBRANCH   4  21
TORSDOF 7
ENDMDL
MODEL 8
REMARK VINA RESULT:    -6.894      4.913      7.559
REMARK INTER + INTRA:         -10.406
REMARK INTER:                  -9.461
REMARK INTRA:                  -0.945
REMARK UNBOUND:                -0.892
REMARK  Name = 
REMARK  7 active torsions:
REMARK  status: ('A' for Active; 'I' for Inactive)
REMARK    1  A    between atoms: C_2  and  C_20
REMARK    2  A    between atoms: N_3  and  C_4
REMARK    3  A    between atoms: C_4  and  C_5
REMARK    4  A    between atoms: C_8  and  C_9
REMARK    5  A    between atoms: C_9  and  C_10
REMARK    6  A    between atoms: C_10  and  O_11
REMARK    7  A    between atoms: C_10  and  C_12
REMARK                            x       y       z     vdW  Elec       q    Type
REMARK                         _______ _______ _______ _____ _____    ______ ____
ROOT
ATOM      1  C   UNL     1      47.688   7.114  13.692  0.00  0.00    +0.000 A 
ATOM      2  C   UNL     1      46.776   8.083  13.270  0.00  0.00    +0.000 A 
ATOM      3  C   UNL     1      45.631   7.716  12.567  0.00  0.00    +0.000 A 
ATOM      4  C   UNL     1      45.363   6.372  12.281  0.00  0.00    +0.000 A 
ATOM      5  C   UNL     1      46.274   5.400  12.722  0.00  0.00    +0.000 A 
ATOM      6  C   UNL     1      47.421   5.766  13.429  0.00  0.00    +0.000 A 
ENDROOT
BRANCH   1   7
ATOM      7  C   UNL     1      48.921   7.525  14.441  0.00  0.00    +0.000 C 
BRANCH   7  10
ATOM      8  O   UNL     1      50.084   8.310  16.779  0.00  0.00    +0.000 OA
ATOM      9  C   UNL     1      49.753   7.130  16.697  0.00  0.00    +0.000 C 
ATOM     10  N   UNL     1      49.171   6.643  15.552  0.00  0.00    +0.000 N 
ATOM     11  H   UNL     1      48.744   5.730  15.540  0.00  0.00    +0.000 HD
BRANCH   9  12
ATOM     12  C   UNL     1      49.926   6.171  17.759  0.00  0.00    +0.000 A 
ATOM     13  C   UNL     1      50.859   5.159  17.917  0.00  0.00    +0.000 A 
ATOM     14  N   UNL     1      50.676   4.460  19.078  0.00  0.00    +0.000 NA
ATOM     15  C   UNL     1      49.643   5.027  19.657  0.00  0.00    +0.000 A 
ATOM     16  C   UNL     1      48.987   4.728  20.886  0.00  0.00    +0.000 A 
ATOM     17  C   UNL     1      47.931   5.464  21.280  0.00  0.00    +0.000 A 
ATOM     18  C   UNL     1      47.445   6.575  20.483  0.00  0.00    +0.000 A 
ATOM     19  C   UNL     1      48.057   6.862  19.321  0.00  0.00    +0.000 A 
ATOM     20  N   UNL     1      49.147   6.091  18.903  0.00  0.00    +0.000 N 
ENDBRANCH   9  12
ENDBRANCH   7  10
ENDBRANCH   1   7
BRANCH   4  21
ATOM     21  C   UNL     1      44.146   5.917  11.500  0.00  0.00    +0.000 C 
BRANCH  21  22
ATOM     22  C   UNL     1      43.935   4.394  11.363  0.00  0.00    +0.000 C 
BRANCH  22  23
ATOM     23  C   UNL     1      44.541   3.766  10.126  0.00  0.00    +0.000 A 
ATOM     24  C   UNL     1      45.182   4.597   9.196  0.00  0.00    +0.000 A 
ATOM     25  C   UNL     1      45.821   4.060   8.082  0.00  0.00    +0.000 A 
ATOM     26  C   UNL     1      45.841   2.682   7.885  0.00  0.00    +0.000 A 
ATOM     27  C   UNL     1      45.209   1.843   8.798  0.00  0.00    +0.000 A 
ATOM     28  C   UNL     1      44.564   2.379   9.913  0.00  0.00    +0.000 A 
ENDBRANCH  22  23
BRANCH  22  29
ATOM     29  O   UNL     1      42.542   4.071  11.333  0.00  0.00    +0.000 OA
ATOM     30  H   UNL     1      42.112   4.710  10.739  0.00  0.00    +0.000 HD
ENDBRANCH  22  29
ENDBRANCH  21  22
ENDBRANCH   4  21
TORSDOF 7
ENDMDL
MODEL 9
REMARK VINA RESULT:    -6.664      6.611     12.696
REMARK INTER + INTRA:         -10.088
REMARK INTER:                  -9.025
REMARK INTRA:                  -1.063
REMARK UNBOUND:                -0.892
REMARK  Name = 
REMARK  7 active torsions:
REMARK  status: ('A' for Active; 'I' for Inactive)
REMARK    1  A    between atoms: C_2  and  C_20
REMARK    2  A    between atoms: N_3  and  C_4
REMARK    3  A    between atoms: C_4  and  C_5
REMARK    4  A    between atoms: C_8  and  C_9
REMARK    5  A    between atoms: C_9  and  C_10
REMARK    6  A    between atoms: C_10  and  O_11
REMARK    7  A    between atoms: C_10  and  C_12
REMARK                            x       y       z     vdW  Elec       q    Type
REMARK                         _______ _______ _______ _____ _____    ______ ____
ROOT
ATOM      1  C   UNL     1      47.843   4.512  18.127  0.00  0.00    +0.000 A 
ATOM      2  C   UNL     1      46.973   5.522  18.545  0.00  0.00    +0.000 A 
ATOM      3  C   UNL     1      47.212   6.213  19.730  0.00  0.00    +0.000 A 
ATOM      4  C   UNL     1      48.331   5.922  20.519  0.00  0.00    +0.000 A 
ATOM      5  C   UNL     1      49.213   4.920  20.085  0.00  0.00    +0.000 A 
ATOM      6  C   UNL     1      48.977   4.227  18.897  0.00  0.00    +0.000 A 
ENDROOT
BRANCH   1   7
ATOM      7  C   UNL     1      47.569   3.771  16.852  0.00  0.00    +0.000 C 
BRANCH   7  10
ATOM      8  O   UNL     1      47.426   3.158  14.199  0.00  0.00    +0.000 OA
ATOM      9  C   UNL     1      46.976   4.250  14.536  0.00  0.00    +0.000 C 
ATOM     10  N   UNL     1      47.017   4.648  15.851  0.00  0.00    +0.000 N 
ATOM     11  H   UNL     1      46.500   5.458  16.160  0.00  0.00    +0.000 HD
BRANCH   9  12
ATOM     12  C   UNL     1      46.372   5.188  13.625  0.00  0.00    +0.000 A 
ATOM     13  C   UNL     1      46.780   6.452  13.229  0.00  0.00    +0.000 A 
ATOM     14  N   UNL     1      45.913   7.023  12.339  0.00  0.00    +0.000 NA
ATOM     15  C   UNL     1      44.968   6.128  12.163  0.00  0.00    +0.000 A 
ATOM     16  C   UNL     1      43.796   6.163  11.353  0.00  0.00    +0.000 A 
ATOM     17  C   UNL     1      42.963   5.105  11.333  0.00  0.00    +0.000 A 
ATOM     18  C   UNL     1      43.236   3.913  12.114  0.00  0.00    +0.000 A 
ATOM     19  C   UNL     1      44.338   3.874  12.882  0.00  0.00    +0.000 A 
ATOM     20  N   UNL     1      45.200   4.976  12.915  0.00  0.00    +0.000 N 
ENDBRANCH   9  12
ENDBRANCH   7  10
ENDBRANCH   1   7
BRANCH   4  21
ATOM     21  C   UNL     1      48.628   6.626  21.828  0.00  0.00    +0.000 C 
BRANCH  21  22
ATOM     22  C   UNL     1      49.080   8.099  21.741  0.00  0.00    +0.000 C 
BRANCH  22  23
ATOM     23  C   UNL     1      47.982   9.097  21.443  0.00  0.00    +0.000 A 
ATOM     24  C   UNL     1      48.028   9.806  20.234  0.00  0.00    +0.000 A 
ATOM     25  C   UNL     1      47.003  10.677  19.879  0.00  0.00    +0.000 A 
ATOM     26  C   UNL     1      45.907  10.845  20.721  0.00  0.00    +0.000 A 
ATOM     27  C   UNL     1      45.845  10.150  21.925  0.00  0.00    +0.000 A 
ATOM     28  C   UNL     1      46.874   9.280  22.285  0.00  0.00    +0.000 A 
ENDBRANCH  22  23
BRANCH  22  29
ATOM     29  O   UNL     1      50.064   8.272  20.716  0.00  0.00    +0.000 OA
ATOM     30  H   UNL     1      50.271   9.221  20.674  0.00  0.00    +0.000 HD
ENDBRANCH  22  29
ENDBRANCH  21  22
ENDBRANCH   4  21
TORSDOF 7
ENDMDL
