MODEL 1
REMARK VINA RESULT:    -7.467      0.000      0.000
REMARK INTER + INTRA:          -9.839
REMARK INTER:                  -9.213
REMARK INTRA:                  -0.626
REMARK UNBOUND:                -0.626
REMARK  Name = 
REMARK  6 active torsions:
REMARK  status: ('A' for Active; 'I' for Inactive)
REMARK    1  A    between atoms: C_1  and  C_2
REMARK    2  A    between atoms: C_2  and  C_3
REMARK    3  A    between atoms: C_2  and  C_4
REMARK    4  A    between atoms: C_2  and  C_15
REMARK    5  A    between atoms: C_4  and  N_5
REMARK    6  A    between atoms: C_9  and  C_10
REMARK                            x       y       z     vdW  Elec       q    Type
REMARK                         _______ _______ _______ _____ _____    ______ ____
ROOT
ATOM      1  N   UNL     1      44.339   2.907  10.064  0.00  0.00    +0.000 N 
ATOM      2  C   UNL     1      45.143   2.690   8.934  0.00  0.00    +0.000 A 
ATOM      3  C   UNL     1      45.707   1.429   8.758  0.00  0.00    +0.000 A 
ATOM      4  C   UNL     1      46.499   1.178   7.637  0.00  0.00    +0.000 A 
ATOM      5  C   UNL     1      46.721   2.193   6.707  0.00  0.00    +0.000 A 
ATOM      6  C   UNL     1      46.147   3.424   6.976  0.00  0.00    +0.000 A 
ATOM      7  N   UNL     1      45.378   3.690   8.061  0.00  0.00    +0.000 NA
ATOM      8  H   UNL     1      43.606   2.199  10.085  0.00  0.00    +0.000 HD
ENDROOT
BRANCH   5   9
ATOM      9  C   UNL     1      47.531   1.909   5.497  0.00  0.00    +0.000 C 
ATOM     10  N   UNL     1      48.346   2.887   4.997  0.00  0.00    +0.000 N 
ATOM     11  O   UNL     1      47.470   0.822   4.936  0.00  0.00    +0.000 OA
ATOM     12  H   UNL     1      48.461   3.816   5.367  0.00  0.00    +0.000 HD
ATOM     13  H   UNL     1      48.861   2.654   4.158  0.00  0.00    +0.000 HD
ENDBRANCH   5   9
BRANCH   1  14
ATOM     14  C   UNL     1      43.781   4.260  10.165  0.00  0.00    +0.000 C 
BRANCH  14  16
ATOM     15  C   UNL     1      42.588   5.764  11.803  0.00  0.00    +0.000 C 
ATOM     16  C   UNL     1      43.759   4.763  11.643  0.00  0.00    +0.000 C 
ATOM     17  C   UNL     1      43.436   3.562  12.564  0.00  0.00    +0.000 C 
BRANCH  16  18
ATOM     18  C   UNL     1      45.131   5.344  12.051  0.00  0.00    +0.000 A 
ATOM     19  C   UNL     1      45.801   4.939  13.218  0.00  0.00    +0.000 A 
ATOM     20  C   UNL     1      47.051   5.464  13.557  0.00  0.00    +0.000 A 
ATOM     21  C   UNL     1      47.660   6.409  12.739  0.00  0.00    +0.000 A 
ATOM     22  C   UNL     1      47.014   6.836  11.585  0.00  0.00    +0.000 A 
ATOM     23  C   UNL     1      45.764   6.313  11.246  0.00  0.00    +0.000 A 
ENDBRANCH  16  18
ENDBRANCH  14  16
ENDBRANCH   1  14
TORSDOF 4
ENDMDL
MODEL 2
REMARK VINA RESULT:    -6.803      4.249      6.502
REMARK INTER + INTRA:          -9.020
REMARK INTER:                  -8.540
REMARK INTRA:                  -0.481
REMARK UNBOUND:                -0.626
REMARK  Name = 
REMARK  6 active torsions:
REMARK  status: ('A' for Active; 'I' for Inactive)
REMARK    1  A    between atoms: C_1  and  C_2
REMARK    2  A    between atoms: C_2  and  C_3
REMARK    3  A    between atoms: C_2  and  C_4
REMARK    4  A    between atoms: C_2  and  C_15
REMARK    5  A    between atoms: C_4  and  N_5
REMARK    6  A    between atoms: C_9  and  C_10
REMARK                            x       y       z     vdW  Elec       q    Type
REMARK                         _______ _______ _______ _____ _____    ______ ____
ROOT
ATOM      1  N   UNL     1      47.100   5.404  14.701  0.00  0.00    +0.000 N 
ATOM      2  C   UNL     1      46.380   4.956  13.583  0.00  0.00    +0.000 A 
ATOM      3  C   UNL     1      46.143   5.855  12.547  0.00  0.00    +0.000 A 
ATOM      4  C   UNL     1      45.443   5.435  11.415  0.00  0.00    +0.000 A 
ATOM      5  C   UNL     1      44.986   4.120  11.335  0.00  0.00    +0.000 A 
ATOM      6  C   UNL     1      45.240   3.302  12.423  0.00  0.00    +0.000 A 
ATOM      7  N   UNL     1      45.913   3.692  13.533  0.00  0.00    +0.000 NA
ATOM      8  H   UNL     1      47.983   5.802  14.384  0.00  0.00    +0.000 HD
ENDROOT
BRANCH   5   9
ATOM      9  C   UNL     1      44.278   3.668  10.112  0.00  0.00    +0.000 C 
ATOM     10  N   UNL     1      43.990   4.580   9.134  0.00  0.00    +0.000 N 
ATOM     11  O   UNL     1      43.939   2.500   9.973  0.00  0.00    +0.000 OA
ATOM     12  H   UNL     1      44.208   5.563   9.151  0.00  0.00    +0.000 HD
ATOM     13  H   UNL     1      43.486   4.230   8.330  0.00  0.00    +0.000 HD
ENDBRANCH   5   9
BRANCH   1  14
ATOM     14  C   UNL     1      47.309   4.389  15.739  0.00  0.00    +0.000 C 
BRANCH  14  16
ATOM     15  C   UNL     1      48.612   6.386  16.565  0.00  0.00    +0.000 C 
ATOM     16  C   UNL     1      48.201   4.931  16.901  0.00  0.00    +0.000 C 
ATOM     17  C   UNL     1      47.338   5.006  18.185  0.00  0.00    +0.000 C 
BRANCH  16  18
ATOM     18  C   UNL     1      49.399   3.993  17.165  0.00  0.00    +0.000 A 
ATOM     19  C   UNL     1      49.323   2.604  16.967  0.00  0.00    +0.000 A 
ATOM     20  C   UNL     1      50.427   1.777  17.194  0.00  0.00    +0.000 A 
ATOM     21  C   UNL     1      51.632   2.318  17.626  0.00  0.00    +0.000 A 
ATOM     22  C   UNL     1      51.732   3.688  17.840  0.00  0.00    +0.000 A 
ATOM     23  C   UNL     1      50.628   4.516  17.615  0.00  0.00    +0.000 A 
ENDBRANCH  16  18
ENDBRANCH  14  16
ENDBRANCH   1  14
TORSDOF 4
ENDMDL
MODEL 3
REMARK VINA RESULT:    -6.715      4.936      8.034
REMARK INTER + INTRA:          -8.911
REMARK INTER:                  -8.431
REMARK INTRA:                  -0.480
REMARK UNBOUND:                -0.626
REMARK  Name = 
REMARK  6 active torsions:
REMARK  status: ('A' for Active; 'I' for Inactive)
REMARK    1  A    between atoms: C_1  and  C_2
REMARK    2  A    between atoms: C_2  and  C_3
REMARK    3  A    between atoms: C_2  and  C_4
REMARK    4  A    between atoms: C_2  and  C_15
REMARK    5  A    between atoms: C_4  and  N_5
REMARK    6  A    between atoms: C_9  and  C_10
REMARK                            x       y       z     vdW  Elec       q    Type
REMARK                         _______ _______ _______ _____ _____    ______ ____
ROOT
ATOM      1  N   UNL     1      46.668   5.459  13.784  0.00  0.00    +0.000 N 
ATOM      2  C   UNL     1      47.259   5.045  14.987  0.00  0.00    +0.000 A 
ATOM      3  C   UNL     1      48.201   5.881  15.582  0.00  0.00    +0.000 A 
ATOM      4  C   UNL     1      48.796   5.504  16.787  0.00  0.00    +0.000 A 
ATOM      5  C   UNL     1      48.443   4.293  17.381  0.00  0.00    +0.000 A 
ATOM      6  C   UNL     1      47.521   3.510  16.707  0.00  0.00    +0.000 A 
ATOM      7  N   UNL     1      46.935   3.856  15.534  0.00  0.00    +0.000 NA
ATOM      8  H   UNL     1      46.267   6.386  13.919  0.00  0.00    +0.000 HD
ENDROOT
BRANCH   5   9
ATOM      9  C   UNL     1      49.049   3.916  18.682  0.00  0.00    +0.000 C 
ATOM     10  N   UNL     1      48.359   3.084  19.520  0.00  0.00    +0.000 N 
ATOM     11  O   UNL     1      50.145   4.347  19.018  0.00  0.00    +0.000 OA
ATOM     12  H   UNL     1      47.449   2.686  19.353  0.00  0.00    +0.000 HD
ATOM     13  H   UNL     1      48.802   2.874  20.406  0.00  0.00    +0.000 HD
ENDBRANCH   5   9
BRANCH   1  14
ATOM     14  C   UNL     1      45.683   4.522  13.234  0.00  0.00    +0.000 C 
BRANCH  14  16
ATOM     15  C   UNL     1      43.340   5.282  12.683  0.00  0.00    +0.000 C 
ATOM     16  C   UNL     1      44.790   5.199  12.146  0.00  0.00    +0.000 C 
ATOM     17  C   UNL     1      45.271   6.659  11.958  0.00  0.00    +0.000 C 
BRANCH  16  18
ATOM     18  C   UNL     1      44.909   4.462  10.794  0.00  0.00    +0.000 A 
ATOM     19  C   UNL     1      45.463   5.069   9.654  0.00  0.00    +0.000 A 
ATOM     20  C   UNL     1      45.578   4.375   8.446  0.00  0.00    +0.000 A 
ATOM     21  C   UNL     1      45.139   3.060   8.347  0.00  0.00    +0.000 A 
ATOM     22  C   UNL     1      44.576   2.439   9.457  0.00  0.00    +0.000 A 
ATOM     23  C   UNL     1      44.460   3.132  10.665  0.00  0.00    +0.000 A 
ENDBRANCH  16  18
ENDBRANCH  14  16
ENDBRANCH   1  14
TORSDOF 4
ENDMDL
MODEL 4
REMARK VINA RESULT:    -5.906      4.920      7.310
REMARK INTER + INTRA:          -7.913
REMARK INTER:                  -7.416
REMARK INTRA:                  -0.497
REMARK UNBOUND:                -0.626
REMARK  Name = 
REMARK  6 active torsions:
REMARK  status: ('A' for Active; 'I' for Inactive)
REMARK    1  A    between atoms: C_1  and  C_2
REMARK    2  A    between atoms: C_2  and  C_3
REMARK    3  A    between atoms: C_2  and  C_4
REMARK    4  A    between atoms: C_2  and  C_15
REMARK    5  A    between atoms: C_4  and  N_5
REMARK    6  A    between atoms: C_9  and  C_10
REMARK                            x       y       z     vdW  Elec       q    Type
REMARK                         _______ _______ _______ _____ _____    ______ ____
ROOT
ATOM      1  N   UNL     1      47.751   5.517  15.370  0.00  0.00    +0.000 N 
ATOM      2  C   UNL     1      46.971   5.347  14.216  0.00  0.00    +0.000 A 
ATOM      3  C   UNL     1      47.094   6.284  13.193  0.00  0.00    +0.000 A 
ATOM      4  C   UNL     1      46.344   6.135  12.026  0.00  0.00    +0.000 A 
ATOM      5  C   UNL     1      45.476   5.052  11.898  0.00  0.00    +0.000 A 
ATOM      6  C   UNL     1      45.393   4.185  12.975  0.00  0.00    +0.000 A 
ATOM      7  N   UNL     1      46.110   4.315  14.119  0.00  0.00    +0.000 NA
ATOM      8  H   UNL     1      48.729   5.597  15.095  0.00  0.00    +0.000 HD
ENDROOT
BRANCH   5   9
ATOM      9  C   UNL     1      44.710   4.876  10.639  0.00  0.00    +0.000 C 
ATOM     10  N   UNL     1      45.319   5.153   9.446  0.00  0.00    +0.000 N 
ATOM     11  O   UNL     1      43.544   4.501  10.655  0.00  0.00    +0.000 OA
ATOM     12  H   UNL     1      46.262   5.481   9.318  0.00  0.00    +0.000 HD
ATOM     13  H   UNL     1      44.750   5.041   8.616  0.00  0.00    +0.000 HD
ENDBRANCH   5   9
BRANCH   1  14
ATOM     14  C   UNL     1      47.562   4.480  16.391  0.00  0.00    +0.000 C 
BRANCH  14  16
ATOM     15  C   UNL     1      49.364   2.968  17.305  0.00  0.00    +0.000 C 
ATOM     16  C   UNL     1      48.783   4.402  17.362  0.00  0.00    +0.000 C 
ATOM     17  C   UNL     1      49.891   5.345  16.832  0.00  0.00    +0.000 C 
BRANCH  16  18
ATOM     18  C   UNL     1      48.388   4.854  18.785  0.00  0.00    +0.000 A 
ATOM     19  C   UNL     1      48.955   4.285  19.938  0.00  0.00    +0.000 A 
ATOM     20  C   UNL     1      48.597   4.724  21.216  0.00  0.00    +0.000 A 
ATOM     21  C   UNL     1      47.662   5.740  21.372  0.00  0.00    +0.000 A 
ATOM     22  C   UNL     1      47.078   6.314  20.249  0.00  0.00    +0.000 A 
ATOM     23  C   UNL     1      47.434   5.875  18.971  0.00  0.00    +0.000 A 
ENDBRANCH  16  18
ENDBRANCH  14  16
ENDBRANCH   1  14
TORSDOF 4
ENDMDL
MODEL 5
REMARK VINA RESULT:    -5.893      3.961      6.489
REMARK INTER + INTRA:          -7.897
REMARK INTER:                  -7.306
REMARK INTRA:                  -0.591
REMARK UNBOUND:                -0.626
REMARK  Name = 
REMARK  6 active torsions:
REMARK  status: ('A' for Active; 'I' for Inactive)
REMARK    1  A    between atoms: C_1  and  C_2
REMARK    2  A    between atoms: C_2  and  C_3
REMARK    3  A    between atoms: C_2  and  C_4
REMARK    4  A    between atoms: C_2  and  C_15
REMARK    5  A    between atoms: C_4  and  N_5
REMARK    6  A    between atoms: C_9  and  C_10
REMARK                            x       y       z     vdW  Elec       q    Type
REMARK                         _______ _______ _______ _____ _____    ______ ____
ROOT
ATOM      1  N   UNL     1      46.004   6.113  12.828  0.00  0.00    +0.000 N 
ATOM      2  C   UNL     1      47.273   6.701  12.719  0.00  0.00    +0.000 A 
ATOM      3  C   UNL     1      48.105   6.689  13.836  0.00  0.00    +0.000 A 
ATOM      4  C   UNL     1      49.379   7.252  13.754  0.00  0.00    +0.000 A 
ATOM      5  C   UNL     1      49.805   7.824  12.556  0.00  0.00    +0.000 A 
ATOM      6  C   UNL     1      48.903   7.820  11.505  0.00  0.00    +0.000 A 
ATOM      7  N   UNL     1      47.660   7.282  11.565  0.00  0.00    +0.000 NA
ATOM      8  H   UNL     1      46.114   5.156  13.162  0.00  0.00    +0.000 HD
ENDROOT
BRANCH   5   9
ATOM      9  C   UNL     1      51.175   8.386  12.464  0.00  0.00    +0.000 C 
ATOM     10  N   UNL     1      51.674   9.100  13.518  0.00  0.00    +0.000 N 
ATOM     11  O   UNL     1      51.855   8.230  11.457  0.00  0.00    +0.000 OA
ATOM     12  H   UNL     1      51.198   9.301  14.383  0.00  0.00    +0.000 HD
ATOM     13  H   UNL     1      52.603   9.483  13.400  0.00  0.00    +0.000 HD
ENDBRANCH   5   9
BRANCH   1  14
ATOM     14  C   UNL     1      45.200   6.165  11.602  0.00  0.00    +0.000 C 
BRANCH  14  16
ATOM     15  C   UNL     1      44.505   3.982  12.659  0.00  0.00    +0.000 C 
ATOM     16  C   UNL     1      44.428   4.828  11.365  0.00  0.00    +0.000 C 
ATOM     17  C   UNL     1      42.931   5.160  11.147  0.00  0.00    +0.000 C 
BRANCH  16  18
ATOM     18  C   UNL     1      44.959   4.096  10.113  0.00  0.00    +0.000 A 
ATOM     19  C   UNL     1      44.862   2.703   9.960  0.00  0.00    +0.000 A 
ATOM     20  C   UNL     1      45.332   2.064   8.809  0.00  0.00    +0.000 A 
ATOM     21  C   UNL     1      45.913   2.802   7.785  0.00  0.00    +0.000 A 
ATOM     22  C   UNL     1      46.032   4.181   7.914  0.00  0.00    +0.000 A 
ATOM     23  C   UNL     1      45.563   4.820   9.065  0.00  0.00    +0.000 A 
ENDBRANCH  16  18
ENDBRANCH  14  16
ENDBRANCH   1  14
TORSDOF 4
ENDMDL
MODEL 6
REMARK VINA RESULT:    -5.705      3.873      7.205
REMARK INTER + INTRA:          -7.664
REMARK INTER:                  -7.197
REMARK INTRA:                  -0.468
REMARK UNBOUND:                -0.626
REMARK  Name = 
REMARK  6 active torsions:
REMARK  status: ('A' for Active; 'I' for Inactive)
REMARK    1  A    between atoms: C_1  and  C_2
REMARK    2  A    between atoms: C_2  and  C_3
REMARK    3  A    between atoms: C_2  and  C_4
REMARK    4  A    between atoms: C_2  and  C_15
REMARK    5  A    between atoms: C_4  and  N_5
REMARK    6  A    between atoms: C_9  and  C_10
REMARK                            x       y       z     vdW  Elec       q    Type
REMARK                         _______ _______ _______ _____ _____    ______ ____
ROOT
ATOM      1  N   UNL     1      45.069   5.566  10.458  0.00  0.00    +0.000 N 
ATOM      2  C   UNL     1      45.731   6.454  11.319  0.00  0.00    +0.000 A 
ATOM      3  C   UNL     1      45.098   7.651  11.646  0.00  0.00    +0.000 A 
ATOM      4  C   UNL     1      45.724   8.548  12.512  0.00  0.00    +0.000 A 
ATOM      5  C   UNL     1      46.977   8.239  13.039  0.00  0.00    +0.000 A 
ATOM      6  C   UNL     1      47.547   7.042  12.637  0.00  0.00    +0.000 A 
ATOM      7  N   UNL     1      46.958   6.159  11.794  0.00  0.00    +0.000 NA
ATOM      8  H   UNL     1      44.143   5.371  10.837  0.00  0.00    +0.000 HD
ENDROOT
BRANCH   5   9
ATOM      9  C   UNL     1      47.620   9.179  13.990  0.00  0.00    +0.000 C 
ATOM     10  N   UNL     1      47.343   9.067  15.325  0.00  0.00    +0.000 N 
ATOM     11  O   UNL     1      48.381  10.055  13.597  0.00  0.00    +0.000 OA
ATOM     12  H   UNL     1      46.725   8.398  15.753  0.00  0.00    +0.000 HD
ATOM     13  H   UNL     1      47.787   9.745  15.932  0.00  0.00    +0.000 HD
ENDBRANCH   5   9
BRANCH   1  14
ATOM     14  C   UNL     1      45.805   4.328  10.175  0.00  0.00    +0.000 C 
BRANCH  14  16
ATOM     15  C   UNL     1      44.159   2.416  10.118  0.00  0.00    +0.000 C 
ATOM     16  C   UNL     1      44.993   3.379   9.238  0.00  0.00    +0.000 C 
ATOM     17  C   UNL     1      43.977   4.232   8.439  0.00  0.00    +0.000 C 
BRANCH  16  18
ATOM     18  C   UNL     1      45.924   2.656   8.240  0.00  0.00    +0.000 A 
ATOM     19  C   UNL     1      46.118   1.264   8.266  0.00  0.00    +0.000 A 
ATOM     20  C   UNL     1      46.950   0.629   7.340  0.00  0.00    +0.000 A 
ATOM     21  C   UNL     1      47.612   1.371   6.368  0.00  0.00    +0.000 A 
ATOM     22  C   UNL     1      47.448   2.750   6.326  0.00  0.00    +0.000 A 
ATOM     23  C   UNL     1      46.616   3.386   7.252  0.00  0.00    +0.000 A 
ENDBRANCH  16  18
ENDBRANCH  14  16
ENDBRANCH   1  14
TORSDOF 4
ENDMDL
MODEL 7
REMARK VINA RESULT:    -5.682      3.946      6.378
REMARK INTER + INTRA:          -7.636
REMARK INTER:                  -6.908
REMARK INTRA:                  -0.728
REMARK UNBOUND:                -0.626
REMARK  Name = 
REMARK  6 active torsions:
REMARK  status: ('A' for Active; 'I' for Inactive)
REMARK    1  A    between atoms: C_1  and  C_2
REMARK    2  A    between atoms: C_2  and  C_3
REMARK    3  A    between atoms: C_2  and  C_4
REMARK    4  A    between atoms: C_2  and  C_15
REMARK    5  A    between atoms: C_4  and  N_5
REMARK    6  A    between atoms: C_9  and  C_10
REMARK                            x       y       z     vdW  Elec       q    Type
REMARK                         _______ _______ _______ _____ _____    ______ ____
ROOT
ATOM      1  N   UNL     1      48.209   6.948  12.815  0.00  0.00    +0.000 N 
ATOM      2  C   UNL     1      47.154   6.077  12.506  0.00  0.00    +0.000 A 
ATOM      3  C   UNL     1      46.850   5.061  13.409  0.00  0.00    +0.000 A 
ATOM      4  C   UNL     1      45.796   4.188  13.137  0.00  0.00    +0.000 A 
ATOM      5  C   UNL     1      45.060   4.338  11.963  0.00  0.00    +0.000 A 
ATOM      6  C   UNL     1      45.449   5.356  11.107  0.00  0.00    +0.000 A 
ATOM      7  N   UNL     1      46.472   6.212  11.350  0.00  0.00    +0.000 NA
ATOM      8  H   UNL     1      48.044   7.348  13.737  0.00  0.00    +0.000 HD
ENDROOT
BRANCH   5   9
ATOM      9  C   UNL     1      43.916   3.432  11.698  0.00  0.00    +0.000 C 
ATOM     10  N   UNL     1      43.692   2.380  12.543  0.00  0.00    +0.000 N 
ATOM     11  O   UNL     1      43.182   3.606  10.734  0.00  0.00    +0.000 OA
ATOM     12  H   UNL     1      44.239   2.135  13.352  0.00  0.00    +0.000 HD
ATOM     13  H   UNL     1      42.914   1.776  12.309  0.00  0.00    +0.000 HD
ENDBRANCH   5   9
BRANCH   1  14
ATOM     14  C   UNL     1      48.453   7.991  11.812  0.00  0.00    +0.000 C 
BRANCH  14  16
ATOM     15  C   UNL     1      48.473   9.303  13.967  0.00  0.00    +0.000 C 
ATOM     16  C   UNL     1      48.333   9.420  12.429  0.00  0.00    +0.000 C 
ATOM     17  C   UNL     1      49.536  10.266  11.943  0.00  0.00    +0.000 C 
BRANCH  16  18
ATOM     18  C   UNL     1      47.028  10.111  11.977  0.00  0.00    +0.000 A 
ATOM     19  C   UNL     1      47.028  11.295  11.219  0.00  0.00    +0.000 A 
ATOM     20  C   UNL     1      45.835  11.892  10.804  0.00  0.00    +0.000 A 
ATOM     21  C   UNL     1      44.612  11.322  11.140  0.00  0.00    +0.000 A 
ATOM     22  C   UNL     1      44.582  10.158  11.899  0.00  0.00    +0.000 A 
ATOM     23  C   UNL     1      45.775   9.561  12.315  0.00  0.00    +0.000 A 
ENDBRANCH  16  18
ENDBRANCH  14  16
ENDBRANCH   1  14
TORSDOF 4
ENDMDL
MODEL 8
REMARK VINA RESULT:    -5.569      3.653      6.053
REMARK INTER + INTRA:          -7.498
REMARK INTER:                  -6.880
REMARK INTRA:                  -0.618
REMARK UNBOUND:                -0.626
REMARK  Name = 
REMARK  6 active torsions:
REMARK  status: ('A' for Active; 'I' for Inactive)
REMARK    1  A    between atoms: C_1  and  C_2
REMARK    2  A    between atoms: C_2  and  C_3
REMARK    3  A    between atoms: C_2  and  C_4
REMARK    4  A    between atoms: C_2  and  C_15
REMARK    5  A    between atoms: C_4  and  N_5
REMARK    6  A    between atoms: C_9  and  C_10
REMARK                            x       y       z     vdW  Elec       q    Type
REMARK                         _______ _______ _______ _____ _____    ______ ____
ROOT
ATOM      1  N   UNL     1      47.268   6.676  13.991  0.00  0.00    +0.000 N 
ATOM      2  C   UNL     1      46.526   5.990  13.018  0.00  0.00    +0.000 A 
ATOM      3  C   UNL     1      45.960   4.765  13.362  0.00  0.00    +0.000 A 
ATOM      4  C   UNL     1      45.203   4.066  12.420  0.00  0.00    +0.000 A 
ATOM      5  C   UNL     1      45.025   4.599  11.145  0.00  0.00    +0.000 A 
ATOM      6  C   UNL     1      45.648   5.807  10.879  0.00  0.00    +0.000 A 
ATOM      7  N   UNL     1      46.390   6.500  11.777  0.00  0.00    +0.000 NA
ATOM      8  H   UNL     1      46.691   6.787  14.825  0.00  0.00    +0.000 HD
ENDROOT
BRANCH   5   9
ATOM      9  C   UNL     1      44.187   3.870  10.161  0.00  0.00    +0.000 C 
ATOM     10  N   UNL     1      44.085   4.354   8.886  0.00  0.00    +0.000 N 
ATOM     11  O   UNL     1      43.579   2.855  10.477  0.00  0.00    +0.000 OA
ATOM     12  H   UNL     1      44.527   5.184   8.524  0.00  0.00    +0.000 HD
ATOM     13  H   UNL     1      43.484   3.837   8.257  0.00  0.00    +0.000 HD
ENDBRANCH   5   9
BRANCH   1  14
ATOM     14  C   UNL     1      47.820   7.960  13.545  0.00  0.00    +0.000 C 
BRANCH  14  16
ATOM     15  C   UNL     1      49.176   9.555  14.954  0.00  0.00    +0.000 C 
ATOM     16  C   UNL     1      49.230   8.225  14.163  0.00  0.00    +0.000 C 
ATOM     17  C   UNL     1      49.527   7.112  15.197  0.00  0.00    +0.000 C 
BRANCH  16  18
ATOM     18  C   UNL     1      50.326   8.195  13.075  0.00  0.00    +0.000 A 
ATOM     19  C   UNL     1      51.631   8.660  13.312  0.00  0.00    +0.000 A 
ATOM     20  C   UNL     1      52.613   8.605  12.318  0.00  0.00    +0.000 A 
ATOM     21  C   UNL     1      52.313   8.086  11.064  0.00  0.00    +0.000 A 
ATOM     22  C   UNL     1      51.027   7.629  10.799  0.00  0.00    +0.000 A 
ATOM     23  C   UNL     1      50.044   7.685  11.792  0.00  0.00    +0.000 A 
ENDBRANCH  16  18
ENDBRANCH  14  16
ENDBRANCH   1  14
TORSDOF 4
ENDMDL
MODEL 9
REMARK VINA RESULT:    -5.550      5.161      7.172
REMARK INTER + INTRA:          -7.474
REMARK INTER:                  -6.961
REMARK INTRA:                  -0.513
REMARK UNBOUND:                -0.626
REMARK  Name = 
REMARK  6 active torsions:
REMARK  status: ('A' for Active; 'I' for Inactive)
REMARK    1  A    between atoms: C_1  and  C_2
REMARK    2  A    between atoms: C_2  and  C_3
REMARK    3  A    between atoms: C_2  and  C_4
REMARK    4  A    between atoms: C_2  and  C_15
REMARK    5  A    between atoms: C_4  and  N_5
REMARK    6  A    between atoms: C_9  and  C_10
REMARK                            x       y       z     vdW  Elec       q    Type
REMARK                         _______ _______ _______ _____ _____    ______ ____
ROOT
ATOM      1  N   UNL     1      43.904   8.677  11.047  0.00  0.00    +0.000 N 
ATOM      2  C   UNL     1      44.513   7.540  11.599  0.00  0.00    +0.000 A 
ATOM      3  C   UNL     1      43.895   6.306  11.416  0.00  0.00    +0.000 A 
ATOM      4  C   UNL     1      44.484   5.154  11.940  0.00  0.00    +0.000 A 
ATOM      5  C   UNL     1      45.683   5.252  12.644  0.00  0.00    +0.000 A 
ATOM      6  C   UNL     1      46.213   6.521  12.805  0.00  0.00    +0.000 A 
ATOM      7  N   UNL     1      45.654   7.653  12.308  0.00  0.00    +0.000 NA
ATOM      8  H   UNL     1      43.750   8.516  10.053  0.00  0.00    +0.000 HD
ENDROOT
BRANCH   5   9
ATOM      9  C   UNL     1      46.325   4.019  13.164  0.00  0.00    +0.000 C 
ATOM     10  N   UNL     1      45.770   2.805  12.869  0.00  0.00    +0.000 N 
ATOM     11  O   UNL     1      47.331   4.076  13.861  0.00  0.00    +0.000 OA
ATOM     12  H   UNL     1      44.940   2.643  12.321  0.00  0.00    +0.000 HD
ATOM     13  H   UNL     1      46.229   1.994  13.265  0.00  0.00    +0.000 HD
ENDBRANCH   5   9
BRANCH   1  14
ATOM     14  C   UNL     1      44.628   9.932  11.283  0.00  0.00    +0.000 C 
BRANCH  14  16
ATOM     15  C   UNL     1      42.358  10.972  10.915  0.00  0.00    +0.000 C 
ATOM     16  C   UNL     1      43.876  11.153  10.665  0.00  0.00    +0.000 C 
ATOM     17  C   UNL     1      44.297  12.428  11.436  0.00  0.00    +0.000 C 
BRANCH  16  18
ATOM     18  C   UNL     1      44.241  11.334   9.175  0.00  0.00    +0.000 A 
ATOM     19  C   UNL     1      43.447  10.814   8.139  0.00  0.00    +0.000 A 
ATOM     20  C   UNL     1      43.787  11.007   6.797  0.00  0.00    +0.000 A 
ATOM     21  C   UNL     1      44.931  11.720   6.459  0.00  0.00    +0.000 A 
ATOM     22  C   UNL     1      45.741  12.236   7.464  0.00  0.00    +0.000 A 
ATOM     23  C   UNL     1      45.402  12.043   8.806  0.00  0.00    +0.000 A 
ENDBRANCH  16  18
ENDBRANCH  14  16
ENDBRANCH   1  14
TORSDOF 4
ENDMDL
