MODEL 1
REMARK VINA RESULT:    -7.195      0.000      0.000
REMARK INTER + INTRA:         -11.052
REMARK INTER:                 -10.139
REMARK INTRA:                  -0.913
REMARK UNBOUND:                -0.913
REMARK  Name = 
REMARK  9 active torsions:
REMARK  status: ('A' for Active; 'I' for Inactive)
REMARK    1  A    between atoms: C_1  and  C_2
REMARK    2  A    between atoms: C_2  and  N_3
REMARK    3  A    between atoms: N_3  and  C_4
REMARK    4  A    between atoms: N_3  and  C_15
REMARK    5  A    between atoms: C_4  and  C_5
REMARK    6  A    between atoms: C_5  and  C_6
REMARK    7  A    between atoms: C_10  and  C_11
REMARK    8  A    between atoms: C_19  and  O_20
REMARK    9  A    between atoms: O_20  and  C_21
REMARK                            x       y       z     vdW  Elec       q    Type
REMARK                         _______ _______ _______ _____ _____    ______ ____
ROOT
ATOM      1  C   UNL     1      44.291   2.955  12.192  0.00  0.00    +0.000 C 
ENDROOT
BRANCH   1   2
ATOM      2  N   UNL     1      44.254   4.404  12.529  0.00  0.00    +0.000 N 
BRANCH   2   3
ATOM      3  C   UNL     1      45.482   5.057  12.742  0.00  0.00    +0.000 A 
ATOM      4  C   UNL     1      45.953   6.060  11.872  0.00  0.00    +0.000 A 
ATOM      5  C   UNL     1      47.163   6.731  12.084  0.00  0.00    +0.000 A 
ATOM      6  C   UNL     1      47.941   6.434  13.194  0.00  0.00    +0.000 A 
ATOM      7  C   UNL     1      47.502   5.471  14.094  0.00  0.00    +0.000 A 
ATOM      8  C   UNL     1      46.303   4.779  13.851  0.00  0.00    +0.000 A 
BRANCH   7   9
ATOM      9  O   UNL     1      48.172   5.104  15.232  0.00  0.00    +0.000 OA
ATOM     10  C   UNL     1      47.369   4.488  16.234  0.00  0.00    +0.000 C 
ENDBRANCH   7   9
ENDBRANCH   2   3
BRANCH   2  12
ATOM     11  C   UNL     1      42.338   5.820  11.782  0.00  0.00    +0.000 C 
ATOM     12  C   UNL     1      43.001   5.065  12.926  0.00  0.00    +0.000 C 
ENDBRANCH   2  12
ENDBRANCH   1   2
BRANCH   1  13
ATOM     13  C   UNL     1      43.727   2.563  10.828  0.00  0.00    +0.000 C 
BRANCH  13  14
ATOM     14  C   UNL     1      44.689   2.857   9.699  0.00  0.00    +0.000 A 
ATOM     15  N   UNL     1      44.687   4.091   9.153  0.00  0.00    +0.000 NA
ATOM     16  C   UNL     1      45.468   4.296   8.072  0.00  0.00    +0.000 A 
ATOM     17  C   UNL     1      46.241   3.312   7.501  0.00  0.00    +0.000 A 
ATOM     18  C   UNL     1      46.179   2.093   8.133  0.00  0.00    +0.000 A 
ATOM     19  N   UNL     1      45.421   1.831   9.230  0.00  0.00    +0.000 NA
BRANCH  18  20
ATOM     20  C   UNL     1      46.964   0.944   7.583  0.00  0.00    +0.000 C 
ATOM     21  N   UNL     1      47.993   1.283   6.750  0.00  0.00    +0.000 N 
ATOM     22  O   UNL     1      46.710  -0.222   7.858  0.00  0.00    +0.000 OA
ATOM     23  H   UNL     1      48.185   2.259   6.555  0.00  0.00    +0.000 HD
ATOM     24  H   UNL     1      48.580   0.559   6.360  0.00  0.00    +0.000 HD
ENDBRANCH  18  20
ENDBRANCH  13  14
ENDBRANCH   1  13
TORSDOF 7
ENDMDL
MODEL 2
REMARK VINA RESULT:    -6.757      2.600      7.092
REMARK INTER + INTRA:         -10.435
REMARK INTER:                  -9.772
REMARK INTRA:                  -0.662
REMARK UNBOUND:                -0.913
REMARK  Name = 
REMARK  9 active torsions:
REMARK  status: ('A' for Active; 'I' for Inactive)
REMARK    1  A    between atoms: C_1  and  C_2
REMARK    2  A    between atoms: C_2  and  N_3
REMARK    3  A    between atoms: N_3  and  C_4
REMARK    4  A    between atoms: N_3  and  C_15
REMARK    5  A    between atoms: C_4  and  C_5
REMARK    6  A    between atoms: C_5  and  C_6
REMARK    7  A    between atoms: C_10  and  C_11
REMARK    8  A    between atoms: C_19  and  O_20
REMARK    9  A    between atoms: O_20  and  C_21
REMARK                            x       y       z     vdW  Elec       q    Type
REMARK                         _______ _______ _______ _____ _____    ______ ____
ROOT
ATOM      1  C   UNL     1      45.932   5.521  12.181  0.00  0.00    +0.000 C 
ENDROOT
BRANCH   1   2
ATOM      2  N   UNL     1      44.771   5.299  11.277  0.00  0.00    +0.000 N 
BRANCH   2   3
ATOM      3  C   UNL     1      44.920   4.360  10.239  0.00  0.00    +0.000 A 
ATOM      4  C   UNL     1      44.389   3.059  10.330  0.00  0.00    +0.000 A 
ATOM      5  C   UNL     1      44.513   2.123   9.297  0.00  0.00    +0.000 A 
ATOM      6  C   UNL     1      45.162   2.465   8.118  0.00  0.00    +0.000 A 
ATOM      7  C   UNL     1      45.678   3.747   7.974  0.00  0.00    +0.000 A 
ATOM      8  C   UNL     1      45.577   4.666   9.033  0.00  0.00    +0.000 A 
BRANCH   7   9
ATOM      9  O   UNL     1      46.322   4.207   6.855  0.00  0.00    +0.000 OA
ATOM     10  C   UNL     1      46.937   3.200   6.057  0.00  0.00    +0.000 C 
ENDBRANCH   7   9
ENDBRANCH   2   3
BRANCH   2  12
ATOM     11  C   UNL     1      42.355   5.605  11.833  0.00  0.00    +0.000 C 
ATOM     12  C   UNL     1      43.625   6.223  11.261  0.00  0.00    +0.000 C 
ENDBRANCH   2  12
ENDBRANCH   1   2
BRANCH   1  13
ATOM     13  C   UNL     1      46.332   4.345  13.070  0.00  0.00    +0.000 C 
BRANCH  13  14
ATOM     14  C   UNL     1      47.004   4.791  14.349  0.00  0.00    +0.000 A 
ATOM     15  N   UNL     1      47.842   5.848  14.305  0.00  0.00    +0.000 NA
ATOM     16  C   UNL     1      48.519   6.154  15.431  0.00  0.00    +0.000 A 
ATOM     17  C   UNL     1      48.408   5.436  16.598  0.00  0.00    +0.000 A 
ATOM     18  C   UNL     1      47.525   4.383  16.544  0.00  0.00    +0.000 A 
ATOM     19  N   UNL     1      46.807   4.035  15.444  0.00  0.00    +0.000 NA
BRANCH  18  20
ATOM     20  C   UNL     1      47.341   3.520  17.753  0.00  0.00    +0.000 C 
ATOM     21  N   UNL     1      48.059   3.894  18.854  0.00  0.00    +0.000 N 
ATOM     22  O   UNL     1      46.597   2.547  17.763  0.00  0.00    +0.000 OA
ATOM     23  H   UNL     1      48.654   4.714  18.815  0.00  0.00    +0.000 HD
ATOM     24  H   UNL     1      47.966   3.370  19.713  0.00  0.00    +0.000 HD
ENDBRANCH  18  20
ENDBRANCH  13  14
ENDBRANCH   1  13
TORSDOF 7
ENDMDL
MODEL 3
REMARK VINA RESULT:    -6.241      2.920      7.144
REMARK INTER + INTRA:          -9.708
REMARK INTER:                  -9.052
REMARK INTRA:                  -0.657
REMARK UNBOUND:                -0.913
REMARK  Name = 
REMARK  9 active torsions:
REMARK  status: ('A' for Active; 'I' for Inactive)
REMARK    1  A    between atoms: C_1  and  C_2
REMARK    2  A    between atoms: C_2  and  N_3
REMARK    3  A    between atoms: N_3  and  C_4
REMARK    4  A    between atoms: N_3  and  C_15
REMARK    5  A    between atoms: C_4  and  C_5
REMARK    6  A    between atoms: C_5  and  C_6
REMARK    7  A    between atoms: C_10  and  C_11
REMARK    8  A    between atoms: C_19  and  O_20
REMARK    9  A    between atoms: O_20  and  C_21
REMARK                            x       y       z     vdW  Elec       q    Type
REMARK                         _______ _______ _______ _____ _____    ______ ____
ROOT
ATOM      1  C   UNL     1      46.968   6.692  12.488  0.00  0.00    +0.000 C 
ENDROOT
BRANCH   1   2
ATOM      2  N   UNL     1      45.662   6.798  11.782  0.00  0.00    +0.000 N 
BRANCH   2   3
ATOM      3  C   UNL     1      45.271   5.720  10.966  0.00  0.00    +0.000 A 
ATOM      4  C   UNL     1      44.281   4.802  11.369  0.00  0.00    +0.000 A 
ATOM      5  C   UNL     1      43.868   3.738  10.558  0.00  0.00    +0.000 A 
ATOM      6  C   UNL     1      44.422   3.565   9.297  0.00  0.00    +0.000 A 
ATOM      7  C   UNL     1      45.383   4.463   8.848  0.00  0.00    +0.000 A 
ATOM      8  C   UNL     1      45.814   5.506   9.686  0.00  0.00    +0.000 A 
BRANCH   7   9
ATOM      9  O   UNL     1      45.989   4.407   7.620  0.00  0.00    +0.000 OA
ATOM     10  C   UNL     1      46.288   3.094   7.154  0.00  0.00    +0.000 C 
ENDBRANCH   7   9
ENDBRANCH   2   3
BRANCH   2  12
ATOM     11  C   UNL     1      45.378   9.084  12.745  0.00  0.00    +0.000 C 
ATOM     12  C   UNL     1      44.947   8.080  11.685  0.00  0.00    +0.000 C 
ENDBRANCH   2  12
ENDBRANCH   1   2
BRANCH   1  13
ATOM     13  C   UNL     1      47.295   5.334  13.108  0.00  0.00    +0.000 C 
BRANCH  13  14
ATOM     14  C   UNL     1      47.784   5.453  14.533  0.00  0.00    +0.000 A 
ATOM     15  N   UNL     1      48.698   6.401  14.827  0.00  0.00    +0.000 NA
ATOM     16  C   UNL     1      49.207   6.412  16.076  0.00  0.00    +0.000 A 
ATOM     17  C   UNL     1      48.853   5.502  17.044  0.00  0.00    +0.000 A 
ATOM     18  C   UNL     1      47.911   4.581  16.650  0.00  0.00    +0.000 A 
ATOM     19  N   UNL     1      47.355   4.529  15.411  0.00  0.00    +0.000 NA
BRANCH  18  20
ATOM     20  C   UNL     1      47.468   3.529  17.617  0.00  0.00    +0.000 C 
ATOM     21  N   UNL     1      48.245   3.396  18.735  0.00  0.00    +0.000 N 
ATOM     22  O   UNL     1      46.477   2.834  17.431  0.00  0.00    +0.000 OA
ATOM     23  H   UNL     1      49.050   3.998  18.865  0.00  0.00    +0.000 HD
ATOM     24  H   UNL     1      47.992   2.721  19.442  0.00  0.00    +0.000 HD
ENDBRANCH  18  20
ENDBRANCH  13  14
ENDBRANCH   1  13
TORSDOF 7
ENDMDL
MODEL 4
REMARK VINA RESULT:    -6.146      2.225      6.870
REMARK INTER + INTRA:          -9.575
REMARK INTER:                  -8.920
REMARK INTRA:                  -0.655
REMARK UNBOUND:                -0.913
REMARK  Name = 
REMARK  9 active torsions:
REMARK  status: ('A' for Active; 'I' for Inactive)
REMARK    1  A    between atoms: C_1  and  C_2
REMARK    2  A    between atoms: C_2  and  N_3
REMARK    3  A    between atoms: N_3  and  C_4
REMARK    4  A    between atoms: N_3  and  C_15
REMARK    5  A    between atoms: C_4  and  C_5
REMARK    6  A    between atoms: C_5  and  C_6
REMARK    7  A    between atoms: C_10  and  C_11
REMARK    8  A    between atoms: C_19  and  O_20
REMARK    9  A    between atoms: O_20  and  C_21
REMARK                            x       y       z     vdW  Elec       q    Type
REMARK                         _______ _______ _______ _____ _____    ______ ____
ROOT
ATOM      1  C   UNL     1      45.036   4.009  12.598  0.00  0.00    +0.000 C 
ENDROOT
BRANCH   1   2
ATOM      2  N   UNL     1      44.187   4.014  11.375  0.00  0.00    +0.000 N 
BRANCH   2   3
ATOM      3  C   UNL     1      44.804   3.698  10.150  0.00  0.00    +0.000 A 
ATOM      4  C   UNL     1      45.228   4.695   9.250  0.00  0.00    +0.000 A 
ATOM      5  C   UNL     1      45.862   4.394   8.039  0.00  0.00    +0.000 A 
ATOM      6  C   UNL     1      46.112   3.074   7.691  0.00  0.00    +0.000 A 
ATOM      7  C   UNL     1      45.735   2.058   8.562  0.00  0.00    +0.000 A 
ATOM      8  C   UNL     1      45.069   2.373   9.759  0.00  0.00    +0.000 A 
BRANCH   7   9
ATOM      9  O   UNL     1      45.944   0.722   8.337  0.00  0.00    +0.000 OA
ATOM     10  C   UNL     1      46.993   0.420   7.422  0.00  0.00    +0.000 C 
ENDBRANCH   7   9
ENDBRANCH   2   3
BRANCH   2  12
ATOM     11  C   UNL     1      42.868   6.128  11.533  0.00  0.00    +0.000 C 
ATOM     12  C   UNL     1      42.843   4.614  11.378  0.00  0.00    +0.000 C 
ENDBRANCH   2  12
ENDBRANCH   1   2
BRANCH   1  13
ATOM     13  C   UNL     1      46.215   4.979  12.607  0.00  0.00    +0.000 C 
BRANCH  13  14
ATOM     14  C   UNL     1      46.979   4.946  13.912  0.00  0.00    +0.000 A 
ATOM     15  N   UNL     1      46.661   4.005  14.825  0.00  0.00    +0.000 NA
ATOM     16  C   UNL     1      47.273   4.068  16.025  0.00  0.00    +0.000 A 
ATOM     17  C   UNL     1      48.179   5.045  16.361  0.00  0.00    +0.000 A 
ATOM     18  C   UNL     1      48.441   5.954  15.362  0.00  0.00    +0.000 A 
ATOM     19  N   UNL     1      47.866   5.933  14.131  0.00  0.00    +0.000 NA
BRANCH  18  20
ATOM     20  C   UNL     1      49.398   7.074  15.626  0.00  0.00    +0.000 C 
ATOM     21  N   UNL     1      49.712   7.844  14.540  0.00  0.00    +0.000 N 
ATOM     22  O   UNL     1      49.869   7.293  16.734  0.00  0.00    +0.000 OA
ATOM     23  H   UNL     1      49.293   7.643  13.640  0.00  0.00    +0.000 HD
ATOM     24  H   UNL     1      50.335   8.632  14.650  0.00  0.00    +0.000 HD
ENDBRANCH  18  20
ENDBRANCH  13  14
ENDBRANCH   1  13
TORSDOF 7
ENDMDL
MODEL 5
REMARK VINA RESULT:    -6.024      2.705      7.153
REMARK INTER + INTRA:          -9.402
REMARK INTER:                  -8.748
REMARK INTRA:                  -0.654
REMARK UNBOUND:                -0.913
REMARK  Name = 
REMARK  9 active torsions:
REMARK  status: ('A' for Active; 'I' for Inactive)
REMARK    1  A    between atoms: C_1  and  C_2
REMARK    2  A    between atoms: C_2  and  N_3
REMARK    3  A    between atoms: N_3  and  C_4
REMARK    4  A    between atoms: N_3  and  C_15
REMARK    5  A    between atoms: C_4  and  C_5
REMARK    6  A    between atoms: C_5  and  C_6
REMARK    7  A    between atoms: C_10  and  C_11
REMARK    8  A    between atoms: C_19  and  O_20
REMARK    9  A    between atoms: O_20  and  C_21
REMARK                            x       y       z     vdW  Elec       q    Type
REMARK                         _______ _______ _______ _____ _____    ______ ____
ROOT
ATOM      1  C   UNL     1      46.055   5.588  12.486  0.00  0.00    +0.000 C 
ENDROOT
BRANCH   1   2
ATOM      2  N   UNL     1      44.945   5.577  11.494  0.00  0.00    +0.000 N 
BRANCH   2   3
ATOM      3  C   UNL     1      44.984   4.602  10.481  0.00  0.00    +0.000 A 
ATOM      4  C   UNL     1      44.347   3.353  10.624  0.00  0.00    +0.000 A 
ATOM      5  C   UNL     1      44.360   2.382   9.615  0.00  0.00    +0.000 A 
ATOM      6  C   UNL     1      45.000   2.637   8.410  0.00  0.00    +0.000 A 
ATOM      7  C   UNL     1      45.618   3.866   8.214  0.00  0.00    +0.000 A 
ATOM      8  C   UNL     1      45.627   4.818   9.248  0.00  0.00    +0.000 A 
BRANCH   7   9
ATOM      9  O   UNL     1      46.265   4.239   7.065  0.00  0.00    +0.000 OA
ATOM     10  C   UNL     1      46.672   3.163   6.225  0.00  0.00    +0.000 C 
ENDBRANCH   7   9
ENDBRANCH   2   3
BRANCH   2  12
ATOM     11  C   UNL     1      44.702   8.062  11.457  0.00  0.00    +0.000 C 
ATOM     12  C   UNL     1      44.010   6.708  11.380  0.00  0.00    +0.000 C 
ENDBRANCH   2  12
ENDBRANCH   1   2
BRANCH   1  13
ATOM     13  C   UNL     1      46.040   4.474  13.531  0.00  0.00    +0.000 C 
BRANCH  13  14
ATOM     14  C   UNL     1      47.037   4.712  14.642  0.00  0.00    +0.000 A 
ATOM     15  N   UNL     1      47.021   3.891  15.713  0.00  0.00    +0.000 NA
ATOM     16  C   UNL     1      47.839   4.193  16.742  0.00  0.00    +0.000 A 
ATOM     17  C   UNL     1      48.663   5.293  16.755  0.00  0.00    +0.000 A 
ATOM     18  C   UNL     1      48.612   6.063  15.617  0.00  0.00    +0.000 A 
ATOM     19  N   UNL     1      47.819   5.803  14.545  0.00  0.00    +0.000 NA
BRANCH  18  20
ATOM     20  C   UNL     1      49.453   7.298  15.532  0.00  0.00    +0.000 C 
ATOM     21  N   UNL     1      50.435   7.274  14.580  0.00  0.00    +0.000 N 
ATOM     22  O   UNL     1      49.279   8.268  16.259  0.00  0.00    +0.000 OA
ATOM     23  H   UNL     1      50.542   6.460  13.985  0.00  0.00    +0.000 HD
ATOM     24  H   UNL     1      51.026   8.083  14.452  0.00  0.00    +0.000 HD
ENDBRANCH  18  20
ENDBRANCH  13  14
ENDBRANCH   1  13
TORSDOF 7
ENDMDL
MODEL 6
REMARK VINA RESULT:    -5.980      2.473      4.390
REMARK INTER + INTRA:          -9.339
REMARK INTER:                  -8.532
REMARK INTRA:                  -0.808
REMARK UNBOUND:                -0.913
REMARK  Name = 
REMARK  9 active torsions:
REMARK  status: ('A' for Active; 'I' for Inactive)
REMARK    1  A    between atoms: C_1  and  C_2
REMARK    2  A    between atoms: C_2  and  N_3
REMARK    3  A    between atoms: N_3  and  C_4
REMARK    4  A    between atoms: N_3  and  C_15
REMARK    5  A    between atoms: C_4  and  C_5
REMARK    6  A    between atoms: C_5  and  C_6
REMARK    7  A    between atoms: C_10  and  C_11
REMARK    8  A    between atoms: C_19  and  O_20
REMARK    9  A    between atoms: O_20  and  C_21
REMARK                            x       y       z     vdW  Elec       q    Type
REMARK                         _______ _______ _______ _____ _____    ______ ____
ROOT
ATOM      1  C   UNL     1      46.344   6.824  12.531  0.00  0.00    +0.000 C 
ENDROOT
BRANCH   1   2
ATOM      2  N   UNL     1      47.706   7.060  13.083  0.00  0.00    +0.000 N 
BRANCH   2   3
ATOM      3  C   UNL     1      48.028   6.452  14.311  0.00  0.00    +0.000 A 
ATOM      4  C   UNL     1      48.971   7.012  15.195  0.00  0.00    +0.000 A 
ATOM      5  C   UNL     1      49.285   6.428  16.428  0.00  0.00    +0.000 A 
ATOM      6  C   UNL     1      48.647   5.263  16.831  0.00  0.00    +0.000 A 
ATOM      7  C   UNL     1      47.690   4.690  16.002  0.00  0.00    +0.000 A 
ATOM      8  C   UNL     1      47.410   5.268  14.752  0.00  0.00    +0.000 A 
BRANCH   7   9
ATOM      9  O   UNL     1      46.984   3.554  16.298  0.00  0.00    +0.000 OA
ATOM     10  C   UNL     1      47.359   2.907  17.510  0.00  0.00    +0.000 C 
ENDBRANCH   7   9
ENDBRANCH   2   3
BRANCH   2  12
ATOM     11  C   UNL     1      49.738   7.570  11.724  0.00  0.00    +0.000 C 
ATOM     12  C   UNL     1      48.578   8.117  12.545  0.00  0.00    +0.000 C 
ENDBRANCH   2  12
ENDBRANCH   1   2
BRANCH   1  13
ATOM     13  C   UNL     1      46.226   6.800  11.009  0.00  0.00    +0.000 C 
BRANCH  13  14
ATOM     14  C   UNL     1      45.616   5.515  10.497  0.00  0.00    +0.000 A 
ATOM     15  N   UNL     1      45.676   5.251   9.175  0.00  0.00    +0.000 NA
ATOM     16  C   UNL     1      45.023   4.159   8.726  0.00  0.00    +0.000 A 
ATOM     17  C   UNL     1      44.297   3.325   9.543  0.00  0.00    +0.000 A 
ATOM     18  C   UNL     1      44.302   3.674  10.873  0.00  0.00    +0.000 A 
ATOM     19  N   UNL     1      44.950   4.753  11.384  0.00  0.00    +0.000 NA
BRANCH  18  20
ATOM     20  C   UNL     1      43.526   2.846  11.848  0.00  0.00    +0.000 C 
ATOM     21  N   UNL     1      43.626   3.234  13.156  0.00  0.00    +0.000 N 
ATOM     22  O   UNL     1      42.842   1.889  11.507  0.00  0.00    +0.000 OA
ATOM     23  H   UNL     1      44.189   4.040  13.402  0.00  0.00    +0.000 HD
ATOM     24  H   UNL     1      43.110   2.734  13.866  0.00  0.00    +0.000 HD
ENDBRANCH  18  20
ENDBRANCH  13  14
ENDBRANCH   1  13
TORSDOF 7
ENDMDL
MODEL 7
REMARK VINA RESULT:    -5.916      4.015      7.375
REMARK INTER + INTRA:          -9.249
REMARK INTER:                  -8.484
REMARK INTRA:                  -0.765
REMARK UNBOUND:                -0.913
REMARK  Name = 
REMARK  9 active torsions:
REMARK  status: ('A' for Active; 'I' for Inactive)
REMARK    1  A    between atoms: C_1  and  C_2
REMARK    2  A    between atoms: C_2  and  N_3
REMARK    3  A    between atoms: N_3  and  C_4
REMARK    4  A    between atoms: N_3  and  C_15
REMARK    5  A    between atoms: C_4  and  C_5
REMARK    6  A    between atoms: C_5  and  C_6
REMARK    7  A    between atoms: C_10  and  C_11
REMARK    8  A    between atoms: C_19  and  O_20
REMARK    9  A    between atoms: O_20  and  C_21
REMARK                            x       y       z     vdW  Elec       q    Type
REMARK                         _______ _______ _______ _____ _____    ______ ____
ROOT
ATOM      1  C   UNL     1      48.506   6.543  14.367  0.00  0.00    +0.000 C 
ENDROOT
BRANCH   1   2
ATOM      2  N   UNL     1      47.339   7.176  13.693  0.00  0.00    +0.000 N 
BRANCH   2   3
ATOM      3  C   UNL     1      46.567   6.374  12.833  0.00  0.00    +0.000 A 
ATOM      4  C   UNL     1      46.576   6.556  11.437  0.00  0.00    +0.000 A 
ATOM      5  C   UNL     1      45.828   5.752  10.569  0.00  0.00    +0.000 A 
ATOM      6  C   UNL     1      45.053   4.715  11.070  0.00  0.00    +0.000 A 
ATOM      7  C   UNL     1      45.036   4.481  12.440  0.00  0.00    +0.000 A 
ATOM      8  C   UNL     1      45.764   5.318  13.304  0.00  0.00    +0.000 A 
BRANCH   7   9
ATOM      9  O   UNL     1      44.326   3.480  13.051  0.00  0.00    +0.000 OA
ATOM     10  C   UNL     1      43.472   2.734  12.189  0.00  0.00    +0.000 C 
ENDBRANCH   7   9
ENDBRANCH   2   3
BRANCH   2  12
ATOM     11  C   UNL     1      48.311   9.363  12.979  0.00  0.00    +0.000 C 
ATOM     12  C   UNL     1      47.166   8.638  13.674  0.00  0.00    +0.000 C 
ENDBRANCH   2  12
ENDBRANCH   1   2
BRANCH   1  13
ATOM     13  C   UNL     1      48.765   6.968  15.811  0.00  0.00    +0.000 C 
BRANCH  13  14
ATOM     14  C   UNL     1      48.618   5.821  16.785  0.00  0.00    +0.000 A 
ATOM     15  N   UNL     1      48.047   6.059  17.984  0.00  0.00    +0.000 NA
ATOM     16  C   UNL     1      48.033   5.051  18.880  0.00  0.00    +0.000 A 
ATOM     17  C   UNL     1      48.582   3.815  18.635  0.00  0.00    +0.000 A 
ATOM     18  C   UNL     1      49.134   3.669  17.384  0.00  0.00    +0.000 A 
ATOM     19  N   UNL     1      49.167   4.643  16.437  0.00  0.00    +0.000 NA
BRANCH  18  20
ATOM     20  C   UNL     1      49.779   2.369  17.017  0.00  0.00    +0.000 C 
ATOM     21  N   UNL     1      50.771   1.949  17.860  0.00  0.00    +0.000 N 
ATOM     22  O   UNL     1      49.446   1.720  16.034  0.00  0.00    +0.000 OA
ATOM     23  H   UNL     1      51.012   2.504  18.673  0.00  0.00    +0.000 HD
ATOM     24  H   UNL     1      51.235   1.069  17.686  0.00  0.00    +0.000 HD
ENDBRANCH  18  20
ENDBRANCH  13  14
ENDBRANCH   1  13
TORSDOF 7
ENDMDL
MODEL 8
REMARK VINA RESULT:    -5.870      3.273      7.658
REMARK INTER + INTRA:          -9.185
REMARK INTER:                  -8.577
REMARK INTRA:                  -0.608
REMARK UNBOUND:                -0.913
REMARK  Name = 
REMARK  9 active torsions:
REMARK  status: ('A' for Active; 'I' for Inactive)
REMARK    1  A    between atoms: C_1  and  C_2
REMARK    2  A    between atoms: C_2  and  N_3
REMARK    3  A    between atoms: N_3  and  C_4
REMARK    4  A    between atoms: N_3  and  C_15
REMARK    5  A    between atoms: C_4  and  C_5
REMARK    6  A    between atoms: C_5  and  C_6
REMARK    7  A    between atoms: C_10  and  C_11
REMARK    8  A    between atoms: C_19  and  O_20
REMARK    9  A    between atoms: O_20  and  C_21
REMARK                            x       y       z     vdW  Elec       q    Type
REMARK                         _______ _______ _______ _____ _____    ______ ____
ROOT
ATOM      1  C   UNL     1      47.332   5.342  13.676  0.00  0.00    +0.000 C 
ENDROOT
BRANCH   1   2
ATOM      2  N   UNL     1      46.456   6.212  12.844  0.00  0.00    +0.000 N 
BRANCH   2   3
ATOM      3  C   UNL     1      45.273   5.649  12.331  0.00  0.00    +0.000 A 
ATOM      4  C   UNL     1      44.034   5.795  12.986  0.00  0.00    +0.000 A 
ATOM      5  C   UNL     1      42.847   5.258  12.475  0.00  0.00    +0.000 A 
ATOM      6  C   UNL     1      42.853   4.566  11.272  0.00  0.00    +0.000 A 
ATOM      7  C   UNL     1      44.049   4.421  10.578  0.00  0.00    +0.000 A 
ATOM      8  C   UNL     1      45.240   4.936  11.119  0.00  0.00    +0.000 A 
BRANCH   7   9
ATOM      9  O   UNL     1      44.179   3.776   9.376  0.00  0.00    +0.000 OA
ATOM     10  C   UNL     1      44.838   2.514   9.435  0.00  0.00    +0.000 C 
ENDBRANCH   7   9
ENDBRANCH   2   3
BRANCH   2  12
ATOM     11  C   UNL     1      46.559   8.681  13.205  0.00  0.00    +0.000 C 
ATOM     12  C   UNL     1      46.935   7.501  12.319  0.00  0.00    +0.000 C 
ENDBRANCH   2  12
ENDBRANCH   1   2
BRANCH   1  13
ATOM     13  C   UNL     1      46.630   4.478  14.721  0.00  0.00    +0.000 C 
BRANCH  13  14
ATOM     14  C   UNL     1      47.591   3.908  15.739  0.00  0.00    +0.000 A 
ATOM     15  N   UNL     1      48.210   2.741  15.463  0.00  0.00    +0.000 NA
ATOM     16  C   UNL     1      48.971   2.194  16.434  0.00  0.00    +0.000 A 
ATOM     17  C   UNL     1      49.128   2.756  17.678  0.00  0.00    +0.000 A 
ATOM     18  C   UNL     1      48.463   3.946  17.860  0.00  0.00    +0.000 A 
ATOM     19  N   UNL     1      47.694   4.551  16.917  0.00  0.00    +0.000 NA
BRANCH  18  20
ATOM     20  C   UNL     1      48.547   4.635  19.185  0.00  0.00    +0.000 C 
ATOM     21  N   UNL     1      48.505   3.813  20.277  0.00  0.00    +0.000 N 
ATOM     22  O   UNL     1      48.649   5.851  19.293  0.00  0.00    +0.000 OA
ATOM     23  H   UNL     1      48.435   2.809  20.151  0.00  0.00    +0.000 HD
ATOM     24  H   UNL     1      48.580   4.208  21.204  0.00  0.00    +0.000 HD
ENDBRANCH  18  20
ENDBRANCH  13  14
ENDBRANCH   1  13
TORSDOF 7
ENDMDL
MODEL 9
REMARK VINA RESULT:    -5.597      2.257      4.580
REMARK INTER + INTRA:          -8.801
REMARK INTER:                  -8.027
REMARK INTRA:                  -0.773
REMARK UNBOUND:                -0.913
REMARK  Name = 
REMARK  9 active torsions:
REMARK  status: ('A' for Active; 'I' for Inactive)
REMARK    1  A    between atoms: C_1  and  C_2
REMARK    2  A    between atoms: C_2  and  N_3
REMARK    3  A    between atoms: N_3  and  C_4
REMARK    4  A    between atoms: N_3  and  C_15
REMARK    5  A    between atoms: C_4  and  C_5
REMARK    6  A    between atoms: C_5  and  C_6
REMARK    7  A    between atoms: C_10  and  C_11
REMARK    8  A    between atoms: C_19  and  O_20
REMARK    9  A    between atoms: O_20  and  C_21
REMARK                            x       y       z     vdW  Elec       q    Type
REMARK                         _______ _______ _______ _____ _____    ______ ____
ROOT
ATOM      1  C   UNL     1      47.332   6.583  12.348  0.00  0.00    +0.000 C 
ENDROOT
BRANCH   1   2
ATOM      2  N   UNL     1      48.236   7.220  13.344  0.00  0.00    +0.000 N 
BRANCH   2   3
ATOM      3  C   UNL     1      48.386   6.585  14.591  0.00  0.00    +0.000 A 
ATOM      4  C   UNL     1      49.261   7.080  15.578  0.00  0.00    +0.000 A 
ATOM      5  C   UNL     1      49.404   6.469  16.830  0.00  0.00    +0.000 A 
ATOM      6  C   UNL     1      48.656   5.344  17.147  0.00  0.00    +0.000 A 
ATOM      7  C   UNL     1      47.760   4.837  16.213  0.00  0.00    +0.000 A 
ATOM      8  C   UNL     1      47.652   5.440  14.948  0.00  0.00    +0.000 A 
BRANCH   7   9
ATOM      9  O   UNL     1      46.957   3.746  16.417  0.00  0.00    +0.000 OA
ATOM     10  C   UNL     1      47.302   2.944  17.543  0.00  0.00    +0.000 C 
ENDBRANCH   7   9
ENDBRANCH   2   3
BRANCH   2  12
ATOM     11  C   UNL     1      49.250   8.872  11.769  0.00  0.00    +0.000 C 
ATOM     12  C   UNL     1      48.716   8.600  13.169  0.00  0.00    +0.000 C 
ENDBRANCH   2  12
ENDBRANCH   1   2
BRANCH   1  13
ATOM     13  C   UNL     1      45.893   7.091  12.318  0.00  0.00    +0.000 C 
BRANCH  13  14
ATOM     14  C   UNL     1      44.893   5.980  12.087  0.00  0.00    +0.000 A 
ATOM     15  N   UNL     1      44.027   5.674  13.075  0.00  0.00    +0.000 NA
ATOM     16  C   UNL     1      43.225   4.604  12.892  0.00  0.00    +0.000 A 
ATOM     17  C   UNL     1      43.264   3.814  11.768  0.00  0.00    +0.000 A 
ATOM     18  C   UNL     1      44.174   4.211  10.818  0.00  0.00    +0.000 A 
ATOM     19  N   UNL     1      44.998   5.285  10.940  0.00  0.00    +0.000 NA
BRANCH  18  20
ATOM     20  C   UNL     1      44.316   3.410   9.562  0.00  0.00    +0.000 C 
ATOM     21  N   UNL     1      44.402   2.057   9.737  0.00  0.00    +0.000 N 
ATOM     22  O   UNL     1      44.350   3.923   8.450  0.00  0.00    +0.000 OA
ATOM     23  H   UNL     1      44.356   1.664  10.670  0.00  0.00    +0.000 HD
ATOM     24  H   UNL     1      44.476   1.452   8.930  0.00  0.00    +0.000 HD
ENDBRANCH  18  20
ENDBRANCH  13  14
ENDBRANCH   1  13
TORSDOF 7
ENDMDL
