MODEL 1
REMARK VINA RESULT:    -7.788      0.000      0.000
REMARK INTER + INTRA:         -13.783
REMARK INTER:                 -12.114
REMARK INTRA:                  -1.669
REMARK UNBOUND:                -1.669
REMARK  Name = 
REMARK  10 active torsions:
REMARK  status: ('A' for Active; 'I' for Inactive)
REMARK    1  A    between atoms: C_2  and  C_23
REMARK    2  A    between atoms: N_3  and  C_4
REMARK    3  A    between atoms: C_4  and  C_5
REMARK    4  A    between atoms: C_8  and  C_9
REMARK    5  A    between atoms: C_9  and  N_10
REMARK    6  A    between atoms: N_10  and  C_11
REMARK    7  A    between atoms: N_10  and  C_14
REMARK    8  A    between atoms: C_11  and  C_12
REMARK    9  A    between atoms: C_12  and  O_13
REMARK   10  A    between atoms: C_14  and  C_15
REMARK                            x       y       z     vdW  Elec       q    Type
REMARK                         _______ _______ _______ _____ _____    ______ ____
ROOT
ATOM      1  C   UNL     1      46.660   7.795  12.765  0.00  0.00    +0.000 A 
ATOM      2  C   UNL     1      47.193   6.826  11.911  0.00  0.00    +0.000 A 
ATOM      3  C   UNL     1      46.350   6.121  11.059  0.00  0.00    +0.000 A 
ATOM      4  C   UNL     1      44.982   6.378  11.102  0.00  0.00    +0.000 A 
ATOM      5  N   UNL     1      44.445   7.340  11.896  0.00  0.00    +0.000 NA
ATOM      6  C   UNL     1      45.291   8.022  12.702  0.00  0.00    +0.000 A 
ENDROOT
BRANCH   1   7
ATOM      7  C   UNL     1      47.509   8.492  13.785  0.00  0.00    +0.000 C 
BRANCH   7  10
ATOM      8  O   UNL     1      49.905   7.073  14.174  0.00  0.00    +0.000 OA
ATOM      9  C   UNL     1      49.030   7.000  15.030  0.00  0.00    +0.000 C 
ATOM     10  N   UNL     1      47.809   7.607  14.888  0.00  0.00    +0.000 N 
ATOM     11  H   UNL     1      47.207   7.690  15.699  0.00  0.00    +0.000 HD
BRANCH   9  12
ATOM     12  C   UNL     1      49.219   6.206  16.254  0.00  0.00    +0.000 A 
ATOM     13  C   UNL     1      50.164   6.600  17.192  0.00  0.00    +0.000 A 
ATOM     14  S   UNL     1      50.261   5.562  18.541  0.00  0.00    +0.000 S 
ATOM     15  C   UNL     1      49.009   4.576  17.942  0.00  0.00    +0.000 A 
ATOM     16  N   UNL     1      48.564   3.502  18.650  0.00  0.00    +0.000 NA
ATOM     17  C   UNL     1      47.573   2.880  18.104  0.00  0.00    +0.000 A 
ATOM     18  N   UNL     1      47.000   3.220  16.908  0.00  0.00    +0.000 N 
ATOM     19  C   UNL     1      47.480   4.235  16.112  0.00  0.00    +0.000 A 
ATOM     20  O   UNL     1      47.058   4.407  14.976  0.00  0.00    +0.000 OA
ATOM     21  C   UNL     1      48.548   5.012  16.713  0.00  0.00    +0.000 A 
ATOM     22  H   UNL     1      46.245   2.672  16.522  0.00  0.00    +0.000 HD
ENDBRANCH   9  12
ENDBRANCH   7  10
ENDBRANCH   1   7
BRANCH   4  23
ATOM     23  C   UNL     1      44.017   5.481  10.344  0.00  0.00    +0.000 C 
BRANCH  23  24
ATOM     24  N   UNL     1      44.525   4.082  10.140  0.00  0.00    +0.000 NA
BRANCH  24  25
ATOM     25  C   UNL     1      43.709   3.145  10.965  0.00  0.00    +0.000 C 
BRANCH  25  26
ATOM     26  C   UNL     1      43.997   3.169  12.480  0.00  0.00    +0.000 C 
BRANCH  26  27
ATOM     27  O   UNL     1      45.363   2.877  12.761  0.00  0.00    +0.000 OA
ATOM     28  H   UNL     1      45.704   3.647  13.251  0.00  0.00    +0.000 HD
ENDBRANCH  26  27
ENDBRANCH  25  26
ENDBRANCH  24  25
BRANCH  24  29
ATOM     29  C   UNL     1      44.401   3.741   8.703  0.00  0.00    +0.000 C 
BRANCH  29  30
ATOM     30  C   UNL     1      45.609   3.054   8.089  0.00  0.00    +0.000 A 
ATOM     31  C   UNL     1      45.880   1.713   8.362  0.00  0.00    +0.000 A 
ATOM     32  C   UNL     1      46.934   1.093   7.699  0.00  0.00    +0.000 A 
ATOM     33  C   UNL     1      47.692   1.823   6.791  0.00  0.00    +0.000 A 
ATOM     34  C   UNL     1      47.372   3.156   6.596  0.00  0.00    +0.000 A 
ATOM     35  N   UNL     1      46.353   3.783   7.220  0.00  0.00    +0.000 NA
ENDBRANCH  29  30
ENDBRANCH  24  29
ENDBRANCH  23  24
ENDBRANCH   4  23
TORSDOF 10
ENDMDL
MODEL 2
REMARK VINA RESULT:    -7.317      1.422      1.737
REMARK INTER + INTRA:         -13.050
REMARK INTER:                 -11.657
REMARK INTRA:                  -1.393
REMARK UNBOUND:                -1.669
REMARK  Name = 
REMARK  10 active torsions:
REMARK  status: ('A' for Active; 'I' for Inactive)
REMARK    1  A    between atoms: C_2  and  C_23
REMARK    2  A    between atoms: N_3  and  C_4
REMARK    3  A    between atoms: C_4  and  C_5
REMARK    4  A    between atoms: C_8  and  C_9
REMARK    5  A    between atoms: C_9  and  N_10
REMARK    6  A    between atoms: N_10  and  C_11
REMARK    7  A    between atoms: N_10  and  C_14
REMARK    8  A    between atoms: C_11  and  C_12
REMARK    9  A    between atoms: C_12  and  O_13
REMARK   10  A    between atoms: C_14  and  C_15
REMARK                            x       y       z     vdW  Elec       q    Type
REMARK                         _______ _______ _______ _____ _____    ______ ____
ROOT
ATOM      1  C   UNL     1      47.220   7.412  13.291  0.00  0.00    +0.000 A 
ATOM      2  C   UNL     1      46.203   8.252  12.833  0.00  0.00    +0.000 A 
ATOM      3  C   UNL     1      45.154   7.721  12.089  0.00  0.00    +0.000 A 
ATOM      4  C   UNL     1      45.164   6.360  11.791  0.00  0.00    +0.000 A 
ATOM      5  N   UNL     1      46.121   5.518  12.256  0.00  0.00    +0.000 NA
ATOM      6  C   UNL     1      47.120   6.059  12.992  0.00  0.00    +0.000 A 
ENDROOT
BRANCH   1   7
ATOM      7  C   UNL     1      48.430   7.957  13.989  0.00  0.00    +0.000 C 
BRANCH   7  10
ATOM      8  O   UNL     1      50.322   6.577  15.546  0.00  0.00    +0.000 OA
ATOM      9  C   UNL     1      49.351   7.076  16.103  0.00  0.00    +0.000 C 
ATOM     10  N   UNL     1      48.350   7.708  15.411  0.00  0.00    +0.000 N 
ATOM     11  H   UNL     1      47.685   8.276  15.924  0.00  0.00    +0.000 HD
BRANCH   9  12
ATOM     12  C   UNL     1      49.171   6.983  17.561  0.00  0.00    +0.000 A 
ATOM     13  C   UNL     1      49.127   8.142  18.324  0.00  0.00    +0.000 A 
ATOM     14  S   UNL     1      48.927   7.852  19.993  0.00  0.00    +0.000 S 
ATOM     15  C   UNL     1      48.842   6.170  19.746  0.00  0.00    +0.000 A 
ATOM     16  N   UNL     1      48.636   5.320  20.789  0.00  0.00    +0.000 NA
ATOM     17  C   UNL     1      48.536   4.077  20.450  0.00  0.00    +0.000 A 
ATOM     18  N   UNL     1      48.643   3.606  19.168  0.00  0.00    +0.000 N 
ATOM     19  C   UNL     1      48.949   4.416  18.098  0.00  0.00    +0.000 A 
ATOM     20  O   UNL     1      49.205   3.947  16.997  0.00  0.00    +0.000 OA
ATOM     21  C   UNL     1      49.001   5.831  18.415  0.00  0.00    +0.000 A 
ATOM     22  H   UNL     1      48.584   2.617  18.975  0.00  0.00    +0.000 HD
ENDBRANCH   9  12
ENDBRANCH   7  10
ENDBRANCH   1   7
BRANCH   4  23
ATOM     23  C   UNL     1      44.153   5.793  10.807  0.00  0.00    +0.000 C 
BRANCH  23  24
ATOM     24  N   UNL     1      44.355   4.335  10.506  0.00  0.00    +0.000 NA
BRANCH  24  25
ATOM     25  C   UNL     1      43.303   3.545  11.209  0.00  0.00    +0.000 C 
BRANCH  25  26
ATOM     26  C   UNL     1      43.750   2.854  12.513  0.00  0.00    +0.000 C 
BRANCH  26  27
ATOM     27  O   UNL     1      45.163   2.667  12.552  0.00  0.00    +0.000 OA
ATOM     28  H   UNL     1      45.356   2.297  13.432  0.00  0.00    +0.000 HD
ENDBRANCH  26  27
ENDBRANCH  25  26
ENDBRANCH  24  25
BRANCH  24  29
ATOM     29  C   UNL     1      44.250   4.139   9.040  0.00  0.00    +0.000 C 
BRANCH  29  30
ATOM     30  C   UNL     1      45.368   3.326   8.410  0.00  0.00    +0.000 A 
ATOM     31  C   UNL     1      45.501   1.965   8.684  0.00  0.00    +0.000 A 
ATOM     32  C   UNL     1      46.473   1.236   8.006  0.00  0.00    +0.000 A 
ATOM     33  C   UNL     1      47.288   1.879   7.084  0.00  0.00    +0.000 A 
ATOM     34  C   UNL     1      47.108   3.239   6.889  0.00  0.00    +0.000 A 
ATOM     35  N   UNL     1      46.171   3.971   7.527  0.00  0.00    +0.000 NA
ENDBRANCH  29  30
ENDBRANCH  24  29
ENDBRANCH  23  24
ENDBRANCH   4  23
TORSDOF 10
ENDMDL
MODEL 3
REMARK VINA RESULT:    -7.181      2.003      2.408
REMARK INTER + INTRA:         -12.839
REMARK INTER:                 -11.458
REMARK INTRA:                  -1.381
REMARK UNBOUND:                -1.669
REMARK  Name = 
REMARK  10 active torsions:
REMARK  status: ('A' for Active; 'I' for Inactive)
REMARK    1  A    between atoms: C_2  and  C_23
REMARK    2  A    between atoms: N_3  and  C_4
REMARK    3  A    between atoms: C_4  and  C_5
REMARK    4  A    between atoms: C_8  and  C_9
REMARK    5  A    between atoms: C_9  and  N_10
REMARK    6  A    between atoms: N_10  and  C_11
REMARK    7  A    between atoms: N_10  and  C_14
REMARK    8  A    between atoms: C_11  and  C_12
REMARK    9  A    between atoms: C_12  and  O_13
REMARK   10  A    between atoms: C_14  and  C_15
REMARK                            x       y       z     vdW  Elec       q    Type
REMARK                         _______ _______ _______ _____ _____    ______ ____
ROOT
ATOM      1  C   UNL     1      47.179   7.871  13.095  0.00  0.00    +0.000 A 
ATOM      2  C   UNL     1      47.418   6.675  12.415  0.00  0.00    +0.000 A 
ATOM      3  C   UNL     1      46.422   6.127  11.615  0.00  0.00    +0.000 A 
ATOM      4  C   UNL     1      45.190   6.775  11.537  0.00  0.00    +0.000 A 
ATOM      5  N   UNL     1      44.947   7.957  12.159  0.00  0.00    +0.000 NA
ATOM      6  C   UNL     1      45.941   8.475  12.917  0.00  0.00    +0.000 A 
ENDROOT
BRANCH   1   7
ATOM      7  C   UNL     1      48.176   8.435  14.063  0.00  0.00    +0.000 C 
BRANCH   7  10
ATOM      8  O   UNL     1      49.931   6.564  15.214  0.00  0.00    +0.000 OA
ATOM      9  C   UNL     1      48.971   6.954  15.869  0.00  0.00    +0.000 C 
ATOM     10  N   UNL     1      48.032   7.813  15.360  0.00  0.00    +0.000 N 
ATOM     11  H   UNL     1      47.384   8.262  15.997  0.00  0.00    +0.000 HD
BRANCH   9  12
ATOM     12  C   UNL     1      48.735   6.478  17.242  0.00  0.00    +0.000 A 
ATOM     13  C   UNL     1      48.987   5.151  17.564  0.00  0.00    +0.000 A 
ATOM     14  S   UNL     1      48.647   4.767  19.190  0.00  0.00    +0.000 S 
ATOM     15  C   UNL     1      48.199   6.374  19.533  0.00  0.00    +0.000 A 
ATOM     16  N   UNL     1      47.827   6.743  20.789  0.00  0.00    +0.000 NA
ATOM     17  C   UNL     1      47.570   8.002  20.918  0.00  0.00    +0.000 A 
ATOM     18  N   UNL     1      47.631   8.920  19.904  0.00  0.00    +0.000 N 
ATOM     19  C   UNL     1      47.906   8.575  18.600  0.00  0.00    +0.000 A 
ATOM     20  O   UNL     1      47.788   9.383  17.689  0.00  0.00    +0.000 OA
ATOM     21  C   UNL     1      48.273   7.183  18.415  0.00  0.00    +0.000 A 
ATOM     22  H   UNL     1      47.388   9.886  20.066  0.00  0.00    +0.000 HD
ENDBRANCH   9  12
ENDBRANCH   7  10
ENDBRANCH   1   7
BRANCH   4  23
ATOM     23  C   UNL     1      44.018   6.094  10.848  0.00  0.00    +0.000 C 
BRANCH  23  24
ATOM     24  N   UNL     1      44.194   4.613  10.676  0.00  0.00    +0.000 NA
BRANCH  24  25
ATOM     25  C   UNL     1      43.179   3.905  11.509  0.00  0.00    +0.000 C 
BRANCH  25  26
ATOM     26  C   UNL     1      43.706   2.706  12.324  0.00  0.00    +0.000 C 
BRANCH  26  27
ATOM     27  O   UNL     1      45.119   2.766  12.496  0.00  0.00    +0.000 OA
ATOM     28  H   UNL     1      45.500   2.347  11.703  0.00  0.00    +0.000 HD
ENDBRANCH  26  27
ENDBRANCH  25  26
ENDBRANCH  24  25
BRANCH  24  29
ATOM     29  C   UNL     1      44.006   4.280   9.244  0.00  0.00    +0.000 C 
BRANCH  29  30
ATOM     30  C   UNL     1      45.151   3.519   8.597  0.00  0.00    +0.000 A 
ATOM     31  C   UNL     1      45.310   2.151   8.815  0.00  0.00    +0.000 A 
ATOM     32  C   UNL     1      46.308   1.472   8.121  0.00  0.00    +0.000 A 
ATOM     33  C   UNL     1      47.120   2.172   7.238  0.00  0.00    +0.000 A 
ATOM     34  C   UNL     1      46.912   3.534   7.097  0.00  0.00    +0.000 A 
ATOM     35  N   UNL     1      45.950   4.218   7.752  0.00  0.00    +0.000 NA
ENDBRANCH  29  30
ENDBRANCH  24  29
ENDBRANCH  23  24
ENDBRANCH   4  23
TORSDOF 10
ENDMDL
MODEL 4
REMARK VINA RESULT:    -6.745      2.812      3.463
REMARK INTER + INTRA:         -12.161
REMARK INTER:                 -11.299
REMARK INTRA:                  -0.862
REMARK UNBOUND:                -1.669
REMARK  Name = 
REMARK  10 active torsions:
REMARK  status: ('A' for Active; 'I' for Inactive)
REMARK    1  A    between atoms: C_2  and  C_23
REMARK    2  A    between atoms: N_3  and  C_4
REMARK    3  A    between atoms: C_4  and  C_5
REMARK    4  A    between atoms: C_8  and  C_9
REMARK    5  A    between atoms: C_9  and  N_10
REMARK    6  A    between atoms: N_10  and  C_11
REMARK    7  A    between atoms: N_10  and  C_14
REMARK    8  A    between atoms: C_11  and  C_12
REMARK    9  A    between atoms: C_12  and  O_13
REMARK   10  A    between atoms: C_14  and  C_15
REMARK                            x       y       z     vdW  Elec       q    Type
REMARK                         _______ _______ _______ _____ _____    ______ ____
ROOT
ATOM      1  C   UNL     1      47.137   4.612  15.108  0.00  0.00    +0.000 A 
ATOM      2  C   UNL     1      46.813   3.517  14.305  0.00  0.00    +0.000 A 
ATOM      3  C   UNL     1      46.380   3.723  13.000  0.00  0.00    +0.000 A 
ATOM      4  C   UNL     1      46.252   5.030  12.534  0.00  0.00    +0.000 A 
ATOM      5  N   UNL     1      46.596   6.109  13.282  0.00  0.00    +0.000 NA
ATOM      6  C   UNL     1      47.030   5.877  14.543  0.00  0.00    +0.000 A 
ENDROOT
BRANCH   1   7
ATOM      7  C   UNL     1      47.490   4.445  16.556  0.00  0.00    +0.000 C 
BRANCH   7  10
ATOM      8  O   UNL     1      49.160   5.533  18.539  0.00  0.00    +0.000 OA
ATOM      9  C   UNL     1      49.633   4.729  17.745  0.00  0.00    +0.000 C 
ATOM     10  N   UNL     1      48.907   4.202  16.709  0.00  0.00    +0.000 N 
ATOM     11  H   UNL     1      49.274   3.398  16.213  0.00  0.00    +0.000 HD
BRANCH   9  12
ATOM     12  C   UNL     1      51.043   4.312  17.823  0.00  0.00    +0.000 A 
ATOM     13  C   UNL     1      52.019   5.243  18.153  0.00  0.00    +0.000 A 
ATOM     14  S   UNL     1      53.596   4.596  18.186  0.00  0.00    +0.000 S 
ATOM     15  C   UNL     1      53.024   3.038  17.809  0.00  0.00    +0.000 A 
ATOM     16  N   UNL     1      53.877   1.981  17.721  0.00  0.00    +0.000 NA
ATOM     17  C   UNL     1      53.300   0.850  17.486  0.00  0.00    +0.000 A 
ATOM     18  N   UNL     1      51.952   0.682  17.312  0.00  0.00    +0.000 N 
ATOM     19  C   UNL     1      51.065   1.734  17.295  0.00  0.00    +0.000 A 
ATOM     20  O   UNL     1      49.896   1.575  16.970  0.00  0.00    +0.000 OA
ATOM     21  C   UNL     1      51.654   3.018  17.625  0.00  0.00    +0.000 A 
ATOM     22  H   UNL     1      51.568  -0.228  17.102  0.00  0.00    +0.000 HD
ENDBRANCH   9  12
ENDBRANCH   7  10
ENDBRANCH   1   7
BRANCH   4  23
ATOM     23  C   UNL     1      45.582   5.295  11.195  0.00  0.00    +0.000 C 
BRANCH  23  24
ATOM     24  N   UNL     1      44.697   4.175  10.729  0.00  0.00    +0.000 NA
BRANCH  24  25
ATOM     25  C   UNL     1      43.351   4.330  11.351  0.00  0.00    +0.000 C 
BRANCH  25  26
ATOM     26  C   UNL     1      43.004   5.750  11.842  0.00  0.00    +0.000 C 
BRANCH  26  27
ATOM     27  O   UNL     1      42.502   6.564  10.787  0.00  0.00    +0.000 OA
ATOM     28  H   UNL     1      42.063   5.954  10.167  0.00  0.00    +0.000 HD
ENDBRANCH  26  27
ENDBRANCH  25  26
ENDBRANCH  24  25
BRANCH  24  29
ATOM     29  C   UNL     1      44.591   4.243   9.252  0.00  0.00    +0.000 C 
BRANCH  29  30
ATOM     30  C   UNL     1      45.574   3.372   8.487  0.00  0.00    +0.000 A 
ATOM     31  C   UNL     1      45.645   2.000   8.725  0.00  0.00    +0.000 A 
ATOM     32  C   UNL     1      46.483   1.223   7.931  0.00  0.00    +0.000 A 
ATOM     33  C   UNL     1      47.230   1.832   6.930  0.00  0.00    +0.000 A 
ATOM     34  C   UNL     1      47.121   3.204   6.776  0.00  0.00    +0.000 A 
ATOM     35  N   UNL     1      46.313   3.982   7.527  0.00  0.00    +0.000 NA
ENDBRANCH  29  30
ENDBRANCH  24  29
ENDBRANCH  23  24
ENDBRANCH   4  23
TORSDOF 10
ENDMDL
MODEL 5
REMARK VINA RESULT:    -6.524      2.977      4.367
REMARK INTER + INTRA:         -11.816
REMARK INTER:                 -10.814
REMARK INTRA:                  -1.002
REMARK UNBOUND:                -1.669
REMARK  Name = 
REMARK  10 active torsions:
REMARK  status: ('A' for Active; 'I' for Inactive)
REMARK    1  A    between atoms: C_2  and  C_23
REMARK    2  A    between atoms: N_3  and  C_4
REMARK    3  A    between atoms: C_4  and  C_5
REMARK    4  A    between atoms: C_8  and  C_9
REMARK    5  A    between atoms: C_9  and  N_10
REMARK    6  A    between atoms: N_10  and  C_11
REMARK    7  A    between atoms: N_10  and  C_14
REMARK    8  A    between atoms: C_11  and  C_12
REMARK    9  A    between atoms: C_12  and  O_13
REMARK   10  A    between atoms: C_14  and  C_15
REMARK                            x       y       z     vdW  Elec       q    Type
REMARK                         _______ _______ _______ _____ _____    ______ ____
ROOT
ATOM      1  C   UNL     1      47.544   4.245  15.906  0.00  0.00    +0.000 A 
ATOM      2  C   UNL     1      46.999   3.481  14.872  0.00  0.00    +0.000 A 
ATOM      3  C   UNL     1      46.778   4.063  13.628  0.00  0.00    +0.000 A 
ATOM      4  C   UNL     1      47.078   5.412  13.455  0.00  0.00    +0.000 A 
ATOM      5  N   UNL     1      47.642   6.166  14.433  0.00  0.00    +0.000 NA
ATOM      6  C   UNL     1      47.862   5.568  15.627  0.00  0.00    +0.000 A 
ENDROOT
BRANCH   1   7
ATOM      7  C   UNL     1      47.686   3.697  17.294  0.00  0.00    +0.000 C 
BRANCH   7  10
ATOM      8  O   UNL     1      49.340   1.672  16.260  0.00  0.00    +0.000 OA
ATOM      9  C   UNL     1      49.828   2.504  17.016  0.00  0.00    +0.000 C 
ATOM     10  N   UNL     1      49.079   3.483  17.615  0.00  0.00    +0.000 N 
ATOM     11  H   UNL     1      49.556   4.260  18.059  0.00  0.00    +0.000 HD
BRANCH   9  12
ATOM     12  C   UNL     1      51.256   2.472  17.373  0.00  0.00    +0.000 A 
ATOM     13  C   UNL     1      51.890   1.253  17.570  0.00  0.00    +0.000 A 
ATOM     14  S   UNL     1      53.537   1.400  17.989  0.00  0.00    +0.000 S 
ATOM     15  C   UNL     1      53.471   3.097  17.874  0.00  0.00    +0.000 A 
ATOM     16  N   UNL     1      54.582   3.856  18.080  0.00  0.00    +0.000 NA
ATOM     17  C   UNL     1      54.402   5.122  17.904  0.00  0.00    +0.000 A 
ATOM     18  N   UNL     1      53.209   5.700  17.559  0.00  0.00    +0.000 N 
ATOM     19  C   UNL     1      52.040   4.985  17.437  0.00  0.00    +0.000 A 
ATOM     20  O   UNL     1      50.961   5.546  17.296  0.00  0.00    +0.000 OA
ATOM     21  C   UNL     1      52.204   3.548  17.555  0.00  0.00    +0.000 A 
ATOM     22  H   UNL     1      53.129   6.702  17.465  0.00  0.00    +0.000 HD
ENDBRANCH   9  12
ENDBRANCH   7  10
ENDBRANCH   1   7
BRANCH   4  23
ATOM     23  C   UNL     1      46.651   6.127  12.182  0.00  0.00    +0.000 C 
BRANCH  23  24
ATOM     24  N   UNL     1      45.446   5.520  11.523  0.00  0.00    +0.000 NA
BRANCH  24  25
ATOM     25  C   UNL     1      44.216   6.134  12.102  0.00  0.00    +0.000 C 
BRANCH  25  26
ATOM     26  C   UNL     1      42.894   5.764  11.401  0.00  0.00    +0.000 C 
BRANCH  26  27
ATOM     27  O   UNL     1      41.832   6.632  11.788  0.00  0.00    +0.000 OA
ATOM     28  H   UNL     1      41.900   6.718  12.756  0.00  0.00    +0.000 HD
ENDBRANCH  26  27
ENDBRANCH  25  26
ENDBRANCH  24  25
BRANCH  24  29
ATOM     29  C   UNL     1      45.519   5.792  10.068  0.00  0.00    +0.000 C 
BRANCH  29  30
ATOM     30  C   UNL     1      45.736   4.574   9.187  0.00  0.00    +0.000 A 
ATOM     31  C   UNL     1      45.230   3.328   9.558  0.00  0.00    +0.000 A 
ATOM     32  C   UNL     1      45.360   2.261   8.674  0.00  0.00    +0.000 A 
ATOM     33  C   UNL     1      45.994   2.460   7.454  0.00  0.00    +0.000 A 
ATOM     34  C   UNL     1      46.491   3.722   7.173  0.00  0.00    +0.000 A 
ATOM     35  N   UNL     1      46.375   4.777   8.008  0.00  0.00    +0.000 NA
ENDBRANCH  29  30
ENDBRANCH  24  29
ENDBRANCH  23  24
ENDBRANCH   4  23
TORSDOF 10
ENDMDL
MODEL 6
REMARK VINA RESULT:    -6.498      2.482      3.362
REMARK INTER + INTRA:         -11.776
REMARK INTER:                 -10.876
REMARK INTRA:                  -0.900
REMARK UNBOUND:                -1.669
REMARK  Name = 
REMARK  10 active torsions:
REMARK  status: ('A' for Active; 'I' for Inactive)
REMARK    1  A    between atoms: C_2  and  C_23
REMARK    2  A    between atoms: N_3  and  C_4
REMARK    3  A    between atoms: C_4  and  C_5
REMARK    4  A    between atoms: C_8  and  C_9
REMARK    5  A    between atoms: C_9  and  N_10
REMARK    6  A    between atoms: N_10  and  C_11
REMARK    7  A    between atoms: N_10  and  C_14
REMARK    8  A    between atoms: C_11  and  C_12
REMARK    9  A    between atoms: C_12  and  O_13
REMARK   10  A    between atoms: C_14  and  C_15
REMARK                            x       y       z     vdW  Elec       q    Type
REMARK                         _______ _______ _______ _____ _____    ______ ____
ROOT
ATOM      1  C   UNL     1      48.693   7.778  15.498  0.00  0.00    +0.000 A 
ATOM      2  C   UNL     1      47.973   8.742  14.788  0.00  0.00    +0.000 A 
ATOM      3  C   UNL     1      47.307   8.383  13.622  0.00  0.00    +0.000 A 
ATOM      4  C   UNL     1      47.402   7.068  13.171  0.00  0.00    +0.000 A 
ATOM      5  N   UNL     1      48.064   6.106  13.862  0.00  0.00    +0.000 NA
ATOM      6  C   UNL     1      48.689   6.480  15.003  0.00  0.00    +0.000 A 
ENDROOT
BRANCH   1   7
ATOM      7  C   UNL     1      49.525   8.142  16.691  0.00  0.00    +0.000 C 
BRANCH   7  10
ATOM      8  O   UNL     1      49.512   6.334  18.844  0.00  0.00    +0.000 OA
ATOM      9  C   UNL     1      50.394   6.238  17.998  0.00  0.00    +0.000 C 
ATOM     10  N   UNL     1      50.511   7.119  16.954  0.00  0.00    +0.000 N 
ATOM     11  H   UNL     1      51.119   6.879  16.179  0.00  0.00    +0.000 HD
BRANCH   9  12
ATOM     12  C   UNL     1      51.424   5.190  18.080  0.00  0.00    +0.000 A 
ATOM     13  C   UNL     1      52.691   5.506  18.552  0.00  0.00    +0.000 A 
ATOM     14  S   UNL     1      53.763   4.180  18.568  0.00  0.00    +0.000 S 
ATOM     15  C   UNL     1      52.556   3.127  17.991  0.00  0.00    +0.000 A 
ATOM     16  N   UNL     1      52.810   1.802  17.812  0.00  0.00    +0.000 NA
ATOM     17  C   UNL     1      51.789   1.112  17.426  0.00  0.00    +0.000 A 
ATOM     18  N   UNL     1      50.544   1.628  17.183  0.00  0.00    +0.000 N 
ATOM     19  C   UNL     1      50.267   2.974  17.256  0.00  0.00    +0.000 A 
ATOM     20  O   UNL     1      49.196   3.426  16.872  0.00  0.00    +0.000 OA
ATOM     21  C   UNL     1      51.363   3.784  17.755  0.00  0.00    +0.000 A 
ATOM     22  H   UNL     1      49.795   1.037  16.854  0.00  0.00    +0.000 HD
ENDBRANCH   9  12
ENDBRANCH   7  10
ENDBRANCH   1   7
BRANCH   4  23
ATOM     23  C   UNL     1      46.868   6.697  11.796  0.00  0.00    +0.000 C 
BRANCH  23  24
ATOM     24  N   UNL     1      45.831   5.611  11.823  0.00  0.00    +0.000 NA
BRANCH  24  25
ATOM     25  C   UNL     1      44.905   5.854  12.966  0.00  0.00    +0.000 C 
BRANCH  25  26
ATOM     26  C   UNL     1      43.779   4.815  13.143  0.00  0.00    +0.000 C 
BRANCH  26  27
ATOM     27  O   UNL     1      42.522   5.438  13.392  0.00  0.00    +0.000 OA
ATOM     28  H   UNL     1      41.928   4.725  13.689  0.00  0.00    +0.000 HD
ENDBRANCH  26  27
ENDBRANCH  25  26
ENDBRANCH  24  25
BRANCH  24  29
ATOM     29  C   UNL     1      45.086   5.642  10.542  0.00  0.00    +0.000 C 
BRANCH  29  30
ATOM     30  C   UNL     1      45.409   4.517   9.573  0.00  0.00    +0.000 A 
ATOM     31  C   UNL     1      44.993   3.212   9.833  0.00  0.00    +0.000 A 
ATOM     32  C   UNL     1      45.218   2.232   8.871  0.00  0.00    +0.000 A 
ATOM     33  C   UNL     1      45.854   2.575   7.684  0.00  0.00    +0.000 A 
ATOM     34  C   UNL     1      46.258   3.889   7.515  0.00  0.00    +0.000 A 
ATOM     35  N   UNL     1      46.049   4.862   8.428  0.00  0.00    +0.000 NA
ENDBRANCH  29  30
ENDBRANCH  24  29
ENDBRANCH  23  24
ENDBRANCH   4  23
TORSDOF 10
ENDMDL
MODEL 7
REMARK VINA RESULT:    -6.369      2.827      8.380
REMARK INTER + INTRA:         -11.575
REMARK INTER:                 -10.338
REMARK INTRA:                  -1.237
REMARK UNBOUND:                -1.669
REMARK  Name = 
REMARK  10 active torsions:
REMARK  status: ('A' for Active; 'I' for Inactive)
REMARK    1  A    between atoms: C_2  and  C_23
REMARK    2  A    between atoms: N_3  and  C_4
REMARK    3  A    between atoms: C_4  and  C_5
REMARK    4  A    between atoms: C_8  and  C_9
REMARK    5  A    between atoms: C_9  and  N_10
REMARK    6  A    between atoms: N_10  and  C_11
REMARK    7  A    between atoms: N_10  and  C_14
REMARK    8  A    between atoms: C_11  and  C_12
REMARK    9  A    between atoms: C_12  and  O_13
REMARK   10  A    between atoms: C_14  and  C_15
REMARK                            x       y       z     vdW  Elec       q    Type
REMARK                         _______ _______ _______ _____ _____    ______ ____
ROOT
ATOM      1  C   UNL     1      47.780   8.005  13.777  0.00  0.00    +0.000 A 
ATOM      2  C   UNL     1      48.270   9.089  14.509  0.00  0.00    +0.000 A 
ATOM      3  C   UNL     1      49.327   8.903  15.393  0.00  0.00    +0.000 A 
ATOM      4  C   UNL     1      49.853   7.622  15.550  0.00  0.00    +0.000 A 
ATOM      5  N   UNL     1      49.419   6.560  14.824  0.00  0.00    +0.000 NA
ATOM      6  C   UNL     1      48.401   6.775  13.959  0.00  0.00    +0.000 A 
ENDROOT
BRANCH   1   7
ATOM      7  C   UNL     1      46.567   8.132  12.906  0.00  0.00    +0.000 C 
BRANCH   7  10
ATOM      8  O   UNL     1      44.285   7.604  11.349  0.00  0.00    +0.000 OA
ATOM      9  C   UNL     1      44.929   6.660  11.792  0.00  0.00    +0.000 C 
ATOM     10  N   UNL     1      46.014   6.828  12.613  0.00  0.00    +0.000 N 
ATOM     11  H   UNL     1      46.627   6.039  12.781  0.00  0.00    +0.000 HD
BRANCH   9  12
ATOM     12  C   UNL     1      44.542   5.268  11.509  0.00  0.00    +0.000 A 
ATOM     13  C   UNL     1      43.781   4.564  12.432  0.00  0.00    +0.000 A 
ATOM     14  S   UNL     1      43.434   2.964  11.952  0.00  0.00    +0.000 S 
ATOM     15  C   UNL     1      44.248   3.174  10.471  0.00  0.00    +0.000 A 
ATOM     16  N   UNL     1      44.297   2.172   9.552  0.00  0.00    +0.000 NA
ATOM     17  C   UNL     1      44.896   2.488   8.453  0.00  0.00    +0.000 A 
ATOM     18  N   UNL     1      45.468   3.706   8.197  0.00  0.00    +0.000 N 
ATOM     19  C   UNL     1      45.529   4.713   9.133  0.00  0.00    +0.000 A 
ATOM     20  O   UNL     1      46.191   5.724   8.938  0.00  0.00    +0.000 OA
ATOM     21  C   UNL     1      44.807   4.434  10.360  0.00  0.00    +0.000 A 
ATOM     22  H   UNL     1      45.948   3.879   7.326  0.00  0.00    +0.000 HD
ENDBRANCH   9  12
ENDBRANCH   7  10
ENDBRANCH   1   7
BRANCH   4  23
ATOM     23  C   UNL     1      50.858   7.346  16.658  0.00  0.00    +0.000 C 
BRANCH  23  24
ATOM     24  N   UNL     1      51.485   5.984  16.579  0.00  0.00    +0.000 NA
BRANCH  24  25
ATOM     25  C   UNL     1      52.968   6.134  16.556  0.00  0.00    +0.000 C 
BRANCH  25  26
ATOM     26  C   UNL     1      53.529   7.026  15.429  0.00  0.00    +0.000 C 
BRANCH  26  27
ATOM     27  O   UNL     1      54.389   6.295  14.558  0.00  0.00    +0.000 OA
ATOM     28  H   UNL     1      53.801   5.805  13.955  0.00  0.00    +0.000 HD
ENDBRANCH  26  27
ENDBRANCH  25  26
ENDBRANCH  24  25
BRANCH  24  29
ATOM     29  C   UNL     1      51.067   5.205  17.769  0.00  0.00    +0.000 C 
BRANCH  29  30
ATOM     30  C   UNL     1      49.748   4.463  17.632  0.00  0.00    +0.000 A 
ATOM     31  C   UNL     1      48.561   5.029  18.096  0.00  0.00    +0.000 A 
ATOM     32  C   UNL     1      47.362   4.364  17.857  0.00  0.00    +0.000 A 
ATOM     33  C   UNL     1      47.378   3.155  17.172  0.00  0.00    +0.000 A 
ATOM     34  C   UNL     1      48.602   2.650  16.766  0.00  0.00    +0.000 A 
ATOM     35  N   UNL     1      49.780   3.274  16.978  0.00  0.00    +0.000 NA
ENDBRANCH  29  30
ENDBRANCH  24  29
ENDBRANCH  23  24
ENDBRANCH   4  23
TORSDOF 10
ENDMDL
MODEL 8
REMARK VINA RESULT:    -6.091      1.801      2.640
REMARK INTER + INTRA:         -11.143
REMARK INTER:                  -9.625
REMARK INTRA:                  -1.518
REMARK UNBOUND:                -1.669
REMARK  Name = 
REMARK  10 active torsions:
REMARK  status: ('A' for Active; 'I' for Inactive)
REMARK    1  A    between atoms: C_2  and  C_23
REMARK    2  A    between atoms: N_3  and  C_4
REMARK    3  A    between atoms: C_4  and  C_5
REMARK    4  A    between atoms: C_8  and  C_9
REMARK    5  A    between atoms: C_9  and  N_10
REMARK    6  A    between atoms: N_10  and  C_11
REMARK    7  A    between atoms: N_10  and  C_14
REMARK    8  A    between atoms: C_11  and  C_12
REMARK    9  A    between atoms: C_12  and  O_13
REMARK   10  A    between atoms: C_14  and  C_15
REMARK                            x       y       z     vdW  Elec       q    Type
REMARK                         _______ _______ _______ _____ _____    ______ ____
ROOT
ATOM      1  C   UNL     1      49.034   8.804  13.754  0.00  0.00    +0.000 A 
ATOM      2  C   UNL     1      49.214   8.172  12.522  0.00  0.00    +0.000 A 
ATOM      3  C   UNL     1      48.108   7.723  11.810  0.00  0.00    +0.000 A 
ATOM      4  C   UNL     1      46.840   7.887  12.365  0.00  0.00    +0.000 A 
ATOM      5  N   UNL     1      46.637   8.530  13.543  0.00  0.00    +0.000 NA
ATOM      6  C   UNL     1      47.731   8.972  14.205  0.00  0.00    +0.000 A 
ENDROOT
BRANCH   1   7
ATOM      7  C   UNL     1      50.200   9.195  14.612  0.00  0.00    +0.000 C 
BRANCH   7  10
ATOM      8  O   UNL     1      51.447   6.898  15.647  0.00  0.00    +0.000 OA
ATOM      9  C   UNL     1      50.742   7.571  16.389  0.00  0.00    +0.000 C 
ATOM     10  N   UNL     1      50.047   8.667  15.949  0.00  0.00    +0.000 N 
ATOM     11  H   UNL     1      49.651   9.302  16.633  0.00  0.00    +0.000 HD
BRANCH   9  12
ATOM     12  C   UNL     1      50.555   7.212  17.805  0.00  0.00    +0.000 A 
ATOM     13  C   UNL     1      51.070   8.034  18.798  0.00  0.00    +0.000 A 
ATOM     14  S   UNL     1      50.775   7.464  20.377  0.00  0.00    +0.000 S 
ATOM     15  C   UNL     1      49.904   6.123  19.789  0.00  0.00    +0.000 A 
ATOM     16  N   UNL     1      49.333   5.231  20.643  0.00  0.00    +0.000 NA
ATOM     17  C   UNL     1      48.656   4.298  20.062  0.00  0.00    +0.000 A 
ATOM     18  N   UNL     1      48.515   4.164  18.706  0.00  0.00    +0.000 N 
ATOM     19  C   UNL     1      49.155   4.983  17.805  0.00  0.00    +0.000 A 
ATOM     20  O   UNL     1      49.147   4.739  16.605  0.00  0.00    +0.000 OA
ATOM     21  C   UNL     1      49.871   6.092  18.408  0.00  0.00    +0.000 A 
ATOM     22  H   UNL     1      47.994   3.393  18.315  0.00  0.00    +0.000 HD
ENDBRANCH   9  12
ENDBRANCH   7  10
ENDBRANCH   1   7
BRANCH   4  23
ATOM     23  C   UNL     1      45.637   7.220  11.717  0.00  0.00    +0.000 C 
BRANCH  23  24
ATOM     24  N   UNL     1      45.742   5.723  11.643  0.00  0.00    +0.000 NA
BRANCH  24  25
ATOM     25  C   UNL     1      45.629   5.161  13.020  0.00  0.00    +0.000 C 
BRANCH  25  26
ATOM     26  C   UNL     1      46.464   3.894  13.293  0.00  0.00    +0.000 C 
BRANCH  26  27
ATOM     27  O   UNL     1      45.789   2.715  12.863  0.00  0.00    +0.000 OA
ATOM     28  H   UNL     1      45.956   2.648  11.905  0.00  0.00    +0.000 HD
ENDBRANCH  26  27
ENDBRANCH  25  26
ENDBRANCH  24  25
BRANCH  24  29
ATOM     29  C   UNL     1      44.642   5.216  10.790  0.00  0.00    +0.000 C 
BRANCH  29  30
ATOM     30  C   UNL     1      45.056   4.235   9.706  0.00  0.00    +0.000 A 
ATOM     31  C   UNL     1      45.745   4.673   8.575  0.00  0.00    +0.000 A 
ATOM     32  C   UNL     1      46.198   3.728   7.658  0.00  0.00    +0.000 A 
ATOM     33  C   UNL     1      45.948   2.381   7.888  0.00  0.00    +0.000 A 
ATOM     34  C   UNL     1      45.235   2.033   9.023  0.00  0.00    +0.000 A 
ATOM     35  N   UNL     1      44.788   2.924   9.932  0.00  0.00    +0.000 NA
ENDBRANCH  29  30
ENDBRANCH  24  29
ENDBRANCH  23  24
ENDBRANCH   4  23
TORSDOF 10
ENDMDL
MODEL 9
REMARK VINA RESULT:    -5.948      3.909      5.299
REMARK INTER + INTRA:         -10.921
REMARK INTER:                  -9.682
REMARK INTRA:                  -1.239
REMARK UNBOUND:                -1.669
REMARK  Name = 
REMARK  10 active torsions:
REMARK  status: ('A' for Active; 'I' for Inactive)
REMARK    1  A    between atoms: C_2  and  C_23
REMARK    2  A    between atoms: N_3  and  C_4
REMARK    3  A    between atoms: C_4  and  C_5
REMARK    4  A    between atoms: C_8  and  C_9
REMARK    5  A    between atoms: C_9  and  N_10
REMARK    6  A    between atoms: N_10  and  C_11
REMARK    7  A    between atoms: N_10  and  C_14
REMARK    8  A    between atoms: C_11  and  C_12
REMARK    9  A    between atoms: C_12  and  O_13
REMARK   10  A    between atoms: C_14  and  C_15
REMARK                            x       y       z     vdW  Elec       q    Type
REMARK                         _______ _______ _______ _____ _____    ______ ____
ROOT
ATOM      1  C   UNL     1      47.211   8.589  12.743  0.00  0.00    +0.000 A 
ATOM      2  C   UNL     1      47.509   7.350  12.170  0.00  0.00    +0.000 A 
ATOM      3  C   UNL     1      46.520   6.651  11.488  0.00  0.00    +0.000 A 
ATOM      4  C   UNL     1      45.239   7.194  11.420  0.00  0.00    +0.000 A 
ATOM      5  N   UNL     1      44.934   8.412  11.936  0.00  0.00    +0.000 NA
ATOM      6  C   UNL     1      45.921   9.078  12.579  0.00  0.00    +0.000 A 
ENDROOT
BRANCH   1   7
ATOM      7  C   UNL     1      48.208   9.320  13.590  0.00  0.00    +0.000 C 
BRANCH   7  10
ATOM      8  O   UNL     1      50.896   8.819  14.245  0.00  0.00    +0.000 OA
ATOM      9  C   UNL     1      50.640   9.355  13.173  0.00  0.00    +0.000 C 
ATOM     10  N   UNL     1      49.364   9.694  12.806  0.00  0.00    +0.000 N 
ATOM     11  H   UNL     1      49.183   9.940  11.839  0.00  0.00    +0.000 HD
BRANCH   9  12
ATOM     12  C   UNL     1      51.705   9.719  12.224  0.00  0.00    +0.000 A 
ATOM     13  C   UNL     1      52.422  10.893  12.411  0.00  0.00    +0.000 A 
ATOM     14  S   UNL     1      53.606  11.167  11.215  0.00  0.00    +0.000 S 
ATOM     15  C   UNL     1      53.235   9.700  10.433  0.00  0.00    +0.000 A 
ATOM     16  N   UNL     1      53.926   9.301   9.331  0.00  0.00    +0.000 NA
ATOM     17  C   UNL     1      53.578   8.143   8.877  0.00  0.00    +0.000 A 
ATOM     18  N   UNL     1      52.590   7.359   9.411  0.00  0.00    +0.000 N 
ATOM     19  C   UNL     1      51.801   7.766  10.462  0.00  0.00    +0.000 A 
ATOM     20  O   UNL     1      50.820   7.121  10.809  0.00  0.00    +0.000 OA
ATOM     21  C   UNL     1      52.198   9.029  11.055  0.00  0.00    +0.000 A 
ATOM     22  H   UNL     1      52.347   6.475   8.989  0.00  0.00    +0.000 HD
ENDBRANCH   9  12
ENDBRANCH   7  10
ENDBRANCH   1   7
BRANCH   4  23
ATOM     23  C   UNL     1      44.091   6.362  10.871  0.00  0.00    +0.000 C 
BRANCH  23  24
ATOM     24  N   UNL     1      44.357   4.883  10.880  0.00  0.00    +0.000 NA
BRANCH  24  25
ATOM     25  C   UNL     1      43.538   4.250  11.953  0.00  0.00    +0.000 C 
BRANCH  25  26
ATOM     26  C   UNL     1      43.822   2.757  12.214  0.00  0.00    +0.000 C 
BRANCH  26  27
ATOM     27  O   UNL     1      42.828   1.921  11.626  0.00  0.00    +0.000 OA
ATOM     28  H   UNL     1      42.477   2.421  10.867  0.00  0.00    +0.000 HD
ENDBRANCH  26  27
ENDBRANCH  25  26
ENDBRANCH  24  25
BRANCH  24  29
ATOM     29  C   UNL     1      43.984   4.331   9.556  0.00  0.00    +0.000 C 
BRANCH  29  30
ATOM     30  C   UNL     1      45.108   3.651   8.793  0.00  0.00    +0.000 A 
ATOM     31  C   UNL     1      45.305   2.274   8.893  0.00  0.00    +0.000 A 
ATOM     32  C   UNL     1      46.279   1.676   8.098  0.00  0.00    +0.000 A 
ATOM     33  C   UNL     1      47.031   2.462   7.235  0.00  0.00    +0.000 A 
ATOM     34  C   UNL     1      46.790   3.826   7.215  0.00  0.00    +0.000 A 
ATOM     35  N   UNL     1      45.850   4.433   7.969  0.00  0.00    +0.000 NA
ENDBRANCH  29  30
ENDBRANCH  24  29
ENDBRANCH  23  24
ENDBRANCH   4  23
TORSDOF 10
ENDMDL
