MODEL 1
REMARK VINA RESULT:    -8.131      0.000      0.000
REMARK INTER + INTRA:         -12.441
REMARK INTER:                 -11.458
REMARK INTRA:                  -0.983
REMARK UNBOUND:                -0.983
REMARK  Name = 
REMARK  7 active torsions:
REMARK  status: ('A' for Active; 'I' for Inactive)
REMARK    1  A    between atoms: C_2  and  C_20
REMARK    2  A    between atoms: N_3  and  C_4
REMARK    3  A    between atoms: C_4  and  C_5
REMARK    4  A    between atoms: C_8  and  N_9
REMARK    5  A    between atoms: N_9  and  C_10
REMARK    6  A    between atoms: C_10  and  C_11
REMARK    7  A    between atoms: C_11  and  C_12
REMARK                            x       y       z     vdW  Elec       q    Type
REMARK                         _______ _______ _______ _____ _____    ______ ____
ROOT
ATOM      1  C   UNL     1      46.867   6.430  12.860  0.00  0.00    +0.000 A 
ATOM      2  C   UNL     1      46.956   5.266  13.629  0.00  0.00    +0.000 A 
ATOM      3  C   UNL     1      46.258   4.113  13.259  0.00  0.00    +0.000 A 
ATOM      4  C   UNL     1      45.434   4.103  12.128  0.00  0.00    +0.000 A 
ATOM      5  C   UNL     1      45.426   5.237  11.312  0.00  0.00    +0.000 A 
ATOM      6  C   UNL     1      46.120   6.395  11.678  0.00  0.00    +0.000 A 
ENDROOT
BRANCH   4   7
ATOM      7  N   UNL     1      44.741   2.968  11.677  0.00  0.00    +0.000 N 
ATOM      8  H   UNL     1      44.129   2.642  12.425  0.00  0.00    +0.000 HD
BRANCH   7   9
ATOM      9  C   UNL     1      44.020   3.045  10.405  0.00  0.00    +0.000 C 
BRANCH   9  10
ATOM     10  C   UNL     1      44.474   1.930   9.457  0.00  0.00    +0.000 C 
BRANCH  10  11
ATOM     11  C   UNL     1      45.730   2.315   8.650  0.00  0.00    +0.000 C 
ATOM     12  C   UNL     1      45.446   3.421   7.622  0.00  0.00    +0.000 C 
ATOM     13  C   UNL     1      46.684   3.769   6.799  0.00  0.00    +0.000 C 
ATOM     14  C   UNL     1      47.274   2.540   6.115  0.00  0.00    +0.000 C 
ATOM     15  C   UNL     1      47.561   1.433   7.128  0.00  0.00    +0.000 C 
ATOM     16  C   UNL     1      46.322   1.081   7.955  0.00  0.00    +0.000 C 
ENDBRANCH  10  11
ENDBRANCH   9  10
ENDBRANCH   7   9
ENDBRANCH   4   7
BRANCH   1  17
ATOM     17  C   UNL     1      47.615   7.667  13.275  0.00  0.00    +0.000 C 
BRANCH  17  20
ATOM     18  O   UNL     1      49.962   6.957  14.665  0.00  0.00    +0.000 OA
ATOM     19  C   UNL     1      48.938   7.213  15.288  0.00  0.00    +0.000 C 
ATOM     20  N   UNL     1      47.783   7.686  14.702  0.00  0.00    +0.000 N 
ATOM     21  H   UNL     1      46.935   7.644  15.250  0.00  0.00    +0.000 HD
BRANCH  19  22
ATOM     22  C   UNL     1      48.757   6.885  16.701  0.00  0.00    +0.000 A 
ATOM     23  C   UNL     1      49.047   7.797  17.696  0.00  0.00    +0.000 A 
ATOM     24  S   UNL     1      49.143   7.067  19.233  0.00  0.00    +0.000 S 
ATOM     25  C   UNL     1      48.778   5.511  18.591  0.00  0.00    +0.000 A 
ATOM     26  C   UNL     1      48.835   4.274  19.259  0.00  0.00    +0.000 A 
ATOM     27  C   UNL     1      48.438   3.120  18.579  0.00  0.00    +0.000 A 
ATOM     28  C   UNL     1      47.912   3.201  17.299  0.00  0.00    +0.000 A 
ATOM     29  C   UNL     1      47.877   4.427  16.634  0.00  0.00    +0.000 A 
ATOM     30  C   UNL     1      48.397   5.595  17.251  0.00  0.00    +0.000 A 
ENDBRANCH  19  22
ENDBRANCH  17  20
ENDBRANCH   1  17
TORSDOF 7
ENDMDL
MODEL 2
REMARK VINA RESULT:    -7.506      1.242      2.191
REMARK INTER + INTRA:         -11.560
REMARK INTER:                 -10.553
REMARK INTRA:                  -1.007
REMARK UNBOUND:                -0.983
REMARK  Name = 
REMARK  7 active torsions:
REMARK  status: ('A' for Active; 'I' for Inactive)
REMARK    1  A    between atoms: C_2  and  C_20
REMARK    2  A    between atoms: N_3  and  C_4
REMARK    3  A    between atoms: C_4  and  C_5
REMARK    4  A    between atoms: C_8  and  N_9
REMARK    5  A    between atoms: N_9  and  C_10
REMARK    6  A    between atoms: C_10  and  C_11
REMARK    7  A    between atoms: C_11  and  C_12
REMARK                            x       y       z     vdW  Elec       q    Type
REMARK                         _______ _______ _______ _____ _____    ______ ____
ROOT
ATOM      1  C   UNL     1      46.872   6.507  12.851  0.00  0.00    +0.000 A 
ATOM      2  C   UNL     1      46.231   7.030  11.724  0.00  0.00    +0.000 A 
ATOM      3  C   UNL     1      45.309   6.259  11.008  0.00  0.00    +0.000 A 
ATOM      4  C   UNL     1      45.028   4.941  11.383  0.00  0.00    +0.000 A 
ATOM      5  C   UNL     1      45.598   4.460  12.564  0.00  0.00    +0.000 A 
ATOM      6  C   UNL     1      46.522   5.223  13.285  0.00  0.00    +0.000 A 
ENDROOT
BRANCH   4   7
ATOM      7  N   UNL     1      44.083   4.130  10.735  0.00  0.00    +0.000 N 
ATOM      8  H   UNL     1      43.998   4.440   9.767  0.00  0.00    +0.000 HD
BRANCH   7   9
ATOM      9  C   UNL     1      44.237   2.676  10.809  0.00  0.00    +0.000 C 
BRANCH   9  10
ATOM     10  C   UNL     1      44.304   2.066   9.405  0.00  0.00    +0.000 C 
BRANCH  10  11
ATOM     11  C   UNL     1      45.632   2.378   8.687  0.00  0.00    +0.000 C 
ATOM     12  C   UNL     1      45.482   3.497   7.645  0.00  0.00    +0.000 C 
ATOM     13  C   UNL     1      46.792   3.773   6.911  0.00  0.00    +0.000 C 
ATOM     14  C   UNL     1      47.357   2.511   6.266  0.00  0.00    +0.000 C 
ATOM     15  C   UNL     1      47.511   1.391   7.293  0.00  0.00    +0.000 C 
ATOM     16  C   UNL     1      46.199   1.112   8.032  0.00  0.00    +0.000 C 
ENDBRANCH  10  11
ENDBRANCH   9  10
ENDBRANCH   7   9
ENDBRANCH   4   7
BRANCH   1  17
ATOM     17  C   UNL     1      47.868   7.342  13.608  0.00  0.00    +0.000 C 
BRANCH  17  20
ATOM     18  O   UNL     1      50.132   6.866  15.218  0.00  0.00    +0.000 OA
ATOM     19  C   UNL     1      49.010   6.669  15.671  0.00  0.00    +0.000 C 
ATOM     20  N   UNL     1      47.848   6.989  15.001  0.00  0.00    +0.000 N 
ATOM     21  H   UNL     1      46.988   6.582  15.344  0.00  0.00    +0.000 HD
BRANCH  19  22
ATOM     22  C   UNL     1      48.762   5.914  16.897  0.00  0.00    +0.000 A 
ATOM     23  C   UNL     1      48.533   4.553  16.873  0.00  0.00    +0.000 A 
ATOM     24  S   UNL     1      47.881   3.981  18.341  0.00  0.00    +0.000 S 
ATOM     25  C   UNL     1      47.913   5.553  19.044  0.00  0.00    +0.000 A 
ATOM     26  C   UNL     1      47.347   5.955  20.268  0.00  0.00    +0.000 A 
ATOM     27  C   UNL     1      47.535   7.270  20.700  0.00  0.00    +0.000 A 
ATOM     28  C   UNL     1      48.337   8.142  19.980  0.00  0.00    +0.000 A 
ATOM     29  C   UNL     1      48.878   7.744  18.757  0.00  0.00    +0.000 A 
ATOM     30  C   UNL     1      48.596   6.457  18.229  0.00  0.00    +0.000 A 
ENDBRANCH  19  22
ENDBRANCH  17  20
ENDBRANCH   1  17
TORSDOF 7
ENDMDL
MODEL 3
REMARK VINA RESULT:    -7.229      1.889      2.685
REMARK INTER + INTRA:         -11.170
REMARK INTER:                 -10.485
REMARK INTRA:                  -0.684
REMARK UNBOUND:                -0.983
REMARK  Name = 
REMARK  7 active torsions:
REMARK  status: ('A' for Active; 'I' for Inactive)
REMARK    1  A    between atoms: C_2  and  C_20
REMARK    2  A    between atoms: N_3  and  C_4
REMARK    3  A    between atoms: C_4  and  C_5
REMARK    4  A    between atoms: C_8  and  N_9
REMARK    5  A    between atoms: N_9  and  C_10
REMARK    6  A    between atoms: C_10  and  C_11
REMARK    7  A    between atoms: C_11  and  C_12
REMARK                            x       y       z     vdW  Elec       q    Type
REMARK                         _______ _______ _______ _____ _____    ______ ____
ROOT
ATOM      1  C   UNL     1      47.674   6.535  13.611  0.00  0.00    +0.000 A 
ATOM      2  C   UNL     1      47.023   5.301  13.697  0.00  0.00    +0.000 A 
ATOM      3  C   UNL     1      46.068   4.932  12.745  0.00  0.00    +0.000 A 
ATOM      4  C   UNL     1      45.721   5.798  11.702  0.00  0.00    +0.000 A 
ATOM      5  C   UNL     1      46.443   6.986  11.567  0.00  0.00    +0.000 A 
ATOM      6  C   UNL     1      47.399   7.362  12.517  0.00  0.00    +0.000 A 
ENDROOT
BRANCH   4   7
ATOM      7  N   UNL     1      44.804   5.472  10.690  0.00  0.00    +0.000 N 
ATOM      8  H   UNL     1      44.815   6.213   9.990  0.00  0.00    +0.000 HD
BRANCH   7   9
ATOM      9  C   UNL     1      44.893   4.153  10.059  0.00  0.00    +0.000 C 
BRANCH   9  10
ATOM     10  C   UNL     1      44.620   4.252   8.555  0.00  0.00    +0.000 C 
BRANCH  10  11
ATOM     11  C   UNL     1      45.301   3.124   7.755  0.00  0.00    +0.000 C 
ATOM     12  C   UNL     1      45.782   1.977   8.658  0.00  0.00    +0.000 C 
ATOM     13  C   UNL     1      46.490   0.883   7.864  0.00  0.00    +0.000 C 
ATOM     14  C   UNL     1      47.647   1.438   7.040  0.00  0.00    +0.000 C 
ATOM     15  C   UNL     1      47.181   2.579   6.137  0.00  0.00    +0.000 C 
ATOM     16  C   UNL     1      46.470   3.679   6.930  0.00  0.00    +0.000 C 
ENDBRANCH  10  11
ENDBRANCH   9  10
ENDBRANCH   7   9
ENDBRANCH   4   7
BRANCH   1  17
ATOM     17  C   UNL     1      48.693   6.925  14.647  0.00  0.00    +0.000 C 
BRANCH  17  20
ATOM     18  O   UNL     1      50.098   8.601  16.424  0.00  0.00    +0.000 OA
ATOM     19  C   UNL     1      48.879   8.508  16.510  0.00  0.00    +0.000 C 
ATOM     20  N   UNL     1      48.100   7.811  15.610  0.00  0.00    +0.000 N 
ATOM     21  H   UNL     1      47.152   7.597  15.888  0.00  0.00    +0.000 HD
BRANCH  19  22
ATOM     22  C   UNL     1      48.119   8.975  17.667  0.00  0.00    +0.000 A 
ATOM     23  C   UNL     1      47.821  10.312  17.843  0.00  0.00    +0.000 A 
ATOM     24  S   UNL     1      47.296  10.654  19.429  0.00  0.00    +0.000 S 
ATOM     25  C   UNL     1      47.441   9.004  19.903  0.00  0.00    +0.000 A 
ATOM     26  C   UNL     1      47.331   8.475  21.202  0.00  0.00    +0.000 A 
ATOM     27  C   UNL     1      47.418   7.091  21.377  0.00  0.00    +0.000 A 
ATOM     28  C   UNL     1      47.522   6.246  20.283  0.00  0.00    +0.000 A 
ATOM     29  C   UNL     1      47.651   6.779  19.000  0.00  0.00    +0.000 A 
ATOM     30  C   UNL     1      47.699   8.184  18.804  0.00  0.00    +0.000 A 
ENDBRANCH  19  22
ENDBRANCH  17  20
ENDBRANCH   1  17
TORSDOF 7
ENDMDL
MODEL 4
REMARK VINA RESULT:    -7.130      3.490      5.341
REMARK INTER + INTRA:         -11.031
REMARK INTER:                  -9.992
REMARK INTRA:                  -1.039
REMARK UNBOUND:                -0.983
REMARK  Name = 
REMARK  7 active torsions:
REMARK  status: ('A' for Active; 'I' for Inactive)
REMARK    1  A    between atoms: C_2  and  C_20
REMARK    2  A    between atoms: N_3  and  C_4
REMARK    3  A    between atoms: C_4  and  C_5
REMARK    4  A    between atoms: C_8  and  N_9
REMARK    5  A    between atoms: N_9  and  C_10
REMARK    6  A    between atoms: C_10  and  C_11
REMARK    7  A    between atoms: C_11  and  C_12
REMARK                            x       y       z     vdW  Elec       q    Type
REMARK                         _______ _______ _______ _____ _____    ______ ____
ROOT
ATOM      1  C   UNL     1      46.508   6.881  12.708  0.00  0.00    +0.000 A 
ATOM      2  C   UNL     1      45.881   6.756  11.466  0.00  0.00    +0.000 A 
ATOM      3  C   UNL     1      45.397   5.517  11.034  0.00  0.00    +0.000 A 
ATOM      4  C   UNL     1      45.552   4.370  11.821  0.00  0.00    +0.000 A 
ATOM      5  C   UNL     1      46.092   4.521  13.101  0.00  0.00    +0.000 A 
ATOM      6  C   UNL     1      46.580   5.757  13.538  0.00  0.00    +0.000 A 
ENDROOT
BRANCH   4   7
ATOM      7  N   UNL     1      45.051   3.107  11.467  0.00  0.00    +0.000 N 
ATOM      8  H   UNL     1      44.700   2.649  12.308  0.00  0.00    +0.000 HD
BRANCH   7   9
ATOM      9  C   UNL     1      44.078   3.018  10.376  0.00  0.00    +0.000 C 
BRANCH   9  10
ATOM     10  C   UNL     1      44.476   1.923   9.382  0.00  0.00    +0.000 C 
BRANCH  10  11
ATOM     11  C   UNL     1      45.754   2.275   8.596  0.00  0.00    +0.000 C 
ATOM     12  C   UNL     1      45.519   3.398   7.573  0.00  0.00    +0.000 C 
ATOM     13  C   UNL     1      46.779   3.713   6.770  0.00  0.00    +0.000 C 
ATOM     14  C   UNL     1      47.340   2.471   6.085  0.00  0.00    +0.000 C 
ATOM     15  C   UNL     1      47.579   1.348   7.092  0.00  0.00    +0.000 C 
ATOM     16  C   UNL     1      46.318   1.029   7.900  0.00  0.00    +0.000 C 
ENDBRANCH  10  11
ENDBRANCH   9  10
ENDBRANCH   7   9
ENDBRANCH   4   7
BRANCH   1  17
ATOM     17  C   UNL     1      47.034   8.217  13.157  0.00  0.00    +0.000 C 
BRANCH  17  20
ATOM     18  O   UNL     1      49.688   7.331  13.503  0.00  0.00    +0.000 OA
ATOM     19  C   UNL     1      49.437   8.195  12.670  0.00  0.00    +0.000 C 
ATOM     20  N   UNL     1      48.159   8.600  12.349  0.00  0.00    +0.000 N 
ATOM     21  H   UNL     1      48.063   9.465  11.834  0.00  0.00    +0.000 HD
BRANCH  19  22
ATOM     22  C   UNL     1      50.463   9.024  12.042  0.00  0.00    +0.000 A 
ATOM     23  C   UNL     1      50.540  10.382  12.281  0.00  0.00    +0.000 A 
ATOM     24  S   UNL     1      51.534  11.182  11.150  0.00  0.00    +0.000 S 
ATOM     25  C   UNL     1      51.897   9.712  10.329  0.00  0.00    +0.000 A 
ATOM     26  C   UNL     1      52.577   9.559   9.107  0.00  0.00    +0.000 A 
ATOM     27  C   UNL     1      52.830   8.270   8.632  0.00  0.00    +0.000 A 
ATOM     28  C   UNL     1      52.497   7.159   9.391  0.00  0.00    +0.000 A 
ATOM     29  C   UNL     1      51.805   7.316  10.592  0.00  0.00    +0.000 A 
ATOM     30  C   UNL     1      51.417   8.607  11.036  0.00  0.00    +0.000 A 
ENDBRANCH  19  22
ENDBRANCH  17  20
ENDBRANCH   1  17
TORSDOF 7
ENDMDL
MODEL 5
REMARK VINA RESULT:    -7.062      1.778      2.017
REMARK INTER + INTRA:         -10.935
REMARK INTER:                 -10.061
REMARK INTRA:                  -0.874
REMARK UNBOUND:                -0.983
REMARK  Name = 
REMARK  7 active torsions:
REMARK  status: ('A' for Active; 'I' for Inactive)
REMARK    1  A    between atoms: C_2  and  C_20
REMARK    2  A    between atoms: N_3  and  C_4
REMARK    3  A    between atoms: C_4  and  C_5
REMARK    4  A    between atoms: C_8  and  N_9
REMARK    5  A    between atoms: N_9  and  C_10
REMARK    6  A    between atoms: C_10  and  C_11
REMARK    7  A    between atoms: C_11  and  C_12
REMARK                            x       y       z     vdW  Elec       q    Type
REMARK                         _______ _______ _______ _____ _____    ______ ____
ROOT
ATOM      1  C   UNL     1      47.463   7.265  13.326  0.00  0.00    +0.000 A 
ATOM      2  C   UNL     1      47.256   5.883  13.291  0.00  0.00    +0.000 A 
ATOM      3  C   UNL     1      46.242   5.335  12.498  0.00  0.00    +0.000 A 
ATOM      4  C   UNL     1      45.396   6.156  11.745  0.00  0.00    +0.000 A 
ATOM      5  C   UNL     1      45.670   7.525  11.709  0.00  0.00    +0.000 A 
ATOM      6  C   UNL     1      46.681   8.081  12.501  0.00  0.00    +0.000 A 
ENDROOT
BRANCH   4   7
ATOM      7  N   UNL     1      44.389   5.669  10.896  0.00  0.00    +0.000 N 
ATOM      8  H   UNL     1      44.292   6.307  10.106  0.00  0.00    +0.000 HD
BRANCH   7   9
ATOM      9  C   UNL     1      44.467   4.279  10.440  0.00  0.00    +0.000 C 
BRANCH   9  10
ATOM     10  C   UNL     1      44.675   4.216   8.924  0.00  0.00    +0.000 C 
BRANCH  10  11
ATOM     11  C   UNL     1      45.833   3.279   8.524  0.00  0.00    +0.000 C 
ATOM     12  C   UNL     1      46.486   3.694   7.196  0.00  0.00    +0.000 C 
ATOM     13  C   UNL     1      47.604   2.738   6.787  0.00  0.00    +0.000 C 
ATOM     14  C   UNL     1      47.120   1.293   6.719  0.00  0.00    +0.000 C 
ATOM     15  C   UNL     1      46.469   0.870   8.035  0.00  0.00    +0.000 C 
ATOM     16  C   UNL     1      45.347   1.826   8.449  0.00  0.00    +0.000 C 
ENDBRANCH  10  11
ENDBRANCH   9  10
ENDBRANCH   7   9
ENDBRANCH   4   7
BRANCH   1  17
ATOM     17  C   UNL     1      48.550   7.843  14.191  0.00  0.00    +0.000 C 
BRANCH  17  20
ATOM     18  O   UNL     1      48.486   7.944  17.007  0.00  0.00    +0.000 OA
ATOM     19  C   UNL     1      49.080   7.032  16.443  0.00  0.00    +0.000 C 
ATOM     20  N   UNL     1      49.061   6.835  15.078  0.00  0.00    +0.000 N 
ATOM     21  H   UNL     1      49.757   6.211  14.691  0.00  0.00    +0.000 HD
BRANCH  19  22
ATOM     22  C   UNL     1      50.020   6.145  17.126  0.00  0.00    +0.000 A 
ATOM     23  C   UNL     1      51.239   6.603  17.586  0.00  0.00    +0.000 A 
ATOM     24  S   UNL     1      52.303   5.328  17.971  0.00  0.00    +0.000 S 
ATOM     25  C   UNL     1      51.136   4.135  17.545  0.00  0.00    +0.000 A 
ATOM     26  C   UNL     1      51.333   2.747  17.432  0.00  0.00    +0.000 A 
ATOM     27  C   UNL     1      50.238   1.931  17.133  0.00  0.00    +0.000 A 
ATOM     28  C   UNL     1      48.964   2.468  17.036  0.00  0.00    +0.000 A 
ATOM     29  C   UNL     1      48.778   3.848  17.128  0.00  0.00    +0.000 A 
ATOM     30  C   UNL     1      49.889   4.714  17.299  0.00  0.00    +0.000 A 
ENDBRANCH  19  22
ENDBRANCH  17  20
ENDBRANCH   1  17
TORSDOF 7
ENDMDL
MODEL 6
REMARK VINA RESULT:    -6.946      2.908      9.392
REMARK INTER + INTRA:         -10.771
REMARK INTER:                  -9.449
REMARK INTRA:                  -1.322
REMARK UNBOUND:                -0.983
REMARK  Name = 
REMARK  7 active torsions:
REMARK  status: ('A' for Active; 'I' for Inactive)
REMARK    1  A    between atoms: C_2  and  C_20
REMARK    2  A    between atoms: N_3  and  C_4
REMARK    3  A    between atoms: C_4  and  C_5
REMARK    4  A    between atoms: C_8  and  N_9
REMARK    5  A    between atoms: N_9  and  C_10
REMARK    6  A    between atoms: C_10  and  C_11
REMARK    7  A    between atoms: C_11  and  C_12
REMARK                            x       y       z     vdW  Elec       q    Type
REMARK                         _______ _______ _______ _____ _____    ______ ____
ROOT
ATOM      1  C   UNL     1      47.810   5.859  14.806  0.00  0.00    +0.000 A 
ATOM      2  C   UNL     1      48.568   6.414  15.841  0.00  0.00    +0.000 A 
ATOM      3  C   UNL     1      48.622   5.795  17.095  0.00  0.00    +0.000 A 
ATOM      4  C   UNL     1      47.900   4.625  17.351  0.00  0.00    +0.000 A 
ATOM      5  C   UNL     1      47.224   4.025  16.286  0.00  0.00    +0.000 A 
ATOM      6  C   UNL     1      47.163   4.638  15.030  0.00  0.00    +0.000 A 
ENDROOT
BRANCH   4   7
ATOM      7  N   UNL     1      47.946   3.931  18.571  0.00  0.00    +0.000 N 
ATOM      8  H   UNL     1      47.841   2.934  18.382  0.00  0.00    +0.000 HD
BRANCH   7   9
ATOM      9  C   UNL     1      49.069   4.178  19.478  0.00  0.00    +0.000 C 
BRANCH   9  10
ATOM     10  C   UNL     1      48.570   4.694  20.831  0.00  0.00    +0.000 C 
BRANCH  10  11
ATOM     11  C   UNL     1      48.708   6.223  20.968  0.00  0.00    +0.000 C 
ATOM     12  C   UNL     1      47.488   6.971  20.407  0.00  0.00    +0.000 C 
ATOM     13  C   UNL     1      47.649   8.486  20.510  0.00  0.00    +0.000 C 
ATOM     14  C   UNL     1      48.930   8.967  19.836  0.00  0.00    +0.000 C 
ATOM     15  C   UNL     1      50.150   8.231  20.387  0.00  0.00    +0.000 C 
ATOM     16  C   UNL     1      49.992   6.711  20.285  0.00  0.00    +0.000 C 
ENDBRANCH  10  11
ENDBRANCH   9  10
ENDBRANCH   7   9
ENDBRANCH   4   7
BRANCH   1  17
ATOM     17  C   UNL     1      47.751   6.539  13.466  0.00  0.00    +0.000 C 
BRANCH  17  20
ATOM     18  O   UNL     1      45.152   7.248  12.638  0.00  0.00    +0.000 OA
ATOM     19  C   UNL     1      45.620   6.163  12.313  0.00  0.00    +0.000 C 
ATOM     20  N   UNL     1      46.921   5.784  12.568  0.00  0.00    +0.000 N 
ATOM     21  H   UNL     1      47.144   4.802  12.475  0.00  0.00    +0.000 HD
BRANCH  19  22
ATOM     22  C   UNL     1      44.812   5.072  11.773  0.00  0.00    +0.000 A 
ATOM     23  C   UNL     1      43.935   4.362  12.567  0.00  0.00    +0.000 A 
ATOM     24  S   UNL     1      43.423   2.913  11.829  0.00  0.00    +0.000 S 
ATOM     25  C   UNL     1      44.358   3.224  10.417  0.00  0.00    +0.000 A 
ATOM     26  C   UNL     1      44.601   2.349   9.341  0.00  0.00    +0.000 A 
ATOM     27  C   UNL     1      45.340   2.811   8.249  0.00  0.00    +0.000 A 
ATOM     28  C   UNL     1      45.752   4.133   8.184  0.00  0.00    +0.000 A 
ATOM     29  C   UNL     1      45.526   4.989   9.262  0.00  0.00    +0.000 A 
ATOM     30  C   UNL     1      44.894   4.512  10.440  0.00  0.00    +0.000 A 
ENDBRANCH  19  22
ENDBRANCH  17  20
ENDBRANCH   1  17
TORSDOF 7
ENDMDL
MODEL 7
REMARK VINA RESULT:    -6.894      1.733      3.283
REMARK INTER + INTRA:         -10.697
REMARK INTER:                  -9.870
REMARK INTRA:                  -0.828
REMARK UNBOUND:                -0.983
REMARK  Name = 
REMARK  7 active torsions:
REMARK  status: ('A' for Active; 'I' for Inactive)
REMARK    1  A    between atoms: C_2  and  C_20
REMARK    2  A    between atoms: N_3  and  C_4
REMARK    3  A    between atoms: C_4  and  C_5
REMARK    4  A    between atoms: C_8  and  N_9
REMARK    5  A    between atoms: N_9  and  C_10
REMARK    6  A    between atoms: C_10  and  C_11
REMARK    7  A    between atoms: C_11  and  C_12
REMARK                            x       y       z     vdW  Elec       q    Type
REMARK                         _______ _______ _______ _____ _____    ______ ____
ROOT
ATOM      1  C   UNL     1      46.650   4.606  13.973  0.00  0.00    +0.000 A 
ATOM      2  C   UNL     1      46.160   3.526  13.233  0.00  0.00    +0.000 A 
ATOM      3  C   UNL     1      45.548   3.731  11.993  0.00  0.00    +0.000 A 
ATOM      4  C   UNL     1      45.385   5.021  11.476  0.00  0.00    +0.000 A 
ATOM      5  C   UNL     1      45.962   6.085  12.174  0.00  0.00    +0.000 A 
ATOM      6  C   UNL     1      46.575   5.887  13.416  0.00  0.00    +0.000 A 
ENDROOT
BRANCH   4   7
ATOM      7  N   UNL     1      44.820   5.293  10.220  0.00  0.00    +0.000 N 
ATOM      8  H   UNL     1      44.408   6.225  10.244  0.00  0.00    +0.000 HD
BRANCH   7   9
ATOM      9  C   UNL     1      45.646   5.115   9.024  0.00  0.00    +0.000 C 
BRANCH   9  10
ATOM     10  C   UNL     1      45.150   3.927   8.194  0.00  0.00    +0.000 C 
BRANCH  10  11
ATOM     11  C   UNL     1      46.304   3.095   7.602  0.00  0.00    +0.000 C 
ATOM     12  C   UNL     1      46.431   3.274   6.080  0.00  0.00    +0.000 C 
ATOM     13  C   UNL     1      47.551   2.417   5.496  0.00  0.00    +0.000 C 
ATOM     14  C   UNL     1      47.382   0.943   5.851  0.00  0.00    +0.000 C 
ATOM     15  C   UNL     1      47.255   0.753   7.361  0.00  0.00    +0.000 C 
ATOM     16  C   UNL     1      46.133   1.611   7.952  0.00  0.00    +0.000 C 
ENDBRANCH  10  11
ENDBRANCH   9  10
ENDBRANCH   7   9
ENDBRANCH   4   7
BRANCH   1  17
ATOM     17  C   UNL     1      47.298   4.373  15.310  0.00  0.00    +0.000 C 
BRANCH  17  20
ATOM     18  O   UNL     1      49.549   4.671  16.980  0.00  0.00    +0.000 OA
ATOM     19  C   UNL     1      48.837   5.639  16.739  0.00  0.00    +0.000 C 
ATOM     20  N   UNL     1      47.791   5.614  15.840  0.00  0.00    +0.000 N 
ATOM     21  H   UNL     1      47.127   6.376  15.882  0.00  0.00    +0.000 HD
BRANCH  19  22
ATOM     22  C   UNL     1      48.896   6.886  17.498  0.00  0.00    +0.000 A 
ATOM     23  C   UNL     1      48.119   7.083  18.623  0.00  0.00    +0.000 A 
ATOM     24  S   UNL     1      48.060   8.722  19.087  0.00  0.00    +0.000 S 
ATOM     25  C   UNL     1      49.095   9.195  17.795  0.00  0.00    +0.000 A 
ATOM     26  C   UNL     1      49.410  10.504  17.385  0.00  0.00    +0.000 A 
ATOM     27  C   UNL     1      50.327  10.684  16.346  0.00  0.00    +0.000 A 
ATOM     28  C   UNL     1      50.983   9.599  15.787  0.00  0.00    +0.000 A 
ATOM     29  C   UNL     1      50.651   8.303  16.183  0.00  0.00    +0.000 A 
ATOM     30  C   UNL     1      49.629   8.082  17.143  0.00  0.00    +0.000 A 
ENDBRANCH  19  22
ENDBRANCH  17  20
ENDBRANCH   1  17
TORSDOF 7
ENDMDL
MODEL 8
REMARK VINA RESULT:    -6.867      2.782      8.200
REMARK INTER + INTRA:         -10.660
REMARK INTER:                  -9.155
REMARK INTRA:                  -1.505
REMARK UNBOUND:                -0.983
REMARK  Name = 
REMARK  7 active torsions:
REMARK  status: ('A' for Active; 'I' for Inactive)
REMARK    1  A    between atoms: C_2  and  C_20
REMARK    2  A    between atoms: N_3  and  C_4
REMARK    3  A    between atoms: C_4  and  C_5
REMARK    4  A    between atoms: C_8  and  N_9
REMARK    5  A    between atoms: N_9  and  C_10
REMARK    6  A    between atoms: C_10  and  C_11
REMARK    7  A    between atoms: C_11  and  C_12
REMARK                            x       y       z     vdW  Elec       q    Type
REMARK                         _______ _______ _______ _____ _____    ______ ____
ROOT
ATOM      1  C   UNL     1      48.232   7.858  13.619  0.00  0.00    +0.000 A 
ATOM      2  C   UNL     1      48.355   9.004  14.409  0.00  0.00    +0.000 A 
ATOM      3  C   UNL     1      48.645   8.901  15.774  0.00  0.00    +0.000 A 
ATOM      4  C   UNL     1      48.791   7.651  16.385  0.00  0.00    +0.000 A 
ATOM      5  C   UNL     1      48.763   6.515  15.571  0.00  0.00    +0.000 A 
ATOM      6  C   UNL     1      48.472   6.611  14.206  0.00  0.00    +0.000 A 
ENDROOT
BRANCH   4   7
ATOM      7  N   UNL     1      49.125   7.478  17.737  0.00  0.00    +0.000 N 
ATOM      8  H   UNL     1      49.452   8.370  18.108  0.00  0.00    +0.000 HD
BRANCH   7   9
ATOM      9  C   UNL     1      48.138   6.868  18.632  0.00  0.00    +0.000 C 
BRANCH   9  10
ATOM     10  C   UNL     1      48.791   5.794  19.508  0.00  0.00    +0.000 C 
BRANCH  10  11
ATOM     11  C   UNL     1      48.693   4.386  18.889  0.00  0.00    +0.000 C 
ATOM     12  C   UNL     1      49.938   4.024  18.063  0.00  0.00    +0.000 C 
ATOM     13  C   UNL     1      49.817   2.645  17.421  0.00  0.00    +0.000 C 
ATOM     14  C   UNL     1      48.556   2.524  16.571  0.00  0.00    +0.000 C 
ATOM     15  C   UNL     1      47.311   2.880  17.381  0.00  0.00    +0.000 C 
ATOM     16  C   UNL     1      47.429   4.263  18.028  0.00  0.00    +0.000 C 
ENDBRANCH  10  11
ENDBRANCH   9  10
ENDBRANCH   7   9
ENDBRANCH   4   7
BRANCH   1  17
ATOM     17  C   UNL     1      47.911   7.983  12.155  0.00  0.00    +0.000 C 
BRANCH  17  20
ATOM     18  O   UNL     1      45.180   8.323  11.543  0.00  0.00    +0.000 OA
ATOM     19  C   UNL     1      45.658   7.195  11.590  0.00  0.00    +0.000 C 
ATOM     20  N   UNL     1      47.003   6.941  11.761  0.00  0.00    +0.000 N 
ATOM     21  H   UNL     1      47.267   5.999  12.019  0.00  0.00    +0.000 HD
BRANCH  19  22
ATOM     22  C   UNL     1      44.846   5.982  11.647  0.00  0.00    +0.000 A 
ATOM     23  C   UNL     1      44.165   5.622  12.793  0.00  0.00    +0.000 A 
ATOM     24  S   UNL     1      43.634   4.003  12.748  0.00  0.00    +0.000 S 
ATOM     25  C   UNL     1      44.292   3.761  11.175  0.00  0.00    +0.000 A 
ATOM     26  C   UNL     1      44.407   2.547  10.472  0.00  0.00    +0.000 A 
ATOM     27  C   UNL     1      44.917   2.566   9.171  0.00  0.00    +0.000 A 
ATOM     28  C   UNL     1      45.222   3.767   8.549  0.00  0.00    +0.000 A 
ATOM     29  C   UNL     1      45.126   4.964   9.258  0.00  0.00    +0.000 A 
ATOM     30  C   UNL     1      44.737   4.964  10.624  0.00  0.00    +0.000 A 
ENDBRANCH  19  22
ENDBRANCH  17  20
ENDBRANCH   1  17
TORSDOF 7
ENDMDL
MODEL 9
REMARK VINA RESULT:    -6.601      4.631      7.650
REMARK INTER + INTRA:         -10.285
REMARK INTER:                  -9.363
REMARK INTRA:                  -0.922
REMARK UNBOUND:                -0.983
REMARK  Name = 
REMARK  7 active torsions:
REMARK  status: ('A' for Active; 'I' for Inactive)
REMARK    1  A    between atoms: C_2  and  C_20
REMARK    2  A    between atoms: N_3  and  C_4
REMARK    3  A    between atoms: C_4  and  C_5
REMARK    4  A    between atoms: C_8  and  N_9
REMARK    5  A    between atoms: N_9  and  C_10
REMARK    6  A    between atoms: C_10  and  C_11
REMARK    7  A    between atoms: C_11  and  C_12
REMARK                            x       y       z     vdW  Elec       q    Type
REMARK                         _______ _______ _______ _____ _____    ______ ____
ROOT
ATOM      1  C   UNL     1      48.624   6.963  13.339  0.00  0.00    +0.000 A 
ATOM      2  C   UNL     1      49.637   7.516  14.127  0.00  0.00    +0.000 A 
ATOM      3  C   UNL     1      50.620   8.330  13.555  0.00  0.00    +0.000 A 
ATOM      4  C   UNL     1      50.630   8.588  12.180  0.00  0.00    +0.000 A 
ATOM      5  C   UNL     1      49.561   8.112  11.416  0.00  0.00    +0.000 A 
ATOM      6  C   UNL     1      48.575   7.295  11.980  0.00  0.00    +0.000 A 
ENDROOT
BRANCH   4   7
ATOM      7  N   UNL     1      51.560   9.430  11.550  0.00  0.00    +0.000 N 
ATOM      8  H   UNL     1      52.240   9.740  12.244  0.00  0.00    +0.000 HD
BRANCH   7   9
ATOM      9  C   UNL     1      52.228   8.956  10.336  0.00  0.00    +0.000 C 
BRANCH   9  10
ATOM     10  C   UNL     1      53.094   7.729  10.638  0.00  0.00    +0.000 C 
BRANCH  10  11
ATOM     11  C   UNL     1      53.611   7.041   9.359  0.00  0.00    +0.000 C 
ATOM     12  C   UNL     1      52.566   7.047   8.231  0.00  0.00    +0.000 C 
ATOM     13  C   UNL     1      53.071   6.330   6.981  0.00  0.00    +0.000 C 
ATOM     14  C   UNL     1      53.521   4.905   7.288  0.00  0.00    +0.000 C 
ATOM     15  C   UNL     1      54.560   4.886   8.408  0.00  0.00    +0.000 C 
ATOM     16  C   UNL     1      54.058   5.605   9.663  0.00  0.00    +0.000 C 
ENDBRANCH  10  11
ENDBRANCH   9  10
ENDBRANCH   7   9
ENDBRANCH   4   7
BRANCH   1  17
ATOM     17  C   UNL     1      47.578   6.081  13.964  0.00  0.00    +0.000 C 
BRANCH  17  20
ATOM     18  O   UNL     1      45.106   6.953  12.928  0.00  0.00    +0.000 OA
ATOM     19  C   UNL     1      45.564   5.870  12.582  0.00  0.00    +0.000 C 
ATOM     20  N   UNL     1      46.817   5.419  12.940  0.00  0.00    +0.000 N 
ATOM     21  H   UNL     1      47.010   4.436  12.807  0.00  0.00    +0.000 HD
BRANCH  19  22
ATOM     22  C   UNL     1      44.776   4.850  11.893  0.00  0.00    +0.000 A 
ATOM     23  C   UNL     1      43.876   4.053  12.573  0.00  0.00    +0.000 A 
ATOM     24  S   UNL     1      43.391   2.701  11.655  0.00  0.00    +0.000 S 
ATOM     25  C   UNL     1      44.367   3.174  10.317  0.00  0.00    +0.000 A 
ATOM     26  C   UNL     1      44.645   2.431   9.155  0.00  0.00    +0.000 A 
ATOM     27  C   UNL     1      45.414   3.017   8.147  0.00  0.00    +0.000 A 
ATOM     28  C   UNL     1      45.825   4.337   8.249  0.00  0.00    +0.000 A 
ATOM     29  C   UNL     1      45.564   5.061   9.413  0.00  0.00    +0.000 A 
ATOM     30  C   UNL     1      44.899   4.450  10.508  0.00  0.00    +0.000 A 
ENDBRANCH  19  22
ENDBRANCH  17  20
ENDBRANCH   1  17
TORSDOF 7
ENDMDL
