MODEL 1
REMARK VINA RESULT:    -8.222      0.000      0.000
REMARK INTER + INTRA:         -11.229
REMARK INTER:                 -10.625
REMARK INTRA:                  -0.604
REMARK UNBOUND:                -0.604
REMARK  Name = 
REMARK  5 active torsions:
REMARK  status: ('A' for Active; 'I' for Inactive)
REMARK    1  A    between atoms: C_2  and  C_4
REMARK    2  A    between atoms: C_8  and  O_9
REMARK    3  A    between atoms: O_9  and  C_10
REMARK    4  A    between atoms: C_10  and  C_11
REMARK    5  A    between atoms: C_16  and  N_17
REMARK                            x       y       z     vdW  Elec       q    Type
REMARK                         _______ _______ _______ _____ _____    ______ ____
ROOT
ATOM      1  C   UNL     1      44.512   4.564  11.955  0.00  0.00    +0.000 A 
ATOM      2  C   UNL     1      45.328   3.610  12.562  0.00  0.00    +0.000 A 
ATOM      3  C   UNL     1      46.396   4.029  13.339  0.00  0.00    +0.000 A 
ATOM      4  F   UNL     1      47.204   3.114  13.893  0.00  0.00    +0.000 F 
ATOM      5  C   UNL     1      46.665   5.382  13.532  0.00  0.00    +0.000 A 
ATOM      6  C   UNL     1      45.852   6.374  12.966  0.00  0.00    +0.000 A 
ATOM      7  C   UNL     1      44.764   5.929  12.195  0.00  0.00    +0.000 A 
ENDROOT
BRANCH   6   8
ATOM      8  N   UNL     1      46.133   7.718  13.110  0.00  0.00    +0.000 N 
ATOM      9  C   UNL     1      45.195   8.780  12.714  0.00  0.00    +0.000 C 
ATOM     10  C   UNL     1      45.916   9.838  11.849  0.00  0.00    +0.000 C 
ATOM     11  N   UNL     1      47.128  10.396  12.487  0.00  0.00    +0.000 NA
ATOM     12  C   UNL     1      48.032   9.282  12.839  0.00  0.00    +0.000 C 
ATOM     13  C   UNL     1      47.379   8.196  13.730  0.00  0.00    +0.000 C 
ATOM     14  H   UNL     1      46.840  10.853  13.355  0.00  0.00    +0.000 HD
ENDBRANCH   6   8
BRANCH   1  15
ATOM     15  C   UNL     1      43.428   4.149  10.993  0.00  0.00    +0.000 C 
BRANCH  15  16
ATOM     16  O   UNL     1      43.803   2.974  10.281  0.00  0.00    +0.000 OA
BRANCH  16  21
ATOM     17  C   UNL     1      46.331   2.023   7.844  0.00  0.00    +0.000 A 
ATOM     18  C   UNL     1      46.730   3.258   7.319  0.00  0.00    +0.000 A 
ATOM     19  C   UNL     1      46.139   4.431   7.780  0.00  0.00    +0.000 A 
ATOM     20  C   UNL     1      45.154   4.377   8.768  0.00  0.00    +0.000 A 
ATOM     21  C   UNL     1      44.754   3.150   9.309  0.00  0.00    +0.000 A 
ATOM     22  C   UNL     1      45.358   1.976   8.851  0.00  0.00    +0.000 A 
BRANCH  17  24
ATOM     23  N   UNL     1      47.766   0.935   6.211  0.00  0.00    +0.000 N 
ATOM     24  C   UNL     1      46.969   0.792   7.314  0.00  0.00    +0.000 C 
ATOM     25  O   UNL     1      46.831  -0.294   7.859  0.00  0.00    +0.000 OA
ATOM     26  H   UNL     1      48.280   0.115   5.916  0.00  0.00    +0.000 HD
ATOM     27  H   UNL     1      48.090   1.836   5.890  0.00  0.00    +0.000 HD
ENDBRANCH  17  24
ENDBRANCH  16  21
ENDBRANCH  15  16
ENDBRANCH   1  15
TORSDOF 5
ENDMDL
MODEL 2
REMARK VINA RESULT:    -7.388      2.808      4.051
REMARK INTER + INTRA:         -10.152
REMARK INTER:                  -9.332
REMARK INTRA:                  -0.819
REMARK UNBOUND:                -0.604
REMARK  Name = 
REMARK  5 active torsions:
REMARK  status: ('A' for Active; 'I' for Inactive)
REMARK    1  A    between atoms: C_2  and  C_4
REMARK    2  A    between atoms: C_8  and  O_9
REMARK    3  A    between atoms: O_9  and  C_10
REMARK    4  A    between atoms: C_10  and  C_11
REMARK    5  A    between atoms: C_16  and  N_17
REMARK                            x       y       z     vdW  Elec       q    Type
REMARK                         _______ _______ _______ _____ _____    ______ ____
ROOT
ATOM      1  C   UNL     1      46.130   5.766  12.016  0.00  0.00    +0.000 A 
ATOM      2  C   UNL     1      47.005   6.688  11.443  0.00  0.00    +0.000 A 
ATOM      3  C   UNL     1      48.100   7.125  12.171  0.00  0.00    +0.000 A 
ATOM      4  F   UNL     1      48.922   8.039  11.638  0.00  0.00    +0.000 F 
ATOM      5  C   UNL     1      48.348   6.654  13.460  0.00  0.00    +0.000 A 
ATOM      6  C   UNL     1      47.511   5.704  14.061  0.00  0.00    +0.000 A 
ATOM      7  C   UNL     1      46.415   5.262  13.299  0.00  0.00    +0.000 A 
ENDROOT
BRANCH   6   8
ATOM      8  N   UNL     1      47.717   5.265  15.354  0.00  0.00    +0.000 N 
ATOM      9  C   UNL     1      48.537   5.999  16.329  0.00  0.00    +0.000 C 
ATOM     10  C   UNL     1      49.549   5.047  17.005  0.00  0.00    +0.000 C 
ATOM     11  N   UNL     1      48.921   3.855  17.614  0.00  0.00    +0.000 NA
ATOM     12  C   UNL     1      48.133   3.156  16.579  0.00  0.00    +0.000 C 
ATOM     13  C   UNL     1      47.078   4.048  15.878  0.00  0.00    +0.000 C 
ATOM     14  H   UNL     1      48.274   4.178  18.336  0.00  0.00    +0.000 HD
ENDBRANCH   6   8
BRANCH   1  15
ATOM     15  C   UNL     1      44.857   5.374  11.310  0.00  0.00    +0.000 C 
BRANCH  15  16
ATOM     16  O   UNL     1      45.041   5.363   9.898  0.00  0.00    +0.000 OA
BRANCH  16  21
ATOM     17  C   UNL     1      46.330   2.910   7.542  0.00  0.00    +0.000 A 
ATOM     18  C   UNL     1      45.781   1.712   8.015  0.00  0.00    +0.000 A 
ATOM     19  C   UNL     1      44.971   1.720   9.148  0.00  0.00    +0.000 A 
ATOM     20  C   UNL     1      44.703   2.921   9.807  0.00  0.00    +0.000 A 
ATOM     21  C   UNL     1      45.237   4.127   9.338  0.00  0.00    +0.000 A 
ATOM     22  C   UNL     1      46.040   4.115   8.195  0.00  0.00    +0.000 A 
BRANCH  17  24
ATOM     23  N   UNL     1      48.535   2.620   6.559  0.00  0.00    +0.000 N 
ATOM     24  C   UNL     1      47.205   2.858   6.344  0.00  0.00    +0.000 C 
ATOM     25  O   UNL     1      46.758   2.977   5.211  0.00  0.00    +0.000 OA
ATOM     26  H   UNL     1      49.108   2.483   5.736  0.00  0.00    +0.000 HD
ATOM     27  H   UNL     1      48.889   2.282   7.441  0.00  0.00    +0.000 HD
ENDBRANCH  17  24
ENDBRANCH  16  21
ENDBRANCH  15  16
ENDBRANCH   1  15
TORSDOF 5
ENDMDL
MODEL 3
REMARK VINA RESULT:    -7.291      1.527      2.139
REMARK INTER + INTRA:         -10.026
REMARK INTER:                  -9.100
REMARK INTRA:                  -0.925
REMARK UNBOUND:                -0.604
REMARK  Name = 
REMARK  5 active torsions:
REMARK  status: ('A' for Active; 'I' for Inactive)
REMARK    1  A    between atoms: C_2  and  C_4
REMARK    2  A    between atoms: C_8  and  O_9
REMARK    3  A    between atoms: O_9  and  C_10
REMARK    4  A    between atoms: C_10  and  C_11
REMARK    5  A    between atoms: C_16  and  N_17
REMARK                            x       y       z     vdW  Elec       q    Type
REMARK                         _______ _______ _______ _____ _____    ______ ____
ROOT
ATOM      1  C   UNL     1      44.932   5.030  11.716  0.00  0.00    +0.000 A 
ATOM      2  C   UNL     1      45.393   4.079  12.625  0.00  0.00    +0.000 A 
ATOM      3  C   UNL     1      46.551   4.335  13.342  0.00  0.00    +0.000 A 
ATOM      4  F   UNL     1      47.017   3.407  14.190  0.00  0.00    +0.000 F 
ATOM      5  C   UNL     1      47.257   5.525  13.178  0.00  0.00    +0.000 A 
ATOM      6  C   UNL     1      46.813   6.520  12.297  0.00  0.00    +0.000 A 
ATOM      7  C   UNL     1      45.627   6.249  11.591  0.00  0.00    +0.000 A 
ENDROOT
BRANCH   6   8
ATOM      8  N   UNL     1      47.527   7.683  12.088  0.00  0.00    +0.000 N 
ATOM      9  C   UNL     1      48.909   7.695  11.586  0.00  0.00    +0.000 C 
ATOM     10  C   UNL     1      49.795   8.600  12.471  0.00  0.00    +0.000 C 
ATOM     11  N   UNL     1      49.264   9.972  12.630  0.00  0.00    +0.000 NA
ATOM     12  C   UNL     1      47.886   9.886  13.155  0.00  0.00    +0.000 C 
ATOM     13  C   UNL     1      46.935   9.014  12.298  0.00  0.00    +0.000 C 
ATOM     14  H   UNL     1      49.220  10.398  11.702  0.00  0.00    +0.000 HD
ENDBRANCH   6   8
BRANCH   1  15
ATOM     15  C   UNL     1      43.757   4.730  10.819  0.00  0.00    +0.000 C 
BRANCH  15  16
ATOM     16  O   UNL     1      44.142   4.767   9.448  0.00  0.00    +0.000 OA
BRANCH  16  21
ATOM     17  C   UNL     1      46.348   2.767   7.359  0.00  0.00    +0.000 A 
ATOM     18  C   UNL     1      46.135   1.470   7.843  0.00  0.00    +0.000 A 
ATOM     19  C   UNL     1      45.246   1.258   8.893  0.00  0.00    +0.000 A 
ATOM     20  C   UNL     1      44.563   2.336   9.459  0.00  0.00    +0.000 A 
ATOM     21  C   UNL     1      44.757   3.636   8.976  0.00  0.00    +0.000 A 
ATOM     22  C   UNL     1      45.642   3.842   7.916  0.00  0.00    +0.000 A 
BRANCH  17  24
ATOM     23  N   UNL     1      48.577   2.452   6.441  0.00  0.00    +0.000 N 
ATOM     24  C   UNL     1      47.319   2.956   6.252  0.00  0.00    +0.000 C 
ATOM     25  O   UNL     1      47.003   3.494   5.200  0.00  0.00    +0.000 OA
ATOM     26  H   UNL     1      49.202   2.491   5.647  0.00  0.00    +0.000 HD
ATOM     27  H   UNL     1      48.794   1.801   7.181  0.00  0.00    +0.000 HD
ENDBRANCH  17  24
ENDBRANCH  16  21
ENDBRANCH  15  16
ENDBRANCH   1  15
TORSDOF 5
ENDMDL
MODEL 4
REMARK VINA RESULT:    -7.130      4.152      7.801
REMARK INTER + INTRA:          -9.819
REMARK INTER:                  -8.883
REMARK INTRA:                  -0.936
REMARK UNBOUND:                -0.604
REMARK  Name = 
REMARK  5 active torsions:
REMARK  status: ('A' for Active; 'I' for Inactive)
REMARK    1  A    between atoms: C_2  and  C_4
REMARK    2  A    between atoms: C_8  and  O_9
REMARK    3  A    between atoms: O_9  and  C_10
REMARK    4  A    between atoms: C_10  and  C_11
REMARK    5  A    between atoms: C_16  and  N_17
REMARK                            x       y       z     vdW  Elec       q    Type
REMARK                         _______ _______ _______ _____ _____    ______ ____
ROOT
ATOM      1  C   UNL     1      47.580   7.657  13.396  0.00  0.00    +0.000 A 
ATOM      2  C   UNL     1      46.753   8.778  13.347  0.00  0.00    +0.000 A 
ATOM      3  C   UNL     1      45.501   8.670  12.763  0.00  0.00    +0.000 A 
ATOM      4  F   UNL     1      44.719   9.755  12.681  0.00  0.00    +0.000 F 
ATOM      5  C   UNL     1      45.051   7.462  12.233  0.00  0.00    +0.000 A 
ATOM      6  C   UNL     1      45.837   6.304  12.289  0.00  0.00    +0.000 A 
ATOM      7  C   UNL     1      47.097   6.430  12.900  0.00  0.00    +0.000 A 
ENDROOT
BRANCH   6   8
ATOM      8  N   UNL     1      45.423   5.113  11.726  0.00  0.00    +0.000 N 
ATOM      9  C   UNL     1      45.175   4.951  10.285  0.00  0.00    +0.000 C 
ATOM     10  C   UNL     1      43.805   4.279  10.048  0.00  0.00    +0.000 C 
ATOM     11  N   UNL     1      43.641   3.000  10.773  0.00  0.00    +0.000 NA
ATOM     12  C   UNL     1      43.883   3.239  12.211  0.00  0.00    +0.000 C 
ATOM     13  C   UNL     1      45.255   3.887  12.522  0.00  0.00    +0.000 C 
ATOM     14  H   UNL     1      44.361   2.357  10.436  0.00  0.00    +0.000 HD
ENDBRANCH   6   8
BRANCH   1  15
ATOM     15  C   UNL     1      48.998   7.768  13.897  0.00  0.00    +0.000 C 
BRANCH  15  16
ATOM     16  O   UNL     1      49.390   6.581  14.580  0.00  0.00    +0.000 OA
BRANCH  16  21
ATOM     17  C   UNL     1      48.030   4.960  17.538  0.00  0.00    +0.000 A 
ATOM     18  C   UNL     1      48.002   6.002  18.473  0.00  0.00    +0.000 A 
ATOM     19  C   UNL     1      48.454   7.268  18.114  0.00  0.00    +0.000 A 
ATOM     20  C   UNL     1      48.929   7.501  16.821  0.00  0.00    +0.000 A 
ATOM     21  C   UNL     1      48.951   6.471  15.874  0.00  0.00    +0.000 A 
ATOM     22  C   UNL     1      48.487   5.204  16.236  0.00  0.00    +0.000 A 
BRANCH  17  24
ATOM     23  N   UNL     1      48.178   3.062  19.050  0.00  0.00    +0.000 N 
ATOM     24  C   UNL     1      47.559   3.618  17.964  0.00  0.00    +0.000 C 
ATOM     25  O   UNL     1      46.632   3.051  17.404  0.00  0.00    +0.000 OA
ATOM     26  H   UNL     1      47.786   2.197  19.399  0.00  0.00    +0.000 HD
ATOM     27  H   UNL     1      48.767   3.597  19.670  0.00  0.00    +0.000 HD
ENDBRANCH  17  24
ENDBRANCH  16  21
ENDBRANCH  15  16
ENDBRANCH   1  15
TORSDOF 5
ENDMDL
MODEL 5
REMARK VINA RESULT:    -6.912      5.540      8.060
REMARK INTER + INTRA:          -9.537
REMARK INTER:                  -8.817
REMARK INTRA:                  -0.720
REMARK UNBOUND:                -0.604
REMARK  Name = 
REMARK  5 active torsions:
REMARK  status: ('A' for Active; 'I' for Inactive)
REMARK    1  A    between atoms: C_2  and  C_4
REMARK    2  A    between atoms: C_8  and  O_9
REMARK    3  A    between atoms: O_9  and  C_10
REMARK    4  A    between atoms: C_10  and  C_11
REMARK    5  A    between atoms: C_16  and  N_17
REMARK                            x       y       z     vdW  Elec       q    Type
REMARK                         _______ _______ _______ _____ _____    ______ ____
ROOT
ATOM      1  C   UNL     1      47.489   5.092  15.279  0.00  0.00    +0.000 A 
ATOM      2  C   UNL     1      48.270   6.173  14.872  0.00  0.00    +0.000 A 
ATOM      3  C   UNL     1      48.089   6.697  13.602  0.00  0.00    +0.000 A 
ATOM      4  F   UNL     1      48.864   7.713  13.194  0.00  0.00    +0.000 F 
ATOM      5  C   UNL     1      47.139   6.171  12.729  0.00  0.00    +0.000 A 
ATOM      6  C   UNL     1      46.312   5.105  13.109  0.00  0.00    +0.000 A 
ATOM      7  C   UNL     1      46.499   4.599  14.407  0.00  0.00    +0.000 A 
ENDROOT
BRANCH   6   8
ATOM      8  N   UNL     1      45.399   4.543  12.239  0.00  0.00    +0.000 N 
ATOM      9  C   UNL     1      44.690   5.320  11.211  0.00  0.00    +0.000 C 
ATOM     10  C   UNL     1      43.174   5.025  11.267  0.00  0.00    +0.000 C 
ATOM     11  N   UNL     1      42.849   3.585  11.179  0.00  0.00    +0.000 NA
ATOM     12  C   UNL     1      43.576   2.871  12.248  0.00  0.00    +0.000 C 
ATOM     13  C   UNL     1      45.108   3.101  12.234  0.00  0.00    +0.000 C 
ATOM     14  H   UNL     1      43.195   3.242  10.280  0.00  0.00    +0.000 HD
ENDBRANCH   6   8
BRANCH   1  15
ATOM     15  C   UNL     1      47.751   4.408  16.597  0.00  0.00    +0.000 C 
BRANCH  15  16
ATOM     16  O   UNL     1      48.593   3.273  16.422  0.00  0.00    +0.000 OA
BRANCH  16  21
ATOM     17  C   UNL     1      51.803   2.099  17.664  0.00  0.00    +0.000 A 
ATOM     18  C   UNL     1      52.364   3.261  18.209  0.00  0.00    +0.000 A 
ATOM     19  C   UNL     1      51.663   4.462  18.153  0.00  0.00    +0.000 A 
ATOM     20  C   UNL     1      50.400   4.507  17.560  0.00  0.00    +0.000 A 
ATOM     21  C   UNL     1      49.822   3.351  17.023  0.00  0.00    +0.000 A 
ATOM     22  C   UNL     1      50.526   2.146  17.091  0.00  0.00    +0.000 A 
BRANCH  17  24
ATOM     23  N   UNL     1      52.043  -0.197  18.426  0.00  0.00    +0.000 N 
ATOM     24  C   UNL     1      52.590   0.842  17.725  0.00  0.00    +0.000 C 
ATOM     25  O   UNL     1      53.657   0.718  17.139  0.00  0.00    +0.000 OA
ATOM     26  H   UNL     1      52.532  -1.082  18.378  0.00  0.00    +0.000 HD
ATOM     27  H   UNL     1      51.074  -0.208  18.709  0.00  0.00    +0.000 HD
ENDBRANCH  17  24
ENDBRANCH  16  21
ENDBRANCH  15  16
ENDBRANCH   1  15
TORSDOF 5
ENDMDL
MODEL 6
REMARK VINA RESULT:    -6.713      3.478      5.383
REMARK INTER + INTRA:          -9.279
REMARK INTER:                  -8.507
REMARK INTRA:                  -0.772
REMARK UNBOUND:                -0.604
REMARK  Name = 
REMARK  5 active torsions:
REMARK  status: ('A' for Active; 'I' for Inactive)
REMARK    1  A    between atoms: C_2  and  C_4
REMARK    2  A    between atoms: C_8  and  O_9
REMARK    3  A    between atoms: O_9  and  C_10
REMARK    4  A    between atoms: C_10  and  C_11
REMARK    5  A    between atoms: C_16  and  N_17
REMARK                            x       y       z     vdW  Elec       q    Type
REMARK                         _______ _______ _______ _____ _____    ______ ____
ROOT
ATOM      1  C   UNL     1      48.071   6.765  12.986  0.00  0.00    +0.000 A 
ATOM      2  C   UNL     1      49.210   7.567  13.048  0.00  0.00    +0.000 A 
ATOM      3  C   UNL     1      49.942   7.613  14.224  0.00  0.00    +0.000 A 
ATOM      4  F   UNL     1      51.016   8.412  14.298  0.00  0.00    +0.000 F 
ATOM      5  C   UNL     1      49.567   6.869  15.341  0.00  0.00    +0.000 A 
ATOM      6  C   UNL     1      48.447   6.026  15.312  0.00  0.00    +0.000 A 
ATOM      7  C   UNL     1      47.728   5.980  14.105  0.00  0.00    +0.000 A 
ENDROOT
BRANCH   6   8
ATOM      8  N   UNL     1      48.036   5.320  16.425  0.00  0.00    +0.000 N 
ATOM      9  C   UNL     1      48.293   5.772  17.800  0.00  0.00    +0.000 C 
ATOM     10  C   UNL     1      48.893   4.623  18.641  0.00  0.00    +0.000 C 
ATOM     11  N   UNL     1      48.079   3.388  18.619  0.00  0.00    +0.000 NA
ATOM     12  C   UNL     1      47.878   2.980  17.213  0.00  0.00    +0.000 C 
ATOM     13  C   UNL     1      47.252   4.079  16.319  0.00  0.00    +0.000 C 
ATOM     14  H   UNL     1      47.163   3.612  19.015  0.00  0.00    +0.000 HD
ENDBRANCH   6   8
BRANCH   1  15
ATOM     15  C   UNL     1      47.174   6.795  11.775  0.00  0.00    +0.000 C 
BRANCH  15  16
ATOM     16  O   UNL     1      45.816   6.994  12.154  0.00  0.00    +0.000 OA
BRANCH  16  21
ATOM     17  C   UNL     1      44.414   4.031  10.578  0.00  0.00    +0.000 A 
ATOM     18  C   UNL     1      43.436   3.629  11.497  0.00  0.00    +0.000 A 
ATOM     19  C   UNL     1      43.246   4.354  12.670  0.00  0.00    +0.000 A 
ATOM     20  C   UNL     1      44.025   5.484  12.927  0.00  0.00    +0.000 A 
ATOM     21  C   UNL     1      44.997   5.903  12.011  0.00  0.00    +0.000 A 
ATOM     22  C   UNL     1      45.177   5.178  10.831  0.00  0.00    +0.000 A 
BRANCH  17  24
ATOM     23  N   UNL     1      44.324   3.832   8.157  0.00  0.00    +0.000 N 
ATOM     24  C   UNL     1      44.601   3.220   9.349  0.00  0.00    +0.000 C 
ATOM     25  O   UNL     1      45.025   2.073   9.389  0.00  0.00    +0.000 OA
ATOM     26  H   UNL     1      44.551   3.311   7.319  0.00  0.00    +0.000 HD
ATOM     27  H   UNL     1      44.209   4.831   8.075  0.00  0.00    +0.000 HD
ENDBRANCH  17  24
ENDBRANCH  16  21
ENDBRANCH  15  16
ENDBRANCH   1  15
TORSDOF 5
ENDMDL
MODEL 7
REMARK VINA RESULT:    -6.609      5.140      8.059
REMARK INTER + INTRA:          -9.145
REMARK INTER:                  -8.377
REMARK INTRA:                  -0.769
REMARK UNBOUND:                -0.604
REMARK  Name = 
REMARK  5 active torsions:
REMARK  status: ('A' for Active; 'I' for Inactive)
REMARK    1  A    between atoms: C_2  and  C_4
REMARK    2  A    between atoms: C_8  and  O_9
REMARK    3  A    between atoms: O_9  and  C_10
REMARK    4  A    between atoms: C_10  and  C_11
REMARK    5  A    between atoms: C_16  and  N_17
REMARK                            x       y       z     vdW  Elec       q    Type
REMARK                         _______ _______ _______ _____ _____    ______ ____
ROOT
ATOM      1  C   UNL     1      48.047   6.472  14.366  0.00  0.00    +0.000 A 
ATOM      2  C   UNL     1      48.600   7.180  13.300  0.00  0.00    +0.000 A 
ATOM      3  C   UNL     1      47.997   7.107  12.054  0.00  0.00    +0.000 A 
ATOM      4  F   UNL     1      48.549   7.756  11.019  0.00  0.00    +0.000 F 
ATOM      5  C   UNL     1      46.847   6.348  11.849  0.00  0.00    +0.000 A 
ATOM      6  C   UNL     1      46.240   5.646  12.899  0.00  0.00    +0.000 A 
ATOM      7  C   UNL     1      46.857   5.746  14.159  0.00  0.00    +0.000 A 
ENDROOT
BRANCH   6   8
ATOM      8  N   UNL     1      45.128   4.853  12.701  0.00  0.00    +0.000 N 
ATOM      9  C   UNL     1      45.213   3.441  12.296  0.00  0.00    +0.000 C 
ATOM     10  C   UNL     1      44.271   3.168  11.102  0.00  0.00    +0.000 C 
ATOM     11  N   UNL     1      42.872   3.578  11.347  0.00  0.00    +0.000 NA
ATOM     12  C   UNL     1      42.858   5.006  11.728  0.00  0.00    +0.000 C 
ATOM     13  C   UNL     1      43.762   5.346  12.939  0.00  0.00    +0.000 C 
ATOM     14  H   UNL     1      42.523   3.038  12.143  0.00  0.00    +0.000 HD
ENDBRANCH   6   8
BRANCH   1  15
ATOM     15  C   UNL     1      48.750   6.415  15.699  0.00  0.00    +0.000 C 
BRANCH  15  16
ATOM     16  O   UNL     1      48.155   5.436  16.545  0.00  0.00    +0.000 OA
BRANCH  16  21
ATOM     17  C   UNL     1      51.082   3.577  17.644  0.00  0.00    +0.000 A 
ATOM     18  C   UNL     1      50.698   2.247  17.433  0.00  0.00    +0.000 A 
ATOM     19  C   UNL     1      49.434   1.963  16.922  0.00  0.00    +0.000 A 
ATOM     20  C   UNL     1      48.554   3.003  16.616  0.00  0.00    +0.000 A 
ATOM     21  C   UNL     1      48.930   4.337  16.811  0.00  0.00    +0.000 A 
ATOM     22  C   UNL     1      50.203   4.617  17.314  0.00  0.00    +0.000 A 
BRANCH  17  24
ATOM     23  N   UNL     1      52.638   3.467  19.509  0.00  0.00    +0.000 N 
ATOM     24  C   UNL     1      52.429   3.839  18.210  0.00  0.00    +0.000 C 
ATOM     25  O   UNL     1      53.329   4.324  17.537  0.00  0.00    +0.000 OA
ATOM     26  H   UNL     1      53.584   3.552  19.857  0.00  0.00    +0.000 HD
ATOM     27  H   UNL     1      52.007   2.855  20.005  0.00  0.00    +0.000 HD
ENDBRANCH  17  24
ENDBRANCH  16  21
ENDBRANCH  15  16
ENDBRANCH   1  15
TORSDOF 5
ENDMDL
MODEL 8
REMARK VINA RESULT:    -6.465      4.497      5.838
REMARK INTER + INTRA:          -8.959
REMARK INTER:                  -8.305
REMARK INTRA:                  -0.654
REMARK UNBOUND:                -0.604
REMARK  Name = 
REMARK  5 active torsions:
REMARK  status: ('A' for Active; 'I' for Inactive)
REMARK    1  A    between atoms: C_2  and  C_4
REMARK    2  A    between atoms: C_8  and  O_9
REMARK    3  A    between atoms: O_9  and  C_10
REMARK    4  A    between atoms: C_10  and  C_11
REMARK    5  A    between atoms: C_16  and  N_17
REMARK                            x       y       z     vdW  Elec       q    Type
REMARK                         _______ _______ _______ _____ _____    ______ ____
ROOT
ATOM      1  C   UNL     1      47.816   3.513  15.917  0.00  0.00    +0.000 A 
ATOM      2  C   UNL     1      48.730   2.530  16.294  0.00  0.00    +0.000 A 
ATOM      3  C   UNL     1      49.467   2.700  17.455  0.00  0.00    +0.000 A 
ATOM      4  F   UNL     1      50.373   1.774  17.800  0.00  0.00    +0.000 F 
ATOM      5  C   UNL     1      49.306   3.829  18.257  0.00  0.00    +0.000 A 
ATOM      6  C   UNL     1      48.377   4.827  17.932  0.00  0.00    +0.000 A 
ATOM      7  C   UNL     1      47.628   4.627  16.759  0.00  0.00    +0.000 A 
ENDROOT
BRANCH   6   8
ATOM      8  N   UNL     1      48.241   5.972  18.690  0.00  0.00    +0.000 N 
ATOM      9  C   UNL     1      49.003   7.202  18.428  0.00  0.00    +0.000 C 
ATOM     10  C   UNL     1      49.645   7.724  19.733  0.00  0.00    +0.000 C 
ATOM     11  N   UNL     1      48.675   7.913  20.833  0.00  0.00    +0.000 NA
ATOM     12  C   UNL     1      47.961   6.638  21.056  0.00  0.00    +0.000 C 
ATOM     13  C   UNL     1      47.270   6.071  19.791  0.00  0.00    +0.000 C 
ATOM     14  H   UNL     1      47.989   8.607  20.529  0.00  0.00    +0.000 HD
ENDBRANCH   6   8
BRANCH   1  15
ATOM     15  C   UNL     1      47.099   3.430  14.594  0.00  0.00    +0.000 C 
BRANCH  15  16
ATOM     16  O   UNL     1      46.158   4.490  14.459  0.00  0.00    +0.000 OA
BRANCH  16  21
ATOM     17  C   UNL     1      45.045   4.690  11.002  0.00  0.00    +0.000 A 
ATOM     18  C   UNL     1      45.634   5.880  10.558  0.00  0.00    +0.000 A 
ATOM     19  C   UNL     1      46.410   6.637  11.432  0.00  0.00    +0.000 A 
ATOM     20  C   UNL     1      46.606   6.207  12.745  0.00  0.00    +0.000 A 
ATOM     21  C   UNL     1      46.033   5.013  13.197  0.00  0.00    +0.000 A 
ATOM     22  C   UNL     1      45.263   4.251  12.314  0.00  0.00    +0.000 A 
BRANCH  17  24
ATOM     23  N   UNL     1      44.127   4.400   8.769  0.00  0.00    +0.000 N 
ATOM     24  C   UNL     1      44.208   3.921  10.048  0.00  0.00    +0.000 C 
ATOM     25  O   UNL     1      43.650   2.881  10.370  0.00  0.00    +0.000 OA
ATOM     26  H   UNL     1      43.642   3.819   8.098  0.00  0.00    +0.000 HD
ATOM     27  H   UNL     1      44.758   5.104   8.414  0.00  0.00    +0.000 HD
ENDBRANCH  17  24
ENDBRANCH  16  21
ENDBRANCH  15  16
ENDBRANCH   1  15
TORSDOF 5
ENDMDL
MODEL 9
REMARK VINA RESULT:    -6.372      4.459      8.205
REMARK INTER + INTRA:          -8.838
REMARK INTER:                  -8.039
REMARK INTRA:                  -0.799
REMARK UNBOUND:                -0.604
REMARK  Name = 
REMARK  5 active torsions:
REMARK  status: ('A' for Active; 'I' for Inactive)
REMARK    1  A    between atoms: C_2  and  C_4
REMARK    2  A    between atoms: C_8  and  O_9
REMARK    3  A    between atoms: O_9  and  C_10
REMARK    4  A    between atoms: C_10  and  C_11
REMARK    5  A    between atoms: C_16  and  N_17
REMARK                            x       y       z     vdW  Elec       q    Type
REMARK                         _______ _______ _______ _____ _____    ______ ____
ROOT
ATOM      1  C   UNL     1      46.783   7.064  13.243  0.00  0.00    +0.000 A 
ATOM      2  C   UNL     1      46.472   8.345  12.789  0.00  0.00    +0.000 A 
ATOM      3  C   UNL     1      45.414   8.513  11.911  0.00  0.00    +0.000 A 
ATOM      4  F   UNL     1      45.136   9.739  11.443  0.00  0.00    +0.000 F 
ATOM      5  C   UNL     1      44.650   7.430  11.480  0.00  0.00    +0.000 A 
ATOM      6  C   UNL     1      44.909   6.130  11.935  0.00  0.00    +0.000 A 
ATOM      7  C   UNL     1      45.977   5.983  12.838  0.00  0.00    +0.000 A 
ENDROOT
BRANCH   6   8
ATOM      8  N   UNL     1      44.192   5.041  11.481  0.00  0.00    +0.000 N 
ATOM      9  C   UNL     1      43.245   4.297  12.325  0.00  0.00    +0.000 C 
ATOM     10  C   UNL     1      43.518   2.779  12.229  0.00  0.00    +0.000 C 
ATOM     11  N   UNL     1      43.525   2.267  10.842  0.00  0.00    +0.000 NA
ATOM     12  C   UNL     1      44.509   3.042  10.058  0.00  0.00    +0.000 C 
ATOM     13  C   UNL     1      44.277   4.573  10.088  0.00  0.00    +0.000 C 
ATOM     14  H   UNL     1      42.600   2.438  10.442  0.00  0.00    +0.000 HD
ENDBRANCH   6   8
BRANCH   1  15
ATOM     15  C   UNL     1      48.009   6.825  14.087  0.00  0.00    +0.000 C 
BRANCH  15  16
ATOM     16  O   UNL     1      48.155   5.440  14.389  0.00  0.00    +0.000 OA
BRANCH  16  21
ATOM     17  C   UNL     1      48.512   5.828  17.988  0.00  0.00    +0.000 A 
ATOM     18  C   UNL     1      47.930   4.654  18.482  0.00  0.00    +0.000 A 
ATOM     19  C   UNL     1      47.400   3.718  17.599  0.00  0.00    +0.000 A 
ATOM     20  C   UNL     1      47.453   3.946  16.222  0.00  0.00    +0.000 A 
ATOM     21  C   UNL     1      48.043   5.110  15.715  0.00  0.00    +0.000 A 
ATOM     22  C   UNL     1      48.583   6.042  16.605  0.00  0.00    +0.000 A 
BRANCH  17  24
ATOM     23  N   UNL     1      49.391   8.042  18.472  0.00  0.00    +0.000 N 
ATOM     24  C   UNL     1      49.048   6.812  18.962  0.00  0.00    +0.000 C 
ATOM     25  O   UNL     1      49.138   6.557  20.155  0.00  0.00    +0.000 OA
ATOM     26  H   UNL     1      49.657   8.741  19.153  0.00  0.00    +0.000 HD
ATOM     27  H   UNL     1      49.106   8.360  17.557  0.00  0.00    +0.000 HD
ENDBRANCH  17  24
ENDBRANCH  16  21
ENDBRANCH  15  16
ENDBRANCH   1  15
TORSDOF 5
ENDMDL
