MODEL 1
REMARK VINA RESULT:    -8.389      0.000      0.000
REMARK INTER + INTRA:         -11.922
REMARK INTER:                 -11.332
REMARK INTRA:                  -0.590
REMARK UNBOUND:                -0.590
REMARK  Name = 
REMARK  7 active torsions:
REMARK  status: ('A' for Active; 'I' for Inactive)
REMARK    1  A    between atoms: C_1  and  O_2
REMARK    2  A    between atoms: O_2  and  C_3
REMARK    3  A    between atoms: C_6  and  C_7
REMARK    4  A    between atoms: C_7  and  C_8
REMARK    5  A    between atoms: C_8  and  N_9
REMARK    6  A    between atoms: C_13  and  C_14
REMARK    7  A    between atoms: C_20  and  C_21
REMARK                            x       y       z     vdW  Elec       q    Type
REMARK                         _______ _______ _______ _____ _____    ______ ____
ROOT
ATOM      1  C   UNL     1      43.189   5.421  12.236  0.00  0.00    +0.000 C 
ENDROOT
BRANCH   1   5
ATOM      2  C   UNL     1      47.272   5.956  13.594  0.00  0.00    +0.000 A 
ATOM      3  C   UNL     1      46.557   4.792  13.908  0.00  0.00    +0.000 A 
ATOM      4  C   UNL     1      45.242   4.616  13.469  0.00  0.00    +0.000 A 
ATOM      5  C   UNL     1      44.601   5.618  12.742  0.00  0.00    +0.000 A 
ATOM      6  C   UNL     1      45.316   6.786  12.432  0.00  0.00    +0.000 A 
ATOM      7  C   UNL     1      46.667   6.975  12.813  0.00  0.00    +0.000 A 
BRANCH   7   8
ATOM      8  C   UNL     1      47.411   8.170  12.314  0.00  0.00    +0.000 A 
ATOM      9  C   UNL     1      46.922   9.481  12.452  0.00  0.00    +0.000 A 
ATOM     10  C   UNL     1      47.695  10.595  12.103  0.00  0.00    +0.000 A 
ATOM     11  C   UNL     1      48.963  10.423  11.559  0.00  0.00    +0.000 A 
ATOM     12  C   UNL     1      49.452   9.139  11.351  0.00  0.00    +0.000 A 
ATOM     13  C   UNL     1      48.687   8.030  11.730  0.00  0.00    +0.000 A 
ENDBRANCH   7   8
BRANCH   2  15
ATOM     14  C   UNL     1      48.853   6.542  15.306  0.00  0.00    +0.000 C 
ATOM     15  O   UNL     1      48.580   6.150  13.968  0.00  0.00    +0.000 OA
ENDBRANCH   2  15
ENDBRANCH   1   5
BRANCH   1  16
ATOM     16  C   UNL     1      43.146   4.464  11.039  0.00  0.00    +0.000 C 
BRANCH  16  17
ATOM     17  N   UNL     1      43.976   4.966   9.935  0.00  0.00    +0.000 N 
ATOM     18  C   UNL     1      44.732   3.956   9.312  0.00  0.00    +0.000 A 
ATOM     19  C   UNL     1      45.568   4.296   8.251  0.00  0.00    +0.000 A 
ATOM     20  C   UNL     1      46.310   3.298   7.611  0.00  0.00    +0.000 A 
ATOM     21  C   UNL     1      46.204   1.974   8.038  0.00  0.00    +0.000 A 
ATOM     22  C   UNL     1      45.343   1.724   9.091  0.00  0.00    +0.000 A 
ATOM     23  N   UNL     1      44.615   2.678   9.722  0.00  0.00    +0.000 NA
ATOM     24  H   UNL     1      44.606   5.707  10.231  0.00  0.00    +0.000 HD
BRANCH  21  25
ATOM     25  C   UNL     1      46.995   0.916   7.360  0.00  0.00    +0.000 C 
ATOM     26  N   UNL     1      47.799   1.260   6.308  0.00  0.00    +0.000 N 
ATOM     27  O   UNL     1      46.935  -0.251   7.728  0.00  0.00    +0.000 OA
ATOM     28  H   UNL     1      47.921   2.181   5.922  0.00  0.00    +0.000 HD
ATOM     29  H   UNL     1      48.321   0.505   5.876  0.00  0.00    +0.000 HD
ENDBRANCH  21  25
ENDBRANCH  16  17
ENDBRANCH   1  16
TORSDOF 6
ENDMDL
MODEL 2
REMARK VINA RESULT:    -8.325      1.743      3.899
REMARK INTER + INTRA:         -11.835
REMARK INTER:                 -10.857
REMARK INTRA:                  -0.978
REMARK UNBOUND:                -0.590
REMARK  Name = 
REMARK  7 active torsions:
REMARK  status: ('A' for Active; 'I' for Inactive)
REMARK    1  A    between atoms: C_1  and  O_2
REMARK    2  A    between atoms: O_2  and  C_3
REMARK    3  A    between atoms: C_6  and  C_7
REMARK    4  A    between atoms: C_7  and  C_8
REMARK    5  A    between atoms: C_8  and  N_9
REMARK    6  A    between atoms: C_13  and  C_14
REMARK    7  A    between atoms: C_20  and  C_21
REMARK                            x       y       z     vdW  Elec       q    Type
REMARK                         _______ _______ _______ _____ _____    ______ ____
ROOT
ATOM      1  C   UNL     1      43.530   5.439  12.272  0.00  0.00    +0.000 C 
ENDROOT
BRANCH   1   5
ATOM      2  C   UNL     1      47.720   6.041  13.212  0.00  0.00    +0.000 A 
ATOM      3  C   UNL     1      47.129   6.685  12.116  0.00  0.00    +0.000 A 
ATOM      4  C   UNL     1      45.779   6.495  11.813  0.00  0.00    +0.000 A 
ATOM      5  C   UNL     1      45.000   5.625  12.575  0.00  0.00    +0.000 A 
ATOM      6  C   UNL     1      45.594   4.976  13.670  0.00  0.00    +0.000 A 
ATOM      7  C   UNL     1      46.945   5.187  14.039  0.00  0.00    +0.000 A 
BRANCH   7   8
ATOM      8  C   UNL     1      47.463   4.587  15.304  0.00  0.00    +0.000 A 
ATOM      9  C   UNL     1      47.708   3.210  15.448  0.00  0.00    +0.000 A 
ATOM     10  C   UNL     1      48.322   2.687  16.592  0.00  0.00    +0.000 A 
ATOM     11  C   UNL     1      48.663   3.525  17.647  0.00  0.00    +0.000 A 
ATOM     12  C   UNL     1      48.377   4.883  17.564  0.00  0.00    +0.000 A 
ATOM     13  C   UNL     1      47.791   5.404  16.406  0.00  0.00    +0.000 A 
ENDBRANCH   7   8
BRANCH   2  15
ATOM     14  C   UNL     1      49.572   7.546  13.491  0.00  0.00    +0.000 C 
ATOM     15  O   UNL     1      49.033   6.234  13.571  0.00  0.00    +0.000 OA
ENDBRANCH   2  15
ENDBRANCH   1   5
BRANCH   1  16
ATOM     16  C   UNL     1      43.303   5.008  10.818  0.00  0.00    +0.000 C 
BRANCH  16  17
ATOM     17  N   UNL     1      43.592   3.578  10.643  0.00  0.00    +0.000 N 
ATOM     18  C   UNL     1      44.541   3.329   9.634  0.00  0.00    +0.000 A 
ATOM     19  C   UNL     1      44.905   2.012   9.359  0.00  0.00    +0.000 A 
ATOM     20  C   UNL     1      45.861   1.753   8.372  0.00  0.00    +0.000 A 
ATOM     21  C   UNL     1      46.442   2.813   7.676  0.00  0.00    +0.000 A 
ATOM     22  C   UNL     1      46.032   4.087   8.019  0.00  0.00    +0.000 A 
ATOM     23  N   UNL     1      45.108   4.358   8.974  0.00  0.00    +0.000 NA
ATOM     24  H   UNL     1      42.756   3.036  10.441  0.00  0.00    +0.000 HD
BRANCH  21  25
ATOM     25  C   UNL     1      47.455   2.536   6.626  0.00  0.00    +0.000 C 
ATOM     26  N   UNL     1      47.345   3.163   5.415  0.00  0.00    +0.000 N 
ATOM     27  O   UNL     1      48.380   1.758   6.829  0.00  0.00    +0.000 OA
ATOM     28  H   UNL     1      46.629   3.814   5.140  0.00  0.00    +0.000 HD
ATOM     29  H   UNL     1      48.059   2.945   4.729  0.00  0.00    +0.000 HD
ENDBRANCH  21  25
ENDBRANCH  16  17
ENDBRANCH   1  16
TORSDOF 6
ENDMDL
MODEL 3
REMARK VINA RESULT:    -7.771      1.489      2.010
REMARK INTER + INTRA:         -11.086
REMARK INTER:                 -11.093
REMARK INTRA:                   0.007
REMARK UNBOUND:                -0.590
REMARK  Name = 
REMARK  7 active torsions:
REMARK  status: ('A' for Active; 'I' for Inactive)
REMARK    1  A    between atoms: C_1  and  O_2
REMARK    2  A    between atoms: O_2  and  C_3
REMARK    3  A    between atoms: C_6  and  C_7
REMARK    4  A    between atoms: C_7  and  C_8
REMARK    5  A    between atoms: C_8  and  N_9
REMARK    6  A    between atoms: C_13  and  C_14
REMARK    7  A    between atoms: C_20  and  C_21
REMARK                            x       y       z     vdW  Elec       q    Type
REMARK                         _______ _______ _______ _____ _____    ______ ____
ROOT
ATOM      1  C   UNL     1      43.621   3.673  12.705  0.00  0.00    +0.000 C 
ENDROOT
BRANCH   1   5
ATOM      2  C   UNL     1      46.840   6.565  12.964  0.00  0.00    +0.000 A 
ATOM      3  C   UNL     1      47.063   5.213  13.259  0.00  0.00    +0.000 A 
ATOM      4  C   UNL     1      46.028   4.279  13.173  0.00  0.00    +0.000 A 
ATOM      5  C   UNL     1      44.739   4.684  12.831  0.00  0.00    +0.000 A 
ATOM      6  C   UNL     1      44.514   6.039  12.540  0.00  0.00    +0.000 A 
ATOM      7  C   UNL     1      45.551   7.004  12.563  0.00  0.00    +0.000 A 
BRANCH   7   8
ATOM      8  C   UNL     1      45.273   8.393  12.091  0.00  0.00    +0.000 A 
ATOM      9  C   UNL     1      46.028   9.503  12.508  0.00  0.00    +0.000 A 
ATOM     10  C   UNL     1      45.841  10.773  11.949  0.00  0.00    +0.000 A 
ATOM     11  C   UNL     1      44.855  10.975  10.990  0.00  0.00    +0.000 A 
ATOM     12  C   UNL     1      44.048   9.913  10.601  0.00  0.00    +0.000 A 
ATOM     13  C   UNL     1      44.260   8.639  11.140  0.00  0.00    +0.000 A 
ENDBRANCH   7   8
BRANCH   2  15
ATOM     14  C   UNL     1      49.084   7.161  13.583  0.00  0.00    +0.000 C 
ATOM     15  O   UNL     1      47.839   7.509  12.993  0.00  0.00    +0.000 OA
ENDBRANCH   2  15
ENDBRANCH   1   5
BRANCH   1  16
ATOM     16  C   UNL     1      43.419   3.231  11.250  0.00  0.00    +0.000 C 
BRANCH  16  17
ATOM     17  N   UNL     1      44.039   4.186  10.321  0.00  0.00    +0.000 N 
ATOM     18  C   UNL     1      44.903   3.570   9.396  0.00  0.00    +0.000 A 
ATOM     19  C   UNL     1      45.563   4.361   8.459  0.00  0.00    +0.000 A 
ATOM     20  C   UNL     1      46.409   3.759   7.522  0.00  0.00    +0.000 A 
ATOM     21  C   UNL     1      46.581   2.375   7.533  0.00  0.00    +0.000 A 
ATOM     22  C   UNL     1      45.880   1.665   8.490  0.00  0.00    +0.000 A 
ATOM     23  N   UNL     1      45.055   2.231   9.405  0.00  0.00    +0.000 NA
ATOM     24  H   UNL     1      44.552   4.918  10.805  0.00  0.00    +0.000 HD
BRANCH  21  25
ATOM     25  C   UNL     1      47.482   1.737   6.540  0.00  0.00    +0.000 C 
ATOM     26  N   UNL     1      48.573   2.430   6.093  0.00  0.00    +0.000 N 
ATOM     27  O   UNL     1      47.262   0.607   6.121  0.00  0.00    +0.000 OA
ATOM     28  H   UNL     1      48.847   3.359   6.365  0.00  0.00    +0.000 HD
ATOM     29  H   UNL     1      49.161   1.955   5.416  0.00  0.00    +0.000 HD
ENDBRANCH  21  25
ENDBRANCH  16  17
ENDBRANCH   1  16
TORSDOF 6
ENDMDL
MODEL 4
REMARK VINA RESULT:    -7.520      3.487      7.415
REMARK INTER + INTRA:         -10.747
REMARK INTER:                  -9.905
REMARK INTRA:                  -0.842
REMARK UNBOUND:                -0.590
REMARK  Name = 
REMARK  7 active torsions:
REMARK  status: ('A' for Active; 'I' for Inactive)
REMARK    1  A    between atoms: C_1  and  O_2
REMARK    2  A    between atoms: O_2  and  C_3
REMARK    3  A    between atoms: C_6  and  C_7
REMARK    4  A    between atoms: C_7  and  C_8
REMARK    5  A    between atoms: C_8  and  N_9
REMARK    6  A    between atoms: C_13  and  C_14
REMARK    7  A    between atoms: C_20  and  C_21
REMARK                            x       y       z     vdW  Elec       q    Type
REMARK                         _______ _______ _______ _____ _____    ______ ____
ROOT
ATOM      1  C   UNL     1      48.301   8.347  12.149  0.00  0.00    +0.000 C 
ENDROOT
BRANCH   1   5
ATOM      2  C   UNL     1      44.349   6.731  11.395  0.00  0.00    +0.000 A 
ATOM      3  C   UNL     1      44.510   7.958  12.055  0.00  0.00    +0.000 A 
ATOM      4  C   UNL     1      45.782   8.482  12.296  0.00  0.00    +0.000 A 
ATOM      5  C   UNL     1      46.921   7.771  11.919  0.00  0.00    +0.000 A 
ATOM      6  C   UNL     1      46.759   6.540  11.264  0.00  0.00    +0.000 A 
ATOM      7  C   UNL     1      45.485   6.005  10.954  0.00  0.00    +0.000 A 
BRANCH   7   8
ATOM      8  C   UNL     1      45.390   4.772  10.117  0.00  0.00    +0.000 A 
ATOM      9  C   UNL     1      44.946   3.539  10.627  0.00  0.00    +0.000 A 
ATOM     10  C   UNL     1      44.733   2.432   9.797  0.00  0.00    +0.000 A 
ATOM     11  C   UNL     1      45.008   2.517   8.437  0.00  0.00    +0.000 A 
ATOM     12  C   UNL     1      45.507   3.701   7.910  0.00  0.00    +0.000 A 
ATOM     13  C   UNL     1      45.689   4.814   8.739  0.00  0.00    +0.000 A 
ENDBRANCH   7   8
BRANCH   2  15
ATOM     14  C   UNL     1      42.434   5.464  12.105  0.00  0.00    +0.000 C 
ATOM     15  O   UNL     1      43.115   6.201  11.099  0.00  0.00    +0.000 OA
ENDBRANCH   2  15
ENDBRANCH   1   5
BRANCH   1  16
ATOM     16  C   UNL     1      49.319   7.255  12.498  0.00  0.00    +0.000 C 
BRANCH  16  17
ATOM     17  N   UNL     1      49.827   7.428  13.866  0.00  0.00    +0.000 N 
ATOM     18  C   UNL     1      49.193   6.586  14.798  0.00  0.00    +0.000 A 
ATOM     19  C   UNL     1      49.576   6.652  16.136  0.00  0.00    +0.000 A 
ATOM     20  C   UNL     1      48.968   5.806  17.070  0.00  0.00    +0.000 A 
ATOM     21  C   UNL     1      47.987   4.906  16.653  0.00  0.00    +0.000 A 
ATOM     22  C   UNL     1      47.675   4.900  15.306  0.00  0.00    +0.000 A 
ATOM     23  N   UNL     1      48.256   5.710  14.386  0.00  0.00    +0.000 NA
ATOM     24  H   UNL     1      49.746   8.389  14.189  0.00  0.00    +0.000 HD
BRANCH  21  25
ATOM     25  C   UNL     1      47.339   4.012  17.645  0.00  0.00    +0.000 C 
ATOM     26  N   UNL     1      47.682   4.126  18.965  0.00  0.00    +0.000 N 
ATOM     27  O   UNL     1      46.509   3.180  17.299  0.00  0.00    +0.000 OA
ATOM     28  H   UNL     1      48.350   4.767  19.358  0.00  0.00    +0.000 HD
ATOM     29  H   UNL     1      47.214   3.495  19.607  0.00  0.00    +0.000 HD
ENDBRANCH  21  25
ENDBRANCH  16  17
ENDBRANCH   1  16
TORSDOF 6
ENDMDL
MODEL 5
REMARK VINA RESULT:    -7.414      1.572      2.461
REMARK INTER + INTRA:         -10.604
REMARK INTER:                  -9.862
REMARK INTRA:                  -0.742
REMARK UNBOUND:                -0.590
REMARK  Name = 
REMARK  7 active torsions:
REMARK  status: ('A' for Active; 'I' for Inactive)
REMARK    1  A    between atoms: C_1  and  O_2
REMARK    2  A    between atoms: O_2  and  C_3
REMARK    3  A    between atoms: C_6  and  C_7
REMARK    4  A    between atoms: C_7  and  C_8
REMARK    5  A    between atoms: C_8  and  N_9
REMARK    6  A    between atoms: C_13  and  C_14
REMARK    7  A    between atoms: C_20  and  C_21
REMARK                            x       y       z     vdW  Elec       q    Type
REMARK                         _______ _______ _______ _____ _____    ______ ____
ROOT
ATOM      1  C   UNL     1      44.790   3.152  12.422  0.00  0.00    +0.000 C 
ENDROOT
BRANCH   1   5
ATOM      2  C   UNL     1      45.503   7.407  12.851  0.00  0.00    +0.000 A 
ATOM      3  C   UNL     1      44.198   6.897  12.821  0.00  0.00    +0.000 A 
ATOM      4  C   UNL     1      43.965   5.526  12.686  0.00  0.00    +0.000 A 
ATOM      5  C   UNL     1      45.033   4.641  12.537  0.00  0.00    +0.000 A 
ATOM      6  C   UNL     1      46.340   5.153  12.561  0.00  0.00    +0.000 A 
ATOM      7  C   UNL     1      46.613   6.530  12.751  0.00  0.00    +0.000 A 
BRANCH   7   8
ATOM      8  C   UNL     1      48.027   6.980  12.925  0.00  0.00    +0.000 A 
ATOM      9  C   UNL     1      48.800   7.482  11.863  0.00  0.00    +0.000 A 
ATOM     10  C   UNL     1      50.073   8.027  12.072  0.00  0.00    +0.000 A 
ATOM     11  C   UNL     1      50.626   8.038  13.347  0.00  0.00    +0.000 A 
ATOM     12  C   UNL     1      49.915   7.493  14.409  0.00  0.00    +0.000 A 
ATOM     13  C   UNL     1      48.631   6.978  14.199  0.00  0.00    +0.000 A 
ENDBRANCH   7   8
BRANCH   2  15
ATOM     14  C   UNL     1      45.350   9.660  12.027  0.00  0.00    +0.000 C 
ATOM     15  O   UNL     1      45.776   8.743  13.026  0.00  0.00    +0.000 OA
ENDBRANCH   2  15
ENDBRANCH   1   5
BRANCH   1  16
ATOM     16  C   UNL     1      44.016   2.802  11.145  0.00  0.00    +0.000 C 
BRANCH  16  17
ATOM     17  N   UNL     1      44.288   3.779  10.082  0.00  0.00    +0.000 N 
ATOM     18  C   UNL     1      45.095   3.260   9.052  0.00  0.00    +0.000 A 
ATOM     19  C   UNL     1      45.436   4.083   7.981  0.00  0.00    +0.000 A 
ATOM     20  C   UNL     1      46.220   3.572   6.942  0.00  0.00    +0.000 A 
ATOM     21  C   UNL     1      46.652   2.246   6.987  0.00  0.00    +0.000 A 
ATOM     22  C   UNL     1      46.260   1.498   8.081  0.00  0.00    +0.000 A 
ATOM     23  N   UNL     1      45.497   1.974   9.096  0.00  0.00    +0.000 NA
ATOM     24  H   UNL     1      44.723   4.626  10.437  0.00  0.00    +0.000 HD
BRANCH  21  25
ATOM     25  C   UNL     1      47.488   1.707   5.885  0.00  0.00    +0.000 C 
ATOM     26  N   UNL     1      48.201   2.576   5.106  0.00  0.00    +0.000 N 
ATOM     27  O   UNL     1      47.546   0.503   5.667  0.00  0.00    +0.000 OA
ATOM     28  H   UNL     1      48.225   3.578   5.193  0.00  0.00    +0.000 HD
ATOM     29  H   UNL     1      48.759   2.163   4.366  0.00  0.00    +0.000 HD
ENDBRANCH  21  25
ENDBRANCH  16  17
ENDBRANCH   1  16
TORSDOF 6
ENDMDL
MODEL 6
REMARK VINA RESULT:    -7.090      3.142      4.133
REMARK INTER + INTRA:         -10.167
REMARK INTER:                  -9.367
REMARK INTRA:                  -0.799
REMARK UNBOUND:                -0.590
REMARK  Name = 
REMARK  7 active torsions:
REMARK  status: ('A' for Active; 'I' for Inactive)
REMARK    1  A    between atoms: C_1  and  O_2
REMARK    2  A    between atoms: O_2  and  C_3
REMARK    3  A    between atoms: C_6  and  C_7
REMARK    4  A    between atoms: C_7  and  C_8
REMARK    5  A    between atoms: C_8  and  N_9
REMARK    6  A    between atoms: C_13  and  C_14
REMARK    7  A    between atoms: C_20  and  C_21
REMARK                            x       y       z     vdW  Elec       q    Type
REMARK                         _______ _______ _______ _____ _____    ______ ____
ROOT
ATOM      1  C   UNL     1      44.434   5.524  12.095  0.00  0.00    +0.000 C 
ENDROOT
BRANCH   1   5
ATOM      2  C   UNL     1      45.548   9.713  12.007  0.00  0.00    +0.000 A 
ATOM      3  C   UNL     1      46.345   8.771  12.672  0.00  0.00    +0.000 A 
ATOM      4  C   UNL     1      45.990   7.420  12.700  0.00  0.00    +0.000 A 
ATOM      5  C   UNL     1      44.808   6.989  12.097  0.00  0.00    +0.000 A 
ATOM      6  C   UNL     1      44.008   7.934  11.435  0.00  0.00    +0.000 A 
ATOM      7  C   UNL     1      44.365   9.301  11.341  0.00  0.00    +0.000 A 
BRANCH   7   8
ATOM      8  C   UNL     1      43.548  10.216  10.489  0.00  0.00    +0.000 A 
ATOM      9  C   UNL     1      43.929  10.583   9.185  0.00  0.00    +0.000 A 
ATOM     10  C   UNL     1      43.084  11.329   8.354  0.00  0.00    +0.000 A 
ATOM     11  C   UNL     1      41.854  11.771   8.825  0.00  0.00    +0.000 A 
ATOM     12  C   UNL     1      41.473  11.480  10.129  0.00  0.00    +0.000 A 
ATOM     13  C   UNL     1      42.308  10.708  10.946  0.00  0.00    +0.000 A 
ENDBRANCH   7   8
BRANCH   2  15
ATOM     14  C   UNL     1      47.076  11.399  11.233  0.00  0.00    +0.000 C 
ATOM     15  O   UNL     1      45.883  11.043  11.919  0.00  0.00    +0.000 OA
ENDBRANCH   2  15
ENDBRANCH   1   5
BRANCH   1  16
ATOM     16  C   UNL     1      43.684   5.134  10.815  0.00  0.00    +0.000 C 
BRANCH  16  17
ATOM     17  N   UNL     1      43.808   3.694  10.551  0.00  0.00    +0.000 N 
ATOM     18  C   UNL     1      44.732   3.400   9.531  0.00  0.00    +0.000 A 
ATOM     19  C   UNL     1      44.944   2.070   9.175  0.00  0.00    +0.000 A 
ATOM     20  C   UNL     1      45.874   1.764   8.176  0.00  0.00    +0.000 A 
ATOM     21  C   UNL     1      46.579   2.791   7.548  0.00  0.00    +0.000 A 
ATOM     22  C   UNL     1      46.315   4.080   7.970  0.00  0.00    +0.000 A 
ATOM     23  N   UNL     1      45.419   4.396   8.938  0.00  0.00    +0.000 NA
ATOM     24  H   UNL     1      42.917   3.266  10.314  0.00  0.00    +0.000 HD
BRANCH  21  25
ATOM     25  C   UNL     1      47.563   2.464   6.485  0.00  0.00    +0.000 C 
ATOM     26  N   UNL     1      47.424   3.042   5.252  0.00  0.00    +0.000 N 
ATOM     27  O   UNL     1      48.490   1.691   6.697  0.00  0.00    +0.000 OA
ATOM     28  H   UNL     1      46.705   3.684   4.969  0.00  0.00    +0.000 HD
ATOM     29  H   UNL     1      48.120   2.791   4.558  0.00  0.00    +0.000 HD
ENDBRANCH  21  25
ENDBRANCH  16  17
ENDBRANCH   1  16
TORSDOF 6
ENDMDL
MODEL 7
REMARK VINA RESULT:    -6.950      3.972      8.167
REMARK INTER + INTRA:          -9.978
REMARK INTER:                  -9.324
REMARK INTRA:                  -0.653
REMARK UNBOUND:                -0.590
REMARK  Name = 
REMARK  7 active torsions:
REMARK  status: ('A' for Active; 'I' for Inactive)
REMARK    1  A    between atoms: C_1  and  O_2
REMARK    2  A    between atoms: O_2  and  C_3
REMARK    3  A    between atoms: C_6  and  C_7
REMARK    4  A    between atoms: C_7  and  C_8
REMARK    5  A    between atoms: C_8  and  N_9
REMARK    6  A    between atoms: C_13  and  C_14
REMARK    7  A    between atoms: C_20  and  C_21
REMARK                            x       y       z     vdW  Elec       q    Type
REMARK                         _______ _______ _______ _____ _____    ______ ____
ROOT
ATOM      1  C   UNL     1      48.511   7.873  12.527  0.00  0.00    +0.000 C 
ENDROOT
BRANCH   1   5
ATOM      2  C   UNL     1      44.451   6.756  11.494  0.00  0.00    +0.000 A 
ATOM      3  C   UNL     1      44.708   7.901  12.260  0.00  0.00    +0.000 A 
ATOM      4  C   UNL     1      46.016   8.265  12.592  0.00  0.00    +0.000 A 
ATOM      5  C   UNL     1      47.091   7.468  12.199  0.00  0.00    +0.000 A 
ATOM      6  C   UNL     1      46.832   6.318  11.436  0.00  0.00    +0.000 A 
ATOM      7  C   UNL     1      45.524   5.949  11.035  0.00  0.00    +0.000 A 
BRANCH   7   8
ATOM      8  C   UNL     1      45.340   4.805  10.094  0.00  0.00    +0.000 A 
ATOM      9  C   UNL     1      45.690   4.875   8.734  0.00  0.00    +0.000 A 
ATOM     10  C   UNL     1      45.638   3.751   7.901  0.00  0.00    +0.000 A 
ATOM     11  C   UNL     1      45.187   2.534   8.398  0.00  0.00    +0.000 A 
ATOM     12  C   UNL     1      44.774   2.444   9.722  0.00  0.00    +0.000 A 
ATOM     13  C   UNL     1      44.856   3.564  10.557  0.00  0.00    +0.000 A 
ENDBRANCH   7   8
BRANCH   2  15
ATOM     14  C   UNL     1      42.407   5.596  11.999  0.00  0.00    +0.000 C 
ATOM     15  O   UNL     1      43.184   6.387  11.109  0.00  0.00    +0.000 OA
ENDBRANCH   2  15
ENDBRANCH   1   5
BRANCH   1  16
ATOM     16  C   UNL     1      49.075   7.057  13.696  0.00  0.00    +0.000 C 
BRANCH  16  17
ATOM     17  N   UNL     1      48.967   7.804  14.957  0.00  0.00    +0.000 N 
ATOM     18  C   UNL     1      48.877   6.968  16.085  0.00  0.00    +0.000 A 
ATOM     19  C   UNL     1      48.765   7.546  17.348  0.00  0.00    +0.000 A 
ATOM     20  C   UNL     1      48.694   6.726  18.478  0.00  0.00    +0.000 A 
ATOM     21  C   UNL     1      48.738   5.340  18.332  0.00  0.00    +0.000 A 
ATOM     22  C   UNL     1      48.861   4.850  17.045  0.00  0.00    +0.000 A 
ATOM     23  N   UNL     1      48.934   5.629  15.937  0.00  0.00    +0.000 NA
ATOM     24  H   UNL     1      48.175   8.441  14.963  0.00  0.00    +0.000 HD
BRANCH  21  25
ATOM     25  C   UNL     1      48.660   4.470  19.533  0.00  0.00    +0.000 C 
ATOM     26  N   UNL     1      48.393   3.138  19.371  0.00  0.00    +0.000 N 
ATOM     27  O   UNL     1      48.829   4.928  20.657  0.00  0.00    +0.000 OA
ATOM     28  H   UNL     1      48.234   2.659  18.501  0.00  0.00    +0.000 HD
ATOM     29  H   UNL     1      48.349   2.583  20.219  0.00  0.00    +0.000 HD
ENDBRANCH  21  25
ENDBRANCH  16  17
ENDBRANCH   1  16
TORSDOF 6
ENDMDL
MODEL 8
REMARK VINA RESULT:    -6.797      4.056      7.568
REMARK INTER + INTRA:          -9.770
REMARK INTER:                  -8.720
REMARK INTRA:                  -1.050
REMARK UNBOUND:                -0.590
REMARK  Name = 
REMARK  7 active torsions:
REMARK  status: ('A' for Active; 'I' for Inactive)
REMARK    1  A    between atoms: C_1  and  O_2
REMARK    2  A    between atoms: O_2  and  C_3
REMARK    3  A    between atoms: C_6  and  C_7
REMARK    4  A    between atoms: C_7  and  C_8
REMARK    5  A    between atoms: C_8  and  N_9
REMARK    6  A    between atoms: C_13  and  C_14
REMARK    7  A    between atoms: C_20  and  C_21
REMARK                            x       y       z     vdW  Elec       q    Type
REMARK                         _______ _______ _______ _____ _____    ______ ____
ROOT
ATOM      1  C   UNL     1      48.746   9.084  13.105  0.00  0.00    +0.000 C 
ENDROOT
BRANCH   1   5
ATOM      2  C   UNL     1      44.718   8.835  11.520  0.00  0.00    +0.000 A 
ATOM      3  C   UNL     1      45.405  10.057  11.548  0.00  0.00    +0.000 A 
ATOM      4  C   UNL     1      46.704  10.139  12.055  0.00  0.00    +0.000 A 
ATOM      5  C   UNL     1      47.329   9.009  12.583  0.00  0.00    +0.000 A 
ATOM      6  C   UNL     1      46.638   7.787  12.559  0.00  0.00    +0.000 A 
ATOM      7  C   UNL     1      45.342   7.656  12.003  0.00  0.00    +0.000 A 
BRANCH   7   8
ATOM      8  C   UNL     1      44.735   6.298  11.868  0.00  0.00    +0.000 A 
ATOM      9  C   UNL     1      43.928   5.725  12.867  0.00  0.00    +0.000 A 
ATOM     10  C   UNL     1      43.256   4.513  12.665  0.00  0.00    +0.000 A 
ATOM     11  C   UNL     1      43.415   3.817  11.473  0.00  0.00    +0.000 A 
ATOM     12  C   UNL     1      44.255   4.324  10.489  0.00  0.00    +0.000 A 
ATOM     13  C   UNL     1      44.899   5.551  10.684  0.00  0.00    +0.000 A 
ENDBRANCH   7   8
BRANCH   2  15
ATOM     14  C   UNL     1      42.761   9.875  10.591  0.00  0.00    +0.000 C 
ATOM     15  O   UNL     1      43.457   8.702  10.990  0.00  0.00    +0.000 OA
ENDBRANCH   2  15
ENDBRANCH   1   5
BRANCH   1  16
ATOM     16  C   UNL     1      49.341   7.688  13.327  0.00  0.00    +0.000 C 
BRANCH  16  17
ATOM     17  N   UNL     1      49.942   7.581  14.664  0.00  0.00    +0.000 N 
ATOM     18  C   UNL     1      49.356   6.572  15.451  0.00  0.00    +0.000 A 
ATOM     19  C   UNL     1      49.828   6.366  16.746  0.00  0.00    +0.000 A 
ATOM     20  C   UNL     1      49.267   5.353  17.531  0.00  0.00    +0.000 A 
ATOM     21  C   UNL     1      48.244   4.561  17.011  0.00  0.00    +0.000 A 
ATOM     22  C   UNL     1      47.843   4.827  15.715  0.00  0.00    +0.000 A 
ATOM     23  N   UNL     1      48.377   5.802  14.938  0.00  0.00    +0.000 NA
ATOM     24  H   UNL     1      49.901   8.457  15.178  0.00  0.00    +0.000 HD
BRANCH  21  25
ATOM     25  C   UNL     1      47.646   3.489  17.847  0.00  0.00    +0.000 C 
ATOM     26  N   UNL     1      48.239   3.167  19.037  0.00  0.00    +0.000 N 
ATOM     27  O   UNL     1      46.638   2.894  17.486  0.00  0.00    +0.000 OA
ATOM     28  H   UNL     1      49.066   3.586  19.427  0.00  0.00    +0.000 HD
ATOM     29  H   UNL     1      47.796   2.430  19.575  0.00  0.00    +0.000 HD
ENDBRANCH  21  25
ENDBRANCH  16  17
ENDBRANCH   1  16
TORSDOF 6
ENDMDL
MODEL 9
REMARK VINA RESULT:    -6.762      1.873      3.103
REMARK INTER + INTRA:          -9.724
REMARK INTER:                  -8.843
REMARK INTRA:                  -0.881
REMARK UNBOUND:                -0.590
REMARK  Name = 
REMARK  7 active torsions:
REMARK  status: ('A' for Active; 'I' for Inactive)
REMARK    1  A    between atoms: C_1  and  O_2
REMARK    2  A    between atoms: O_2  and  C_3
REMARK    3  A    between atoms: C_6  and  C_7
REMARK    4  A    between atoms: C_7  and  C_8
REMARK    5  A    between atoms: C_8  and  N_9
REMARK    6  A    between atoms: C_13  and  C_14
REMARK    7  A    between atoms: C_20  and  C_21
REMARK                            x       y       z     vdW  Elec       q    Type
REMARK                         _______ _______ _______ _____ _____    ______ ____
ROOT
ATOM      1  C   UNL     1      44.746   5.785  12.491  0.00  0.00    +0.000 C 
ENDROOT
BRANCH   1   5
ATOM      2  C   UNL     1      46.922   9.517  12.120  0.00  0.00    +0.000 A 
ATOM      3  C   UNL     1      45.521   9.497  12.096  0.00  0.00    +0.000 A 
ATOM      4  C   UNL     1      44.817   8.296  12.219  0.00  0.00    +0.000 A 
ATOM      5  C   UNL     1      45.501   7.085  12.326  0.00  0.00    +0.000 A 
ATOM      6  C   UNL     1      46.905   7.105  12.344  0.00  0.00    +0.000 A 
ATOM      7  C   UNL     1      47.649   8.309  12.278  0.00  0.00    +0.000 A 
BRANCH   7   8
ATOM      8  C   UNL     1      49.131   8.267  12.462  0.00  0.00    +0.000 A 
ATOM      9  C   UNL     1      50.026   8.127  11.387  0.00  0.00    +0.000 A 
ATOM     10  C   UNL     1      51.412   8.229  11.565  0.00  0.00    +0.000 A 
ATOM     11  C   UNL     1      51.940   8.423  12.836  0.00  0.00    +0.000 A 
ATOM     12  C   UNL     1      51.086   8.503  13.929  0.00  0.00    +0.000 A 
ATOM     13  C   UNL     1      49.701   8.431  13.741  0.00  0.00    +0.000 A 
ENDBRANCH   7   8
BRANCH   2  15
ATOM     14  C   UNL     1      47.658  11.401  10.823  0.00  0.00    +0.000 C 
ATOM     15  O   UNL     1      47.652  10.680  12.047  0.00  0.00    +0.000 OA
ENDBRANCH   2  15
ENDBRANCH   1   5
BRANCH   1  16
ATOM     16  C   UNL     1      43.953   5.428  11.228  0.00  0.00    +0.000 C 
BRANCH  16  17
ATOM     17  N   UNL     1      44.001   3.983  10.969  0.00  0.00    +0.000 N 
ATOM     18  C   UNL     1      44.776   3.652   9.841  0.00  0.00    +0.000 A 
ATOM     19  C   UNL     1      44.902   2.313   9.478  0.00  0.00    +0.000 A 
ATOM     20  C   UNL     1      45.686   1.970   8.371  0.00  0.00    +0.000 A 
ATOM     21  C   UNL     1      46.333   2.969   7.645  0.00  0.00    +0.000 A 
ATOM     22  C   UNL     1      46.163   4.270   8.080  0.00  0.00    +0.000 A 
ATOM     23  N   UNL     1      45.409   4.621   9.152  0.00  0.00    +0.000 NA
ATOM     24  H   UNL     1      43.075   3.579  10.854  0.00  0.00    +0.000 HD
BRANCH  21  25
ATOM     25  C   UNL     1      47.162   2.604   6.468  0.00  0.00    +0.000 C 
ATOM     26  N   UNL     1      48.271   1.825   6.653  0.00  0.00    +0.000 N 
ATOM     27  O   UNL     1      46.866   2.989   5.343  0.00  0.00    +0.000 OA
ATOM     28  H   UNL     1      48.607   1.458   7.527  0.00  0.00    +0.000 HD
ATOM     29  H   UNL     1      48.806   1.600   5.821  0.00  0.00    +0.000 HD
ENDBRANCH  21  25
ENDBRANCH  16  17
ENDBRANCH   1  16
TORSDOF 6
ENDMDL
