MODEL 1
REMARK VINA RESULT:    -8.710      0.000      0.000
REMARK INTER + INTRA:         -15.075
REMARK INTER:                 -14.311
REMARK INTRA:                  -0.764
REMARK UNBOUND:                -0.764
REMARK  Name = 
REMARK  12 active torsions:
REMARK  status: ('A' for Active; 'I' for Inactive)
REMARK    1  A    between atoms: N_1  and  C_2
REMARK    2  A    between atoms: C_2  and  N_3
REMARK    3  A    between atoms: C_2  and  C_23
REMARK    4  A    between atoms: N_3  and  C_4
REMARK    5  A    between atoms: C_4  and  C_5
REMARK    6  A    between atoms: C_8  and  C_9
REMARK    7  A    between atoms: C_9  and  N_10
REMARK    8  A    between atoms: N_10  and  C_11
REMARK    9  A    between atoms: N_10  and  C_14
REMARK   10  A    between atoms: C_11  and  C_12
REMARK   11  A    between atoms: C_12  and  O_13
REMARK   12  A    between atoms: C_14  and  C_15
REMARK                            x       y       z     vdW  Elec       q    Type
REMARK                         _______ _______ _______ _____ _____    ______ ____
ROOT
ATOM      1  C   UNL     1      47.725   6.015  14.233  0.00  0.00    +0.000 A 
ATOM      2  C   UNL     1      46.970   4.853  14.018  0.00  0.00    +0.000 A 
ATOM      3  C   UNL     1      46.110   4.757  12.923  0.00  0.00    +0.000 A 
ATOM      4  C   UNL     1      45.957   5.836  12.043  0.00  0.00    +0.000 A 
ATOM      5  C   UNL     1      46.759   6.971  12.217  0.00  0.00    +0.000 A 
ATOM      6  C   UNL     1      47.636   7.058  13.301  0.00  0.00    +0.000 A 
ENDROOT
BRANCH   1   7
ATOM      7  C   UNL     1      48.584   6.160  15.472  0.00  0.00    +0.000 C 
BRANCH   7   8
ATOM      8  N   UNL     1      47.851   5.766  16.668  0.00  0.00    +0.000 NA
ATOM      9  H   UNL     1      48.148   6.376  17.429  0.00  0.00    +0.000 HD
BRANCH   8  10
ATOM     10  C   UNL     1      48.074   4.407  17.115  0.00  0.00    +0.000 C 
BRANCH  10  11
ATOM     11  C   UNL     1      49.460   4.325  17.713  0.00  0.00    +0.000 A 
ATOM     12  C   UNL     1      50.030   5.296  18.528  0.00  0.00    +0.000 A 
ATOM     13  S   UNL     1      51.597   4.890  19.077  0.00  0.00    +0.000 S 
ATOM     14  C   UNL     1      51.556   3.395  18.268  0.00  0.00    +0.000 A 
ATOM     15  N   UNL     1      52.601   2.529  18.342  0.00  0.00    +0.000 NA
ATOM     16  C   UNL     1      52.412   1.423  17.705  0.00  0.00    +0.000 A 
ATOM     17  N   UNL     1      51.288   1.107  16.988  0.00  0.00    +0.000 N 
ATOM     18  C   UNL     1      50.219   1.972  16.844  0.00  0.00    +0.000 A 
ATOM     19  O   UNL     1      49.268   1.695  16.127  0.00  0.00    +0.000 OA
ATOM     20  C   UNL     1      50.373   3.214  17.574  0.00  0.00    +0.000 A 
ATOM     21  H   UNL     1      51.218   0.230  16.493  0.00  0.00    +0.000 HD
ENDBRANCH  10  11
BRANCH  10  22
ATOM     22  N   UNL     1      47.157   4.156  18.194  0.00  0.00    +0.000 NA
ATOM     23  H   UNL     1      47.679   4.092  19.060  0.00  0.00    +0.000 HD
ATOM     24  H   UNL     1      46.779   3.226  18.026  0.00  0.00    +0.000 HD
ENDBRANCH  10  22
ENDBRANCH   8  10
ENDBRANCH   7   8
ENDBRANCH   1   7
BRANCH   4  25
ATOM     25  C   UNL     1      44.910   5.791  10.950  0.00  0.00    +0.000 C 
BRANCH  25  26
ATOM     26  N   UNL     1      44.428   4.415  10.646  0.00  0.00    +0.000 NA
BRANCH  26  27
ATOM     27  C   UNL     1      43.138   4.145  11.330  0.00  0.00    +0.000 C 
BRANCH  27  28
ATOM     28  C   UNL     1      42.443   5.382  11.933  0.00  0.00    +0.000 C 
BRANCH  28  29
ATOM     29  O   UNL     1      42.545   5.373  13.356  0.00  0.00    +0.000 OA
ATOM     30  H   UNL     1      42.149   4.542  13.669  0.00  0.00    +0.000 HD
ENDBRANCH  28  29
ENDBRANCH  27  28
ENDBRANCH  26  27
BRANCH  26  31
ATOM     31  C   UNL     1      44.262   4.281   9.177  0.00  0.00    +0.000 C 
BRANCH  31  32
ATOM     32  C   UNL     1      45.323   3.452   8.477  0.00  0.00    +0.000 A 
ATOM     33  C   UNL     1      45.448   2.089   8.748  0.00  0.00    +0.000 A 
ATOM     34  C   UNL     1      46.399   1.352   8.049  0.00  0.00    +0.000 A 
ATOM     35  C   UNL     1      47.194   1.988   7.104  0.00  0.00    +0.000 A 
ATOM     36  C   UNL     1      47.015   3.346   6.905  0.00  0.00    +0.000 A 
ATOM     37  N   UNL     1      46.102   4.089   7.566  0.00  0.00    +0.000 NA
ENDBRANCH  31  32
ENDBRANCH  26  31
ENDBRANCH  25  26
ENDBRANCH   4  25
TORSDOF 12
ENDMDL
MODEL 2
REMARK VINA RESULT:    -7.909      2.290      2.899
REMARK INTER + INTRA:         -13.759
REMARK INTER:                 -11.900
REMARK INTRA:                  -1.859
REMARK UNBOUND:                -0.764
REMARK  Name = 
REMARK  12 active torsions:
REMARK  status: ('A' for Active; 'I' for Inactive)
REMARK    1  A    between atoms: N_1  and  C_2
REMARK    2  A    between atoms: C_2  and  N_3
REMARK    3  A    between atoms: C_2  and  C_23
REMARK    4  A    between atoms: N_3  and  C_4
REMARK    5  A    between atoms: C_4  and  C_5
REMARK    6  A    between atoms: C_8  and  C_9
REMARK    7  A    between atoms: C_9  and  N_10
REMARK    8  A    between atoms: N_10  and  C_11
REMARK    9  A    between atoms: N_10  and  C_14
REMARK   10  A    between atoms: C_11  and  C_12
REMARK   11  A    between atoms: C_12  and  O_13
REMARK   12  A    between atoms: C_14  and  C_15
REMARK                            x       y       z     vdW  Elec       q    Type
REMARK                         _______ _______ _______ _____ _____    ______ ____
ROOT
ATOM      1  C   UNL     1      47.185   8.138  13.177  0.00  0.00    +0.000 A 
ATOM      2  C   UNL     1      47.746   7.201  12.297  0.00  0.00    +0.000 A 
ATOM      3  C   UNL     1      46.954   6.556  11.346  0.00  0.00    +0.000 A 
ATOM      4  C   UNL     1      45.576   6.804  11.282  0.00  0.00    +0.000 A 
ATOM      5  C   UNL     1      45.026   7.788  12.113  0.00  0.00    +0.000 A 
ATOM      6  C   UNL     1      45.824   8.450  13.050  0.00  0.00    +0.000 A 
ENDROOT
BRANCH   1   7
ATOM      7  C   UNL     1      48.021   8.766  14.272  0.00  0.00    +0.000 C 
BRANCH   7   8
ATOM      8  N   UNL     1      48.096   7.896  15.439  0.00  0.00    +0.000 NA
ATOM      9  H   UNL     1      47.635   8.375  16.213  0.00  0.00    +0.000 HD
BRANCH   8  10
ATOM     10  C   UNL     1      49.434   7.574  15.889  0.00  0.00    +0.000 C 
BRANCH  10  11
ATOM     11  C   UNL     1      49.326   6.599  17.040  0.00  0.00    +0.000 A 
ATOM     12  C   UNL     1      49.858   6.806  18.307  0.00  0.00    +0.000 A 
ATOM     13  S   UNL     1      49.532   5.533  19.399  0.00  0.00    +0.000 S 
ATOM     14  C   UNL     1      48.646   4.677  18.226  0.00  0.00    +0.000 A 
ATOM     15  N   UNL     1      48.064   3.484  18.521  0.00  0.00    +0.000 NA
ATOM     16  C   UNL     1      47.399   2.970  17.542  0.00  0.00    +0.000 A 
ATOM     17  N   UNL     1      47.275   3.523  16.295  0.00  0.00    +0.000 N 
ATOM     18  C   UNL     1      47.886   4.710  15.933  0.00  0.00    +0.000 A 
ATOM     19  O   UNL     1      47.827   5.133  14.788  0.00  0.00    +0.000 OA
ATOM     20  C   UNL     1      48.615   5.342  17.015  0.00  0.00    +0.000 A 
ATOM     21  H   UNL     1      46.758   3.052  15.567  0.00  0.00    +0.000 HD
ENDBRANCH  10  11
BRANCH  10  22
ATOM     22  N   UNL     1      50.083   6.862  14.821  0.00  0.00    +0.000 NA
ATOM     23  H   UNL     1      49.599   7.060  13.953  0.00  0.00    +0.000 HD
ATOM     24  H   UNL     1      49.926   5.875  15.011  0.00  0.00    +0.000 HD
ENDBRANCH  10  22
ENDBRANCH   8  10
ENDBRANCH   7   8
ENDBRANCH   1   7
BRANCH   4  25
ATOM     25  C   UNL     1      44.692   5.991  10.360  0.00  0.00    +0.000 C 
BRANCH  25  26
ATOM     26  N   UNL     1      45.019   4.538  10.354  0.00  0.00    +0.000 NA
BRANCH  26  27
ATOM     27  C   UNL     1      44.390   3.852  11.511  0.00  0.00    +0.000 C 
BRANCH  27  28
ATOM     28  C   UNL     1      45.374   3.300  12.562  0.00  0.00    +0.000 C 
BRANCH  28  29
ATOM     29  O   UNL     1      45.374   4.117  13.731  0.00  0.00    +0.000 OA
ATOM     30  H   UNL     1      45.949   4.880  13.550  0.00  0.00    +0.000 HD
ENDBRANCH  28  29
ENDBRANCH  27  28
ENDBRANCH  26  27
BRANCH  26  31
ATOM     31  C   UNL     1      44.529   3.944   9.085  0.00  0.00    +0.000 C 
BRANCH  31  32
ATOM     32  C   UNL     1      45.550   3.126   8.314  0.00  0.00    +0.000 A 
ATOM     33  C   UNL     1      46.427   3.747   7.425  0.00  0.00    +0.000 A 
ATOM     34  C   UNL     1      47.383   2.972   6.775  0.00  0.00    +0.000 A 
ATOM     35  C   UNL     1      47.437   1.607   7.027  0.00  0.00    +0.000 A 
ATOM     36  C   UNL     1      46.521   1.067   7.914  0.00  0.00    +0.000 A 
ATOM     37  N   UNL     1      45.583   1.792   8.560  0.00  0.00    +0.000 NA
ENDBRANCH  31  32
ENDBRANCH  26  31
ENDBRANCH  25  26
ENDBRANCH   4  25
TORSDOF 12
ENDMDL
MODEL 3
REMARK VINA RESULT:    -7.523      2.479      3.051
REMARK INTER + INTRA:         -13.124
REMARK INTER:                 -11.984
REMARK INTRA:                  -1.140
REMARK UNBOUND:                -0.764
REMARK  Name = 
REMARK  12 active torsions:
REMARK  status: ('A' for Active; 'I' for Inactive)
REMARK    1  A    between atoms: N_1  and  C_2
REMARK    2  A    between atoms: C_2  and  N_3
REMARK    3  A    between atoms: C_2  and  C_23
REMARK    4  A    between atoms: N_3  and  C_4
REMARK    5  A    between atoms: C_4  and  C_5
REMARK    6  A    between atoms: C_8  and  C_9
REMARK    7  A    between atoms: C_9  and  N_10
REMARK    8  A    between atoms: N_10  and  C_11
REMARK    9  A    between atoms: N_10  and  C_14
REMARK   10  A    between atoms: C_11  and  C_12
REMARK   11  A    between atoms: C_12  and  O_13
REMARK   12  A    between atoms: C_14  and  C_15
REMARK                            x       y       z     vdW  Elec       q    Type
REMARK                         _______ _______ _______ _____ _____    ______ ____
ROOT
ATOM      1  C   UNL     1      47.735   7.471  13.639  0.00  0.00    +0.000 A 
ATOM      2  C   UNL     1      47.695   6.198  13.052  0.00  0.00    +0.000 A 
ATOM      3  C   UNL     1      46.654   5.844  12.192  0.00  0.00    +0.000 A 
ATOM      4  C   UNL     1      45.610   6.742  11.933  0.00  0.00    +0.000 A 
ATOM      5  C   UNL     1      45.683   8.036  12.464  0.00  0.00    +0.000 A 
ATOM      6  C   UNL     1      46.737   8.397  13.307  0.00  0.00    +0.000 A 
ENDROOT
BRANCH   1   7
ATOM      7  C   UNL     1      48.809   7.823  14.647  0.00  0.00    +0.000 C 
BRANCH   7   8
ATOM      8  N   UNL     1      48.278   7.816  16.004  0.00  0.00    +0.000 NA
ATOM      9  H   UNL     1      48.601   8.664  16.468  0.00  0.00    +0.000 HD
BRANCH   8  10
ATOM     10  C   UNL     1      48.699   6.704  16.831  0.00  0.00    +0.000 C 
BRANCH  10  11
ATOM     11  C   UNL     1      48.422   7.055  18.275  0.00  0.00    +0.000 A 
ATOM     12  C   UNL     1      47.880   8.259  18.709  0.00  0.00    +0.000 A 
ATOM     13  S   UNL     1      47.652   8.334  20.401  0.00  0.00    +0.000 S 
ATOM     14  C   UNL     1      48.242   6.752  20.608  0.00  0.00    +0.000 A 
ATOM     15  N   UNL     1      48.300   6.182  21.841  0.00  0.00    +0.000 NA
ATOM     16  C   UNL     1      48.739   4.969  21.836  0.00  0.00    +0.000 A 
ATOM     17  N   UNL     1      49.141   4.278  20.723  0.00  0.00    +0.000 N 
ATOM     18  C   UNL     1      49.145   4.831  19.455  0.00  0.00    +0.000 A 
ATOM     19  O   UNL     1      49.591   4.218  18.496  0.00  0.00    +0.000 OA
ATOM     20  C   UNL     1      48.625   6.182  19.408  0.00  0.00    +0.000 A 
ATOM     21  H   UNL     1      49.498   3.337  20.798  0.00  0.00    +0.000 HD
ENDBRANCH  10  11
BRANCH  10  22
ATOM     22  N   UNL     1      47.843   5.592  16.518  0.00  0.00    +0.000 NA
ATOM     23  H   UNL     1      48.301   4.735  16.805  0.00  0.00    +0.000 HD
ATOM     24  H   UNL     1      47.794   5.557  15.502  0.00  0.00    +0.000 HD
ENDBRANCH  10  22
ENDBRANCH   8  10
ENDBRANCH   7   8
ENDBRANCH   1   7
BRANCH   4  25
ATOM     25  C   UNL     1      44.404   6.304  11.129  0.00  0.00    +0.000 C 
BRANCH  25  26
ATOM     26  N   UNL     1      44.327   4.830  10.931  0.00  0.00    +0.000 NA
BRANCH  26  27
ATOM     27  C   UNL     1      43.267   4.238  11.786  0.00  0.00    +0.000 C 
BRANCH  27  28
ATOM     28  C   UNL     1      43.578   2.834  12.342  0.00  0.00    +0.000 C 
BRANCH  28  29
ATOM     29  O   UNL     1      42.866   1.835  11.615  0.00  0.00    +0.000 OA
ATOM     30  H   UNL     1      42.725   2.177  10.715  0.00  0.00    +0.000 HD
ENDBRANCH  28  29
ENDBRANCH  27  28
ENDBRANCH  26  27
BRANCH  26  31
ATOM     31  C   UNL     1      44.037   4.555   9.501  0.00  0.00    +0.000 C 
BRANCH  31  32
ATOM     32  C   UNL     1      45.089   3.740   8.770  0.00  0.00    +0.000 A 
ATOM     33  C   UNL     1      45.158   2.358   8.944  0.00  0.00    +0.000 A 
ATOM     34  C   UNL     1      46.103   1.638   8.219  0.00  0.00    +0.000 A 
ATOM     35  C   UNL     1      46.948   2.311   7.345  0.00  0.00    +0.000 A 
ATOM     36  C   UNL     1      46.821   3.686   7.241  0.00  0.00    +0.000 A 
ATOM     37  N   UNL     1      45.916   4.412   7.930  0.00  0.00    +0.000 NA
ENDBRANCH  31  32
ENDBRANCH  26  31
ENDBRANCH  25  26
ENDBRANCH   4  25
TORSDOF 12
ENDMDL
MODEL 4
REMARK VINA RESULT:    -7.311      2.571      3.412
REMARK INTER + INTRA:         -12.777
REMARK INTER:                 -11.437
REMARK INTRA:                  -1.340
REMARK UNBOUND:                -0.764
REMARK  Name = 
REMARK  12 active torsions:
REMARK  status: ('A' for Active; 'I' for Inactive)
REMARK    1  A    between atoms: N_1  and  C_2
REMARK    2  A    between atoms: C_2  and  N_3
REMARK    3  A    between atoms: C_2  and  C_23
REMARK    4  A    between atoms: N_3  and  C_4
REMARK    5  A    between atoms: C_4  and  C_5
REMARK    6  A    between atoms: C_8  and  C_9
REMARK    7  A    between atoms: C_9  and  N_10
REMARK    8  A    between atoms: N_10  and  C_11
REMARK    9  A    between atoms: N_10  and  C_14
REMARK   10  A    between atoms: C_11  and  C_12
REMARK   11  A    between atoms: C_12  and  O_13
REMARK   12  A    between atoms: C_14  and  C_15
REMARK                            x       y       z     vdW  Elec       q    Type
REMARK                         _______ _______ _______ _____ _____    ______ ____
ROOT
ATOM      1  C   UNL     1      47.897   7.239  13.324  0.00  0.00    +0.000 A 
ATOM      2  C   UNL     1      46.962   8.203  12.919  0.00  0.00    +0.000 A 
ATOM      3  C   UNL     1      45.822   7.833  12.206  0.00  0.00    +0.000 A 
ATOM      4  C   UNL     1      45.611   6.495  11.848  0.00  0.00    +0.000 A 
ATOM      5  C   UNL     1      46.507   5.521  12.308  0.00  0.00    +0.000 A 
ATOM      6  C   UNL     1      47.637   5.890  13.042  0.00  0.00    +0.000 A 
ENDROOT
BRANCH   1   7
ATOM      7  C   UNL     1      49.182   7.648  14.012  0.00  0.00    +0.000 C 
BRANCH   7   8
ATOM      8  N   UNL     1      49.455   6.798  15.164  0.00  0.00    +0.000 NA
ATOM      9  H   UNL     1      49.040   5.885  14.982  0.00  0.00    +0.000 HD
BRANCH   8  10
ATOM     10  C   UNL     1      48.907   7.261  16.422  0.00  0.00    +0.000 C 
BRANCH  10  11
ATOM     11  C   UNL     1      49.043   6.148  17.436  0.00  0.00    +0.000 A 
ATOM     12  C   UNL     1      49.749   4.969  17.230  0.00  0.00    +0.000 A 
ATOM     13  S   UNL     1      49.747   3.927  18.585  0.00  0.00    +0.000 S 
ATOM     14  C   UNL     1      48.827   5.027  19.500  0.00  0.00    +0.000 A 
ATOM     15  N   UNL     1      48.483   4.751  20.787  0.00  0.00    +0.000 NA
ATOM     16  C   UNL     1      47.814   5.692  21.362  0.00  0.00    +0.000 A 
ATOM     17  N   UNL     1      47.441   6.871  20.773  0.00  0.00    +0.000 N 
ATOM     18  C   UNL     1      47.727   7.177  19.455  0.00  0.00    +0.000 A 
ATOM     19  O   UNL     1      47.306   8.200  18.933  0.00  0.00    +0.000 OA
ATOM     20  C   UNL     1      48.510   6.162  18.779  0.00  0.00    +0.000 A 
ATOM     21  H   UNL     1      46.895   7.554  21.278  0.00  0.00    +0.000 HD
ENDBRANCH  10  11
BRANCH  10  22
ATOM     22  N   UNL     1      49.747   8.331  16.886  0.00  0.00    +0.000 NA
ATOM     23  H   UNL     1      49.462   8.588  17.824  0.00  0.00    +0.000 HD
ATOM     24  H   UNL     1      49.529   9.131  16.297  0.00  0.00    +0.000 HD
ENDBRANCH  10  22
ENDBRANCH   8  10
ENDBRANCH   7   8
ENDBRANCH   1   7
BRANCH   4  25
ATOM     25  C   UNL     1      44.459   6.116  10.941  0.00  0.00    +0.000 C 
BRANCH  25  26
ATOM     26  N   UNL     1      44.315   4.646  10.748  0.00  0.00    +0.000 NA
BRANCH  26  27
ATOM     27  C   UNL     1      43.188   4.116  11.557  0.00  0.00    +0.000 C 
BRANCH  27  28
ATOM     28  C   UNL     1      43.505   2.848  12.374  0.00  0.00    +0.000 C 
BRANCH  28  29
ATOM     29  O   UNL     1      43.054   1.681  11.690  0.00  0.00    +0.000 OA
ATOM     30  H   UNL     1      42.935   0.983  12.357  0.00  0.00    +0.000 HD
ENDBRANCH  28  29
ENDBRANCH  27  28
ENDBRANCH  26  27
BRANCH  26  31
ATOM     31  C   UNL     1      44.077   4.375   9.308  0.00  0.00    +0.000 C 
BRANCH  31  32
ATOM     32  C   UNL     1      45.168   3.585   8.608  0.00  0.00    +0.000 A 
ATOM     33  C   UNL     1      45.301   2.214   8.829  0.00  0.00    +0.000 A 
ATOM     34  C   UNL     1      46.280   1.514   8.131  0.00  0.00    +0.000 A 
ATOM     35  C   UNL     1      47.095   2.195   7.235  0.00  0.00    +0.000 A 
ATOM     36  C   UNL     1      46.906   3.558   7.084  0.00  0.00    +0.000 A 
ATOM     37  N   UNL     1      45.966   4.265   7.746  0.00  0.00    +0.000 NA
ENDBRANCH  31  32
ENDBRANCH  26  31
ENDBRANCH  25  26
ENDBRANCH   4  25
TORSDOF 12
ENDMDL
MODEL 5
REMARK VINA RESULT:    -6.997      2.408      2.825
REMARK INTER + INTRA:         -12.260
REMARK INTER:                 -11.151
REMARK INTRA:                  -1.109
REMARK UNBOUND:                -0.764
REMARK  Name = 
REMARK  12 active torsions:
REMARK  status: ('A' for Active; 'I' for Inactive)
REMARK    1  A    between atoms: N_1  and  C_2
REMARK    2  A    between atoms: C_2  and  N_3
REMARK    3  A    between atoms: C_2  and  C_23
REMARK    4  A    between atoms: N_3  and  C_4
REMARK    5  A    between atoms: C_4  and  C_5
REMARK    6  A    between atoms: C_8  and  C_9
REMARK    7  A    between atoms: C_9  and  N_10
REMARK    8  A    between atoms: N_10  and  C_11
REMARK    9  A    between atoms: N_10  and  C_14
REMARK   10  A    between atoms: C_11  and  C_12
REMARK   11  A    between atoms: C_12  and  O_13
REMARK   12  A    between atoms: C_14  and  C_15
REMARK                            x       y       z     vdW  Elec       q    Type
REMARK                         _______ _______ _______ _____ _____    ______ ____
ROOT
ATOM      1  C   UNL     1      48.491   6.727  13.392  0.00  0.00    +0.000 A 
ATOM      2  C   UNL     1      47.553   5.787  13.844  0.00  0.00    +0.000 A 
ATOM      3  C   UNL     1      46.440   5.462  13.067  0.00  0.00    +0.000 A 
ATOM      4  C   UNL     1      46.220   6.100  11.839  0.00  0.00    +0.000 A 
ATOM      5  C   UNL     1      47.189   6.987  11.354  0.00  0.00    +0.000 A 
ATOM      6  C   UNL     1      48.315   7.296  12.122  0.00  0.00    +0.000 A 
ENDROOT
BRANCH   1   7
ATOM      7  C   UNL     1      49.645   7.153  14.274  0.00  0.00    +0.000 C 
BRANCH   7   8
ATOM      8  N   UNL     1      49.471   6.667  15.637  0.00  0.00    +0.000 NA
ATOM      9  H   UNL     1      48.802   5.899  15.610  0.00  0.00    +0.000 HD
BRANCH   8  10
ATOM     10  C   UNL     1      48.954   7.635  16.581  0.00  0.00    +0.000 C 
BRANCH  10  11
ATOM     11  C   UNL     1      49.537   7.330  17.942  0.00  0.00    +0.000 A 
ATOM     12  C   UNL     1      50.504   8.097  18.581  0.00  0.00    +0.000 A 
ATOM     13  S   UNL     1      50.927   7.508  20.129  0.00  0.00    +0.000 S 
ATOM     14  C   UNL     1      49.815   6.227  20.009  0.00  0.00    +0.000 A 
ATOM     15  N   UNL     1      49.659   5.338  21.026  0.00  0.00    +0.000 NA
ATOM     16  C   UNL     1      48.757   4.442  20.804  0.00  0.00    +0.000 A 
ATOM     17  N   UNL     1      48.010   4.339  19.659  0.00  0.00    +0.000 N 
ATOM     18  C   UNL     1      48.165   5.190  18.580  0.00  0.00    +0.000 A 
ATOM     19  O   UNL     1      47.545   5.019  17.541  0.00  0.00    +0.000 OA
ATOM     20  C   UNL     1      49.144   6.236  18.800  0.00  0.00    +0.000 A 
ATOM     21  H   UNL     1      47.338   3.596  19.544  0.00  0.00    +0.000 HD
ENDBRANCH  10  11
BRANCH  10  22
ATOM     22  N   UNL     1      49.475   8.921  16.202  0.00  0.00    +0.000 NA
ATOM     23  H   UNL     1      50.247   9.155  16.815  0.00  0.00    +0.000 HD
ATOM     24  H   UNL     1      48.739   9.591  16.410  0.00  0.00    +0.000 HD
ENDBRANCH  10  22
ENDBRANCH   8  10
ENDBRANCH   7   8
ENDBRANCH   1   7
BRANCH   4  25
ATOM     25  C   UNL     1      44.937   5.864  11.072  0.00  0.00    +0.000 C 
BRANCH  25  26
ATOM     26  N   UNL     1      44.669   4.426  10.791  0.00  0.00    +0.000 NA
BRANCH  26  27
ATOM     27  C   UNL     1      43.531   3.932  11.608  0.00  0.00    +0.000 C 
BRANCH  27  28
ATOM     28  C   UNL     1      42.809   5.006  12.445  0.00  0.00    +0.000 C 
BRANCH  28  29
ATOM     29  O   UNL     1      41.790   5.644  11.678  0.00  0.00    +0.000 OA
ATOM     30  H   UNL     1      41.002   5.713  12.243  0.00  0.00    +0.000 HD
ENDBRANCH  28  29
ENDBRANCH  27  28
ENDBRANCH  26  27
BRANCH  26  31
ATOM     31  C   UNL     1      44.361   4.271   9.347  0.00  0.00    +0.000 C 
BRANCH  31  32
ATOM     32  C   UNL     1      45.308   3.368   8.575  0.00  0.00    +0.000 A 
ATOM     33  C   UNL     1      46.164   3.901   7.612  0.00  0.00    +0.000 A 
ATOM     34  C   UNL     1      47.052   3.050   6.961  0.00  0.00    +0.000 A 
ATOM     35  C   UNL     1      47.063   1.699   7.287  0.00  0.00    +0.000 A 
ATOM     36  C   UNL     1      46.172   1.249   8.246  0.00  0.00    +0.000 A 
ATOM     37  N   UNL     1      45.298   2.049   8.894  0.00  0.00    +0.000 NA
ENDBRANCH  31  32
ENDBRANCH  26  31
ENDBRANCH  25  26
ENDBRANCH   4  25
TORSDOF 12
ENDMDL
MODEL 6
REMARK VINA RESULT:    -6.733      3.571      8.874
REMARK INTER + INTRA:         -11.826
REMARK INTER:                  -9.820
REMARK INTRA:                  -2.007
REMARK UNBOUND:                -0.764
REMARK  Name = 
REMARK  12 active torsions:
REMARK  status: ('A' for Active; 'I' for Inactive)
REMARK    1  A    between atoms: N_1  and  C_2
REMARK    2  A    between atoms: C_2  and  N_3
REMARK    3  A    between atoms: C_2  and  C_23
REMARK    4  A    between atoms: N_3  and  C_4
REMARK    5  A    between atoms: C_4  and  C_5
REMARK    6  A    between atoms: C_8  and  C_9
REMARK    7  A    between atoms: C_9  and  N_10
REMARK    8  A    between atoms: N_10  and  C_11
REMARK    9  A    between atoms: N_10  and  C_14
REMARK   10  A    between atoms: C_11  and  C_12
REMARK   11  A    between atoms: C_12  and  O_13
REMARK   12  A    between atoms: C_14  and  C_15
REMARK                            x       y       z     vdW  Elec       q    Type
REMARK                         _______ _______ _______ _____ _____    ______ ____
ROOT
ATOM      1  C   UNL     1      48.824   8.114  15.232  0.00  0.00    +0.000 A 
ATOM      2  C   UNL     1      48.516   8.763  16.436  0.00  0.00    +0.000 A 
ATOM      3  C   UNL     1      49.234   8.481  17.599  0.00  0.00    +0.000 A 
ATOM      4  C   UNL     1      50.250   7.516  17.591  0.00  0.00    +0.000 A 
ATOM      5  C   UNL     1      50.605   6.916  16.376  0.00  0.00    +0.000 A 
ATOM      6  C   UNL     1      49.900   7.215  15.207  0.00  0.00    +0.000 A 
ENDROOT
BRANCH   1   7
ATOM      7  C   UNL     1      47.984   8.344  13.993  0.00  0.00    +0.000 C 
BRANCH   7   8
ATOM      8  N   UNL     1      46.900   7.374  13.906  0.00  0.00    +0.000 NA
ATOM      9  H   UNL     1      46.886   6.844  14.776  0.00  0.00    +0.000 HD
BRANCH   8  10
ATOM     10  C   UNL     1      47.015   6.408  12.833  0.00  0.00    +0.000 C 
BRANCH  10  11
ATOM     11  C   UNL     1      45.633   6.143  12.282  0.00  0.00    +0.000 A 
ATOM     12  C   UNL     1      44.810   7.106  11.708  0.00  0.00    +0.000 A 
ATOM     13  S   UNL     1      43.322   6.482  11.144  0.00  0.00    +0.000 S 
ATOM     14  C   UNL     1      43.737   4.903  11.623  0.00  0.00    +0.000 A 
ATOM     15  N   UNL     1      42.891   3.861  11.408  0.00  0.00    +0.000 NA
ATOM     16  C   UNL     1      43.355   2.722  11.795  0.00  0.00    +0.000 A 
ATOM     17  N   UNL     1      44.574   2.526  12.389  0.00  0.00    +0.000 N 
ATOM     18  C   UNL     1      45.449   3.559  12.670  0.00  0.00    +0.000 A 
ATOM     19  O   UNL     1      46.491   3.362  13.279  0.00  0.00    +0.000 OA
ATOM     20  C   UNL     1      44.983   4.855  12.220  0.00  0.00    +0.000 A 
ATOM     21  H   UNL     1      44.863   1.606  12.689  0.00  0.00    +0.000 HD
ENDBRANCH  10  11
BRANCH  10  22
ATOM     22  N   UNL     1      47.756   7.035  11.772  0.00  0.00    +0.000 NA
ATOM     23  H   UNL     1      47.109   7.330  11.050  0.00  0.00    +0.000 HD
ATOM     24  H   UNL     1      48.323   6.299  11.357  0.00  0.00    +0.000 HD
ENDBRANCH  10  22
ENDBRANCH   8  10
ENDBRANCH   7   8
ENDBRANCH   1   7
BRANCH   4  25
ATOM     25  C   UNL     1      50.921   7.098  18.882  0.00  0.00    +0.000 C 
BRANCH  25  26
ATOM     26  N   UNL     1      51.190   5.635  18.965  0.00  0.00    +0.000 NA
BRANCH  26  27
ATOM     27  C   UNL     1      52.310   5.358  19.900  0.00  0.00    +0.000 C 
BRANCH  27  28
ATOM     28  C   UNL     1      53.314   4.289  19.424  0.00  0.00    +0.000 C 
BRANCH  28  29
ATOM     29  O   UNL     1      52.655   3.045  19.194  0.00  0.00    +0.000 OA
ATOM     30  H   UNL     1      51.901   3.000  19.806  0.00  0.00    +0.000 HD
ENDBRANCH  28  29
ENDBRANCH  27  28
ENDBRANCH  26  27
BRANCH  26  31
ATOM     31  C   UNL     1      49.959   4.950  19.430  0.00  0.00    +0.000 C 
BRANCH  31  32
ATOM     32  C   UNL     1      49.218   4.156  18.368  0.00  0.00    +0.000 A 
ATOM     33  C   UNL     1      47.969   4.579  17.913  0.00  0.00    +0.000 A 
ATOM     34  C   UNL     1      47.343   3.855  16.903  0.00  0.00    +0.000 A 
ATOM     35  C   UNL     1      47.976   2.735  16.377  0.00  0.00    +0.000 A 
ATOM     36  C   UNL     1      49.209   2.376  16.893  0.00  0.00    +0.000 A 
ATOM     37  N   UNL     1      49.841   3.057  17.872  0.00  0.00    +0.000 NA
ENDBRANCH  31  32
ENDBRANCH  26  31
ENDBRANCH  25  26
ENDBRANCH   4  25
TORSDOF 12
ENDMDL
MODEL 7
REMARK VINA RESULT:    -6.672      3.262      8.877
REMARK INTER + INTRA:         -11.727
REMARK INTER:                  -9.674
REMARK INTRA:                  -2.053
REMARK UNBOUND:                -0.764
REMARK  Name = 
REMARK  12 active torsions:
REMARK  status: ('A' for Active; 'I' for Inactive)
REMARK    1  A    between atoms: N_1  and  C_2
REMARK    2  A    between atoms: C_2  and  N_3
REMARK    3  A    between atoms: C_2  and  C_23
REMARK    4  A    between atoms: N_3  and  C_4
REMARK    5  A    between atoms: C_4  and  C_5
REMARK    6  A    between atoms: C_8  and  C_9
REMARK    7  A    between atoms: C_9  and  N_10
REMARK    8  A    between atoms: N_10  and  C_11
REMARK    9  A    between atoms: N_10  and  C_14
REMARK   10  A    between atoms: C_11  and  C_12
REMARK   11  A    between atoms: C_12  and  O_13
REMARK   12  A    between atoms: C_14  and  C_15
REMARK                            x       y       z     vdW  Elec       q    Type
REMARK                         _______ _______ _______ _____ _____    ______ ____
ROOT
ATOM      1  C   UNL     1      48.419   8.031  13.189  0.00  0.00    +0.000 A 
ATOM      2  C   UNL     1      47.906   8.998  14.066  0.00  0.00    +0.000 A 
ATOM      3  C   UNL     1      48.491   9.206  15.316  0.00  0.00    +0.000 A 
ATOM      4  C   UNL     1      49.576   8.424  15.732  0.00  0.00    +0.000 A 
ATOM      5  C   UNL     1      50.133   7.505  14.833  0.00  0.00    +0.000 A 
ATOM      6  C   UNL     1      49.561   7.313  13.573  0.00  0.00    +0.000 A 
ENDROOT
BRANCH   1   7
ATOM      7  C   UNL     1      47.729   7.736  11.875  0.00  0.00    +0.000 C 
BRANCH   7   8
ATOM      8  N   UNL     1      46.954   6.504  11.953  0.00  0.00    +0.000 NA
ATOM      9  H   UNL     1      47.283   5.882  11.215  0.00  0.00    +0.000 HD
BRANCH   8  10
ATOM     10  C   UNL     1      45.526   6.654  11.764  0.00  0.00    +0.000 C 
BRANCH  10  11
ATOM     11  C   UNL     1      44.913   5.276  11.671  0.00  0.00    +0.000 A 
ATOM     12  C   UNL     1      44.203   4.653  12.691  0.00  0.00    +0.000 A 
ATOM     13  S   UNL     1      43.602   3.112  12.261  0.00  0.00    +0.000 S 
ATOM     14  C   UNL     1      44.244   3.236  10.691  0.00  0.00    +0.000 A 
ATOM     15  N   UNL     1      44.069   2.241   9.781  0.00  0.00    +0.000 NA
ATOM     16  C   UNL     1      44.584   2.491   8.626  0.00  0.00    +0.000 A 
ATOM     17  N   UNL     1      45.271   3.630   8.296  0.00  0.00    +0.000 N 
ATOM     18  C   UNL     1      45.515   4.649   9.199  0.00  0.00    +0.000 A 
ATOM     19  O   UNL     1      46.205   5.613   8.899  0.00  0.00    +0.000 OA
ATOM     20  C   UNL     1      44.923   4.426  10.503  0.00  0.00    +0.000 A 
ATOM     21  H   UNL     1      45.669   3.749   7.377  0.00  0.00    +0.000 HD
ENDBRANCH  10  11
BRANCH  10  22
ATOM     22  N   UNL     1      44.997   7.248  12.962  0.00  0.00    +0.000 NA
ATOM     23  H   UNL     1      45.443   8.146  13.108  0.00  0.00    +0.000 HD
ATOM     24  H   UNL     1      45.308   6.653  13.727  0.00  0.00    +0.000 HD
ENDBRANCH  10  22
ENDBRANCH   8  10
ENDBRANCH   7   8
ENDBRANCH   1   7
BRANCH   4  25
ATOM     25  C   UNL     1      50.109   8.541  17.144  0.00  0.00    +0.000 C 
BRANCH  25  26
ATOM     26  N   UNL     1      50.115   7.248  17.885  0.00  0.00    +0.000 NA
BRANCH  26  27
ATOM     27  C   UNL     1      50.845   7.381  19.172  0.00  0.00    +0.000 C 
BRANCH  27  28
ATOM     28  C   UNL     1      51.741   6.185  19.546  0.00  0.00    +0.000 C 
BRANCH  28  29
ATOM     29  O   UNL     1      51.036   5.267  20.379  0.00  0.00    +0.000 OA
ATOM     30  H   UNL     1      50.091   5.491  20.320  0.00  0.00    +0.000 HD
ENDBRANCH  28  29
ENDBRANCH  27  28
ENDBRANCH  26  27
BRANCH  26  31
ATOM     31  C   UNL     1      48.711   6.838  18.138  0.00  0.00    +0.000 C 
BRANCH  31  32
ATOM     32  C   UNL     1      48.377   5.404  17.767  0.00  0.00    +0.000 A 
ATOM     33  C   UNL     1      47.847   5.104  16.513  0.00  0.00    +0.000 A 
ATOM     34  C   UNL     1      47.601   3.772  16.191  0.00  0.00    +0.000 A 
ATOM     35  C   UNL     1      47.889   2.782  17.122  0.00  0.00    +0.000 A 
ATOM     36  C   UNL     1      48.402   3.166  18.349  0.00  0.00    +0.000 A 
ATOM     37  N   UNL     1      48.651   4.448  18.692  0.00  0.00    +0.000 NA
ENDBRANCH  31  32
ENDBRANCH  26  31
ENDBRANCH  25  26
ENDBRANCH   4  25
TORSDOF 12
ENDMDL
MODEL 8
REMARK VINA RESULT:    -6.627      2.526      3.882
REMARK INTER + INTRA:         -11.653
REMARK INTER:                  -9.855
REMARK INTRA:                  -1.798
REMARK UNBOUND:                -0.764
REMARK  Name = 
REMARK  12 active torsions:
REMARK  status: ('A' for Active; 'I' for Inactive)
REMARK    1  A    between atoms: N_1  and  C_2
REMARK    2  A    between atoms: C_2  and  N_3
REMARK    3  A    between atoms: C_2  and  C_23
REMARK    4  A    between atoms: N_3  and  C_4
REMARK    5  A    between atoms: C_4  and  C_5
REMARK    6  A    between atoms: C_8  and  C_9
REMARK    7  A    between atoms: C_9  and  N_10
REMARK    8  A    between atoms: N_10  and  C_11
REMARK    9  A    between atoms: N_10  and  C_14
REMARK   10  A    between atoms: C_11  and  C_12
REMARK   11  A    between atoms: C_12  and  O_13
REMARK   12  A    between atoms: C_14  and  C_15
REMARK                            x       y       z     vdW  Elec       q    Type
REMARK                         _______ _______ _______ _____ _____    ______ ____
ROOT
ATOM      1  C   UNL     1      49.032   7.938  16.680  0.00  0.00    +0.000 A 
ATOM      2  C   UNL     1      49.194   6.859  15.799  0.00  0.00    +0.000 A 
ATOM      3  C   UNL     1      48.750   6.946  14.479  0.00  0.00    +0.000 A 
ATOM      4  C   UNL     1      48.099   8.100  14.023  0.00  0.00    +0.000 A 
ATOM      5  C   UNL     1      47.997   9.203  14.879  0.00  0.00    +0.000 A 
ATOM      6  C   UNL     1      48.462   9.124  16.194  0.00  0.00    +0.000 A 
ENDROOT
BRANCH   1   7
ATOM      7  C   UNL     1      49.424   7.812  18.137  0.00  0.00    +0.000 C 
BRANCH   7   8
ATOM      8  N   UNL     1      48.482   6.969  18.862  0.00  0.00    +0.000 NA
ATOM      9  H   UNL     1      47.900   7.577  19.437  0.00  0.00    +0.000 HD
BRANCH   8  10
ATOM     10  C   UNL     1      49.078   5.998  19.756  0.00  0.00    +0.000 C 
BRANCH  10  11
ATOM     11  C   UNL     1      49.759   4.939  18.920  0.00  0.00    +0.000 A 
ATOM     12  C   UNL     1      51.119   4.650  18.959  0.00  0.00    +0.000 A 
ATOM     13  S   UNL     1      51.574   3.371  17.922  0.00  0.00    +0.000 S 
ATOM     14  C   UNL     1      49.969   3.142  17.406  0.00  0.00    +0.000 A 
ATOM     15  N   UNL     1      49.654   2.168  16.511  0.00  0.00    +0.000 NA
ATOM     16  C   UNL     1      48.395   2.094  16.241  0.00  0.00    +0.000 A 
ATOM     17  N   UNL     1      47.425   2.908  16.764  0.00  0.00    +0.000 N 
ATOM     18  C   UNL     1      47.702   3.941  17.641  0.00  0.00    +0.000 A 
ATOM     19  O   UNL     1      46.825   4.703  18.023  0.00  0.00    +0.000 OA
ATOM     20  C   UNL     1      49.102   4.039  18.001  0.00  0.00    +0.000 A 
ATOM     21  H   UNL     1      46.459   2.808  16.488  0.00  0.00    +0.000 HD
ENDBRANCH  10  11
BRANCH  10  22
ATOM     22  N   UNL     1      50.123   6.670  20.480  0.00  0.00    +0.000 NA
ATOM     23  H   UNL     1      50.982   6.612  19.946  0.00  0.00    +0.000 HD
ATOM     24  H   UNL     1      50.278   6.117  21.320  0.00  0.00    +0.000 HD
ENDBRANCH  10  22
ENDBRANCH   8  10
ENDBRANCH   7   8
ENDBRANCH   1   7
BRANCH   4  25
ATOM     25  C   UNL     1      47.480   8.135  12.641  0.00  0.00    +0.000 C 
BRANCH  25  26
ATOM     26  N   UNL     1      46.217   7.352  12.537  0.00  0.00    +0.000 NA
BRANCH  26  27
ATOM     27  C   UNL     1      45.155   8.150  11.873  0.00  0.00    +0.000 C 
BRANCH  27  28
ATOM     28  C   UNL     1      45.235   9.672  12.104  0.00  0.00    +0.000 C 
BRANCH  28  29
ATOM     29  O   UNL     1      43.954  10.198  12.447  0.00  0.00    +0.000 OA
ATOM     30  H   UNL     1      43.293   9.526  12.209  0.00  0.00    +0.000 HD
ENDBRANCH  28  29
ENDBRANCH  27  28
ENDBRANCH  26  27
BRANCH  26  31
ATOM     31  C   UNL     1      46.484   6.116  11.760  0.00  0.00    +0.000 C 
BRANCH  31  32
ATOM     32  C   UNL     1      45.356   5.100  11.747  0.00  0.00    +0.000 A 
ATOM     33  C   UNL     1      44.751   4.700  12.938  0.00  0.00    +0.000 A 
ATOM     34  C   UNL     1      43.686   3.806  12.882  0.00  0.00    +0.000 A 
ATOM     35  C   UNL     1      43.256   3.337  11.646  0.00  0.00    +0.000 A 
ATOM     36  C   UNL     1      43.919   3.775  10.513  0.00  0.00    +0.000 A 
ATOM     37  N   UNL     1      44.954   4.641  10.534  0.00  0.00    +0.000 NA
ENDBRANCH  31  32
ENDBRANCH  26  31
ENDBRANCH  25  26
ENDBRANCH   4  25
TORSDOF 12
ENDMDL
MODEL 9
REMARK VINA RESULT:    -6.586      3.454     10.470
REMARK INTER + INTRA:         -11.585
REMARK INTER:                 -10.276
REMARK INTRA:                  -1.308
REMARK UNBOUND:                -0.764
REMARK  Name = 
REMARK  12 active torsions:
REMARK  status: ('A' for Active; 'I' for Inactive)
REMARK    1  A    between atoms: N_1  and  C_2
REMARK    2  A    between atoms: C_2  and  N_3
REMARK    3  A    between atoms: C_2  and  C_23
REMARK    4  A    between atoms: N_3  and  C_4
REMARK    5  A    between atoms: C_4  and  C_5
REMARK    6  A    between atoms: C_8  and  C_9
REMARK    7  A    between atoms: C_9  and  N_10
REMARK    8  A    between atoms: N_10  and  C_11
REMARK    9  A    between atoms: N_10  and  C_14
REMARK   10  A    between atoms: C_11  and  C_12
REMARK   11  A    between atoms: C_12  and  O_13
REMARK   12  A    between atoms: C_14  and  C_15
REMARK                            x       y       z     vdW  Elec       q    Type
REMARK                         _______ _______ _______ _____ _____    ______ ____
ROOT
ATOM      1  C   UNL     1      48.807   3.435  17.210  0.00  0.00    +0.000 A 
ATOM      2  C   UNL     1      49.316   2.169  16.884  0.00  0.00    +0.000 A 
ATOM      3  C   UNL     1      50.666   1.875  17.076  0.00  0.00    +0.000 A 
ATOM      4  C   UNL     1      51.545   2.853  17.561  0.00  0.00    +0.000 A 
ATOM      5  C   UNL     1      51.028   4.095  17.951  0.00  0.00    +0.000 A 
ATOM      6  C   UNL     1      49.671   4.382  17.779  0.00  0.00    +0.000 A 
ENDROOT
BRANCH   1   7
ATOM      7  C   UNL     1      47.365   3.789  16.912  0.00  0.00    +0.000 C 
BRANCH   7   8
ATOM      8  N   UNL     1      47.266   4.645  15.737  0.00  0.00    +0.000 NA
ATOM      9  H   UNL     1      46.831   5.520  16.026  0.00  0.00    +0.000 HD
BRANCH   8  10
ATOM     10  C   UNL     1      46.465   4.121  14.652  0.00  0.00    +0.000 C 
BRANCH  10  11
ATOM     11  C   UNL     1      46.107   5.265  13.731  0.00  0.00    +0.000 A 
ATOM     12  C   UNL     1      46.940   6.338  13.437  0.00  0.00    +0.000 A 
ATOM     13  S   UNL     1      46.260   7.447  12.330  0.00  0.00    +0.000 S 
ATOM     14  C   UNL     1      44.841   6.520  12.185  0.00  0.00    +0.000 A 
ATOM     15  N   UNL     1      43.833   6.907  11.359  0.00  0.00    +0.000 NA
ATOM     16  C   UNL     1      42.837   6.087  11.329  0.00  0.00    +0.000 A 
ATOM     17  N   UNL     1      42.745   4.929  12.055  0.00  0.00    +0.000 N 
ATOM     18  C   UNL     1      43.722   4.517  12.942  0.00  0.00    +0.000 A 
ATOM     19  O   UNL     1      43.571   3.524  13.639  0.00  0.00    +0.000 OA
ATOM     20  C   UNL     1      44.878   5.391  12.982  0.00  0.00    +0.000 A 
ATOM     21  H   UNL     1      41.922   4.346  12.000  0.00  0.00    +0.000 HD
ENDBRANCH  10  11
BRANCH  10  22
ATOM     22  N   UNL     1      47.305   3.240  13.887  0.00  0.00    +0.000 NA
ATOM     23  H   UNL     1      48.110   2.985  14.448  0.00  0.00    +0.000 HD
ATOM     24  H   UNL     1      47.666   3.799  13.118  0.00  0.00    +0.000 HD
ENDBRANCH  10  22
ENDBRANCH   8  10
ENDBRANCH   7   8
ENDBRANCH   1   7
BRANCH   4  25
ATOM     25  C   UNL     1      53.034   2.584  17.620  0.00  0.00    +0.000 C 
BRANCH  25  26
ATOM     26  N   UNL     1      53.432   1.699  18.751  0.00  0.00    +0.000 NA
BRANCH  26  27
ATOM     27  C   UNL     1      53.886   0.377  18.251  0.00  0.00    +0.000 C 
BRANCH  27  28
ATOM     28  C   UNL     1      54.456   0.377  16.818  0.00  0.00    +0.000 C 
BRANCH  28  29
ATOM     29  O   UNL     1      53.759  -0.561  15.999  0.00  0.00    +0.000 OA
ATOM     30  H   UNL     1      54.234  -0.613  15.152  0.00  0.00    +0.000 HD
ENDBRANCH  28  29
ENDBRANCH  27  28
ENDBRANCH  26  27
BRANCH  26  31
ATOM     31  C   UNL     1      54.525   2.358  19.509  0.00  0.00    +0.000 C 
BRANCH  31  32
ATOM     32  C   UNL     1      54.202   3.742  20.043  0.00  0.00    +0.000 A 
ATOM     33  C   UNL     1      53.143   3.927  20.932  0.00  0.00    +0.000 A 
ATOM     34  C   UNL     1      52.909   5.202  21.439  0.00  0.00    +0.000 A 
ATOM     35  C   UNL     1      53.733   6.251  21.049  0.00  0.00    +0.000 A 
ATOM     36  C   UNL     1      54.753   5.984  20.153  0.00  0.00    +0.000 A 
ATOM     37  N   UNL     1      55.006   4.760  19.643  0.00  0.00    +0.000 NA
ENDBRANCH  31  32
ENDBRANCH  26  31
ENDBRANCH  25  26
ENDBRANCH   4  25
TORSDOF 12
ENDMDL
