MODEL 1
REMARK VINA RESULT:    -7.742      0.000      0.000
REMARK INTER + INTRA:         -12.069
REMARK INTER:                 -10.910
REMARK INTRA:                  -1.160
REMARK UNBOUND:                -1.160
REMARK  Name = 
REMARK  7 active torsions:
REMARK  status: ('A' for Active; 'I' for Inactive)
REMARK    1  A    between atoms: C_2  and  C_20
REMARK    2  A    between atoms: N_3  and  C_4
REMARK    3  A    between atoms: C_4  and  C_5
REMARK    4  A    between atoms: C_8  and  C_9
REMARK    5  A    between atoms: C_9  and  N_10
REMARK    6  A    between atoms: N_10  and  C_11
REMARK    7  A    between atoms: C_11  and  C_12
REMARK                            x       y       z     vdW  Elec       q    Type
REMARK                         _______ _______ _______ _____ _____    ______ ____
ROOT
ATOM      1  C   UNL     1      45.924   5.936  12.033  0.00  0.00    +0.000 A 
ATOM      2  C   UNL     1      45.584   4.773  12.733  0.00  0.00    +0.000 A 
ATOM      3  C   UNL     1      45.010   3.690  12.069  0.00  0.00    +0.000 A 
ATOM      4  C   UNL     1      44.733   3.751  10.697  0.00  0.00    +0.000 A 
ATOM      5  C   UNL     1      45.134   4.894   9.987  0.00  0.00    +0.000 A 
ATOM      6  C   UNL     1      45.727   5.974  10.648  0.00  0.00    +0.000 A 
ENDROOT
BRANCH   1   7
ATOM      7  C   UNL     1      46.551   7.091  12.766  0.00  0.00    +0.000 C 
BRANCH   7  10
ATOM      8  O   UNL     1      49.226   6.670  13.543  0.00  0.00    +0.000 OA
ATOM      9  C   UNL     1      48.336   6.573  14.383  0.00  0.00    +0.000 C 
ATOM     10  N   UNL     1      47.005   6.681  14.069  0.00  0.00    +0.000 N 
ATOM     11  H   UNL     1      46.335   6.799  14.819  0.00  0.00    +0.000 HD
BRANCH   9  12
ATOM     12  C   UNL     1      48.641   6.277  15.789  0.00  0.00    +0.000 A 
ATOM     13  C   UNL     1      49.228   7.250  16.587  0.00  0.00    +0.000 A 
ATOM     14  S   UNL     1      49.539   6.727  18.181  0.00  0.00    +0.000 S 
ATOM     15  C   UNL     1      48.852   5.201  17.874  0.00  0.00    +0.000 A 
ATOM     16  N   UNL     1      48.770   4.260  18.853  0.00  0.00    +0.000 NA
ATOM     17  C   UNL     1      48.183   3.167  18.495  0.00  0.00    +0.000 A 
ATOM     18  N   UNL     1      47.683   2.923  17.243  0.00  0.00    +0.000 N 
ATOM     19  C   UNL     1      47.813   3.812  16.205  0.00  0.00    +0.000 A 
ATOM     20  O   UNL     1      47.473   3.507  15.065  0.00  0.00    +0.000 OA
ATOM     21  C   UNL     1      48.419   5.080  16.565  0.00  0.00    +0.000 A 
ATOM     22  H   UNL     1      47.259   2.036  17.019  0.00  0.00    +0.000 HD
ENDBRANCH   9  12
ENDBRANCH   7  10
ENDBRANCH   1   7
BRANCH   4  23
ATOM     23  C   UNL     1      44.066   2.613   9.950  0.00  0.00    +0.000 C 
BRANCH  23  24
ATOM     24  N   UNL     1      44.965   1.660   9.291  0.00  0.00    +0.000 NA
ATOM     25  H   UNL     1      44.555   0.730   9.335  0.00  0.00    +0.000 HD
BRANCH  24  26
ATOM     26  C   UNL     1      45.279   2.017   7.903  0.00  0.00    +0.000 C 
BRANCH  26  27
ATOM     27  C   UNL     1      46.797   2.276   7.754  0.00  0.00    +0.000 C 
ATOM     28  C   UNL     1      47.119   3.472   6.842  0.00  0.00    +0.000 C 
ATOM     29  C   UNL     1      46.971   3.141   5.359  0.00  0.00    +0.000 C 
ATOM     30  N   UNL     1      47.770   1.969   4.981  0.00  0.00    +0.000 NA
ATOM     31  C   UNL     1      47.359   0.796   5.749  0.00  0.00    +0.000 C 
ATOM     32  C   UNL     1      47.530   1.019   7.250  0.00  0.00    +0.000 C 
ATOM     33  H   UNL     1      48.752   2.167   5.174  0.00  0.00    +0.000 HD
ENDBRANCH  26  27
ENDBRANCH  24  26
ENDBRANCH  23  24
ENDBRANCH   4  23
TORSDOF 7
ENDMDL
MODEL 2
REMARK VINA RESULT:    -7.020      3.117      4.295
REMARK INTER + INTRA:         -11.053
REMARK INTER:                  -9.526
REMARK INTRA:                  -1.527
REMARK UNBOUND:                -1.160
REMARK  Name = 
REMARK  7 active torsions:
REMARK  status: ('A' for Active; 'I' for Inactive)
REMARK    1  A    between atoms: C_2  and  C_20
REMARK    2  A    between atoms: N_3  and  C_4
REMARK    3  A    between atoms: C_4  and  C_5
REMARK    4  A    between atoms: C_8  and  C_9
REMARK    5  A    between atoms: C_9  and  N_10
REMARK    6  A    between atoms: N_10  and  C_11
REMARK    7  A    between atoms: C_11  and  C_12
REMARK                            x       y       z     vdW  Elec       q    Type
REMARK                         _______ _______ _______ _____ _____    ______ ____
ROOT
ATOM      1  C   UNL     1      48.310   7.838  13.008  0.00  0.00    +0.000 A 
ATOM      2  C   UNL     1      47.345   8.731  13.484  0.00  0.00    +0.000 A 
ATOM      3  C   UNL     1      46.055   8.727  12.955  0.00  0.00    +0.000 A 
ATOM      4  C   UNL     1      45.705   7.853  11.916  0.00  0.00    +0.000 A 
ATOM      5  C   UNL     1      46.658   6.916  11.486  0.00  0.00    +0.000 A 
ATOM      6  C   UNL     1      47.947   6.906  12.029  0.00  0.00    +0.000 A 
ENDROOT
BRANCH   1   7
ATOM      7  C   UNL     1      49.694   7.851  13.599  0.00  0.00    +0.000 C 
BRANCH   7  10
ATOM      8  O   UNL     1      49.593   8.516  16.334  0.00  0.00    +0.000 OA
ATOM      9  C   UNL     1      49.649   7.334  16.007  0.00  0.00    +0.000 C 
ATOM     10  N   UNL     1      49.785   6.932  14.703  0.00  0.00    +0.000 N 
ATOM     11  H   UNL     1      49.620   5.959  14.473  0.00  0.00    +0.000 HD
BRANCH   9  12
ATOM     12  C   UNL     1      49.631   6.262  17.011  0.00  0.00    +0.000 A 
ATOM     13  C   UNL     1      50.460   6.342  18.121  0.00  0.00    +0.000 A 
ATOM     14  S   UNL     1      50.331   5.000  19.166  0.00  0.00    +0.000 S 
ATOM     15  C   UNL     1      49.123   4.292  18.199  0.00  0.00    +0.000 A 
ATOM     16  N   UNL     1      48.544   3.114  18.554  0.00  0.00    +0.000 NA
ATOM     17  C   UNL     1      47.610   2.717  17.755  0.00  0.00    +0.000 A 
ATOM     18  N   UNL     1      47.213   3.383  16.626  0.00  0.00    +0.000 N 
ATOM     19  C   UNL     1      47.821   4.533  16.188  0.00  0.00    +0.000 A 
ATOM     20  O   UNL     1      47.530   5.030  15.104  0.00  0.00    +0.000 OA
ATOM     21  C   UNL     1      48.844   5.053  17.078  0.00  0.00    +0.000 A 
ATOM     22  H   UNL     1      46.494   3.005  16.027  0.00  0.00    +0.000 HD
ENDBRANCH   9  12
ENDBRANCH   7  10
ENDBRANCH   1   7
BRANCH   4  23
ATOM     23  C   UNL     1      44.329   7.853  11.282  0.00  0.00    +0.000 C 
BRANCH  23  24
ATOM     24  N   UNL     1      43.388   6.846  11.785  0.00  0.00    +0.000 NA
ATOM     25  H   UNL     1      42.491   7.290  11.969  0.00  0.00    +0.000 HD
BRANCH  24  26
ATOM     26  C   UNL     1      43.218   5.702  10.884  0.00  0.00    +0.000 C 
BRANCH  26  27
ATOM     27  C   UNL     1      42.956   4.417  11.704  0.00  0.00    +0.000 C 
ATOM     28  C   UNL     1      43.479   4.505  13.148  0.00  0.00    +0.000 C 
ATOM     29  C   UNL     1      44.992   4.325  13.240  0.00  0.00    +0.000 C 
ATOM     30  N   UNL     1      45.432   3.077  12.603  0.00  0.00    +0.000 NA
ATOM     31  C   UNL     1      45.060   3.062  11.190  0.00  0.00    +0.000 C 
ATOM     32  C   UNL     1      43.549   3.179  11.005  0.00  0.00    +0.000 C 
ATOM     33  H   UNL     1      44.981   2.293  13.076  0.00  0.00    +0.000 HD
ENDBRANCH  26  27
ENDBRANCH  24  26
ENDBRANCH  23  24
ENDBRANCH   4  23
TORSDOF 7
ENDMDL
MODEL 3
REMARK VINA RESULT:    -6.982      1.722      2.258
REMARK INTER + INTRA:         -10.999
REMARK INTER:                  -9.917
REMARK INTRA:                  -1.082
REMARK UNBOUND:                -1.160
REMARK  Name = 
REMARK  7 active torsions:
REMARK  status: ('A' for Active; 'I' for Inactive)
REMARK    1  A    between atoms: C_2  and  C_20
REMARK    2  A    between atoms: N_3  and  C_4
REMARK    3  A    between atoms: C_4  and  C_5
REMARK    4  A    between atoms: C_8  and  C_9
REMARK    5  A    between atoms: C_9  and  N_10
REMARK    6  A    between atoms: N_10  and  C_11
REMARK    7  A    between atoms: C_11  and  C_12
REMARK                            x       y       z     vdW  Elec       q    Type
REMARK                         _______ _______ _______ _____ _____    ______ ____
ROOT
ATOM      1  C   UNL     1      46.505   5.735  12.562  0.00  0.00    +0.000 A 
ATOM      2  C   UNL     1      46.020   4.498  12.998  0.00  0.00    +0.000 A 
ATOM      3  C   UNL     1      45.226   3.715  12.160  0.00  0.00    +0.000 A 
ATOM      4  C   UNL     1      44.871   4.160  10.880  0.00  0.00    +0.000 A 
ATOM      5  C   UNL     1      45.413   5.373  10.424  0.00  0.00    +0.000 A 
ATOM      6  C   UNL     1      46.225   6.151  11.256  0.00  0.00    +0.000 A 
ENDROOT
BRANCH   1   7
ATOM      7  C   UNL     1      47.368   6.562  13.477  0.00  0.00    +0.000 C 
BRANCH   7  10
ATOM      8  O   UNL     1      49.633   6.617  15.152  0.00  0.00    +0.000 OA
ATOM      9  C   UNL     1      48.606   6.076  15.551  0.00  0.00    +0.000 C 
ATOM     10  N   UNL     1      47.489   5.934  14.767  0.00  0.00    +0.000 N 
ATOM     11  H   UNL     1      46.615   5.671  15.205  0.00  0.00    +0.000 HD
BRANCH   9  12
ATOM     12  C   UNL     1      48.524   5.489  16.895  0.00  0.00    +0.000 A 
ATOM     13  C   UNL     1      48.663   4.116  17.057  0.00  0.00    +0.000 A 
ATOM     14  S   UNL     1      48.513   3.603  18.677  0.00  0.00    +0.000 S 
ATOM     15  C   UNL     1      48.310   5.202  19.223  0.00  0.00    +0.000 A 
ATOM     16  N   UNL     1      48.158   5.476  20.547  0.00  0.00    +0.000 NA
ATOM     17  C   UNL     1      48.062   6.733  20.824  0.00  0.00    +0.000 A 
ATOM     18  N   UNL     1      48.089   7.742  19.897  0.00  0.00    +0.000 N 
ATOM     19  C   UNL     1      48.163   7.508  18.546  0.00  0.00    +0.000 A 
ATOM     20  O   UNL     1      48.050   8.426  17.739  0.00  0.00    +0.000 OA
ATOM     21  C   UNL     1      48.326   6.113  18.182  0.00  0.00    +0.000 A 
ATOM     22  H   UNL     1      47.982   8.705  20.177  0.00  0.00    +0.000 HD
ENDBRANCH   9  12
ENDBRANCH   7  10
ENDBRANCH   1   7
BRANCH   4  23
ATOM     23  C   UNL     1      43.971   3.361   9.960  0.00  0.00    +0.000 C 
BRANCH  23  24
ATOM     24  N   UNL     1      44.428   3.219   8.574  0.00  0.00    +0.000 NA
ATOM     25  H   UNL     1      44.996   4.026   8.326  0.00  0.00    +0.000 HD
BRANCH  24  26
ATOM     26  C   UNL     1      45.165   1.976   8.324  0.00  0.00    +0.000 C 
BRANCH  26  27
ATOM     27  C   UNL     1      46.657   2.290   8.063  0.00  0.00    +0.000 C 
ATOM     28  C   UNL     1      46.868   3.528   7.175  0.00  0.00    +0.000 C 
ATOM     29  C   UNL     1      46.608   3.246   5.697  0.00  0.00    +0.000 C 
ATOM     30  N   UNL     1      47.407   2.116   5.210  0.00  0.00    +0.000 NA
ATOM     31  C   UNL     1      47.096   0.903   5.963  0.00  0.00    +0.000 C 
ATOM     32  C   UNL     1      47.383   1.077   7.453  0.00  0.00    +0.000 C 
ATOM     33  H   UNL     1      48.396   2.339   5.331  0.00  0.00    +0.000 HD
ENDBRANCH  26  27
ENDBRANCH  24  26
ENDBRANCH  23  24
ENDBRANCH   4  23
TORSDOF 7
ENDMDL
MODEL 4
REMARK VINA RESULT:    -6.835      2.952      8.654
REMARK INTER + INTRA:         -10.791
REMARK INTER:                  -9.097
REMARK INTRA:                  -1.694
REMARK UNBOUND:                -1.160
REMARK  Name = 
REMARK  7 active torsions:
REMARK  status: ('A' for Active; 'I' for Inactive)
REMARK    1  A    between atoms: C_2  and  C_20
REMARK    2  A    between atoms: N_3  and  C_4
REMARK    3  A    between atoms: C_4  and  C_5
REMARK    4  A    between atoms: C_8  and  C_9
REMARK    5  A    between atoms: C_9  and  N_10
REMARK    6  A    between atoms: N_10  and  C_11
REMARK    7  A    between atoms: C_11  and  C_12
REMARK                            x       y       z     vdW  Elec       q    Type
REMARK                         _______ _______ _______ _____ _____    ______ ____
ROOT
ATOM      1  C   UNL     1      48.458   8.015  13.349  0.00  0.00    +0.000 A 
ATOM      2  C   UNL     1      47.814   8.663  14.409  0.00  0.00    +0.000 A 
ATOM      3  C   UNL     1      48.436   8.776  15.651  0.00  0.00    +0.000 A 
ATOM      4  C   UNL     1      49.702   8.218  15.877  0.00  0.00    +0.000 A 
ATOM      5  C   UNL     1      50.371   7.626  14.794  0.00  0.00    +0.000 A 
ATOM      6  C   UNL     1      49.756   7.529  13.541  0.00  0.00    +0.000 A 
ENDROOT
BRANCH   1   7
ATOM      7  C   UNL     1      47.775   7.912  12.012  0.00  0.00    +0.000 C 
BRANCH   7  10
ATOM      8  O   UNL     1      44.998   7.628  12.390  0.00  0.00    +0.000 OA
ATOM      9  C   UNL     1      45.658   6.653  12.043  0.00  0.00    +0.000 C 
ATOM     10  N   UNL     1      47.023   6.688  11.918  0.00  0.00    +0.000 N 
ATOM     11  H   UNL     1      47.488   5.929  11.437  0.00  0.00    +0.000 HD
BRANCH   9  12
ATOM     12  C   UNL     1      45.023   5.353  11.788  0.00  0.00    +0.000 A 
ATOM     13  C   UNL     1      44.310   4.723  12.799  0.00  0.00    +0.000 A 
ATOM     14  S   UNL     1      43.667   3.211  12.339  0.00  0.00    +0.000 S 
ATOM     15  C   UNL     1      44.273   3.372  10.757  0.00  0.00    +0.000 A 
ATOM     16  N   UNL     1      44.043   2.413   9.820  0.00  0.00    +0.000 NA
ATOM     17  C   UNL     1      44.519   2.686   8.651  0.00  0.00    +0.000 A 
ATOM     18  N   UNL     1      45.218   3.822   8.338  0.00  0.00    +0.000 N 
ATOM     19  C   UNL     1      45.540   4.778   9.270  0.00  0.00    +0.000 A 
ATOM     20  O   UNL     1      46.279   5.716   8.985  0.00  0.00    +0.000 OA
ATOM     21  C   UNL     1      44.983   4.547  10.590  0.00  0.00    +0.000 A 
ATOM     22  H   UNL     1      45.588   3.964   7.410  0.00  0.00    +0.000 HD
ENDBRANCH   9  12
ENDBRANCH   7  10
ENDBRANCH   1   7
BRANCH   4  23
ATOM     23  C   UNL     1      50.388   8.278  17.227  0.00  0.00    +0.000 C 
BRANCH  23  24
ATOM     24  N   UNL     1      50.756   6.988  17.820  0.00  0.00    +0.000 NA
ATOM     25  H   UNL     1      51.344   7.151  18.635  0.00  0.00    +0.000 HD
BRANCH  24  26
ATOM     26  C   UNL     1      49.601   6.159  18.179  0.00  0.00    +0.000 C 
BRANCH  26  27
ATOM     27  C   UNL     1      49.457   4.989  17.177  0.00  0.00    +0.000 C 
ATOM     28  C   UNL     1      48.109   4.989  16.438  0.00  0.00    +0.000 C 
ATOM     29  C   UNL     1      46.962   4.468  17.300  0.00  0.00    +0.000 C 
ATOM     30  N   UNL     1      47.254   3.137  17.847  0.00  0.00    +0.000 NA
ATOM     31  C   UNL     1      48.459   3.174  18.672  0.00  0.00    +0.000 C 
ATOM     32  C   UNL     1      49.676   3.632  17.870  0.00  0.00    +0.000 C 
ATOM     33  H   UNL     1      47.400   2.490  17.071  0.00  0.00    +0.000 HD
ENDBRANCH  26  27
ENDBRANCH  24  26
ENDBRANCH  23  24
ENDBRANCH   4  23
TORSDOF 7
ENDMDL
MODEL 5
REMARK VINA RESULT:    -6.566      4.420      9.980
REMARK INTER + INTRA:         -10.413
REMARK INTER:                  -9.199
REMARK INTRA:                  -1.214
REMARK UNBOUND:                -1.160
REMARK  Name = 
REMARK  7 active torsions:
REMARK  status: ('A' for Active; 'I' for Inactive)
REMARK    1  A    between atoms: C_2  and  C_20
REMARK    2  A    between atoms: N_3  and  C_4
REMARK    3  A    between atoms: C_4  and  C_5
REMARK    4  A    between atoms: C_8  and  C_9
REMARK    5  A    between atoms: C_9  and  N_10
REMARK    6  A    between atoms: N_10  and  C_11
REMARK    7  A    between atoms: C_11  and  C_12
REMARK                            x       y       z     vdW  Elec       q    Type
REMARK                         _______ _______ _______ _____ _____    ______ ____
ROOT
ATOM      1  C   UNL     1      48.004   4.676  17.712  0.00  0.00    +0.000 A 
ATOM      2  C   UNL     1      49.362   4.982  17.855  0.00  0.00    +0.000 A 
ATOM      3  C   UNL     1      49.813   5.695  18.965  0.00  0.00    +0.000 A 
ATOM      4  C   UNL     1      48.917   6.148  19.943  0.00  0.00    +0.000 A 
ATOM      5  C   UNL     1      47.566   5.783  19.828  0.00  0.00    +0.000 A 
ATOM      6  C   UNL     1      47.115   5.051  18.725  0.00  0.00    +0.000 A 
ENDROOT
BRANCH   1   7
ATOM      7  C   UNL     1      47.538   3.896  16.512  0.00  0.00    +0.000 C 
BRANCH   7  10
ATOM      8  O   UNL     1      46.989   3.212  13.834  0.00  0.00    +0.000 OA
ATOM      9  C   UNL     1      46.733   4.347  14.227  0.00  0.00    +0.000 C 
ATOM     10  N   UNL     1      47.046   4.783  15.489  0.00  0.00    +0.000 N 
ATOM     11  H   UNL     1      46.634   5.645  15.824  0.00  0.00    +0.000 HD
BRANCH   9  12
ATOM     12  C   UNL     1      46.116   5.341  13.340  0.00  0.00    +0.000 A 
ATOM     13  C   UNL     1      46.846   6.452  12.936  0.00  0.00    +0.000 A 
ATOM     14  S   UNL     1      45.967   7.517  11.933  0.00  0.00    +0.000 S 
ATOM     15  C   UNL     1      44.601   6.503  11.960  0.00  0.00    +0.000 A 
ATOM     16  N   UNL     1      43.478   6.822  11.261  0.00  0.00    +0.000 NA
ATOM     17  C   UNL     1      42.537   5.942  11.332  0.00  0.00    +0.000 A 
ATOM     18  N   UNL     1      42.609   4.778  12.051  0.00  0.00    +0.000 N 
ATOM     19  C   UNL     1      43.689   4.453  12.833  0.00  0.00    +0.000 A 
ATOM     20  O   UNL     1      43.665   3.470  13.568  0.00  0.00    +0.000 OA
ATOM     21  C   UNL     1      44.800   5.384  12.748  0.00  0.00    +0.000 A 
ATOM     22  H   UNL     1      41.826   4.143  12.088  0.00  0.00    +0.000 HD
ENDBRANCH   9  12
ENDBRANCH   7  10
ENDBRANCH   1   7
BRANCH   4  23
ATOM     23  C   UNL     1      49.363   6.967  21.137  0.00  0.00    +0.000 C 
BRANCH  23  24
ATOM     24  N   UNL     1      48.641   8.224  21.362  0.00  0.00    +0.000 NA
ATOM     25  H   UNL     1      48.925   8.617  22.257  0.00  0.00    +0.000 HD
BRANCH  24  26
ATOM     26  C   UNL     1      48.828   9.206  20.288  0.00  0.00    +0.000 C 
BRANCH  26  27
ATOM     27  C   UNL     1      47.538   9.317  19.442  0.00  0.00    +0.000 C 
ATOM     28  C   UNL     1      47.803   9.268  17.928  0.00  0.00    +0.000 C 
ATOM     29  C   UNL     1      48.345  10.586  17.380  0.00  0.00    +0.000 C 
ATOM     30  N   UNL     1      47.472  11.717  17.719  0.00  0.00    +0.000 NA
ATOM     31  C   UNL     1      47.340  11.849  19.168  0.00  0.00    +0.000 C 
ATOM     32  C   UNL     1      46.748  10.590  19.796  0.00  0.00    +0.000 C 
ATOM     33  H   UNL     1      46.550  11.550  17.314  0.00  0.00    +0.000 HD
ENDBRANCH  26  27
ENDBRANCH  24  26
ENDBRANCH  23  24
ENDBRANCH   4  23
TORSDOF 7
ENDMDL
MODEL 6
REMARK VINA RESULT:    -6.421      4.404     10.373
REMARK INTER + INTRA:         -10.209
REMARK INTER:                  -9.139
REMARK INTRA:                  -1.069
REMARK UNBOUND:                -1.160
REMARK  Name = 
REMARK  7 active torsions:
REMARK  status: ('A' for Active; 'I' for Inactive)
REMARK    1  A    between atoms: C_2  and  C_20
REMARK    2  A    between atoms: N_3  and  C_4
REMARK    3  A    between atoms: C_4  and  C_5
REMARK    4  A    between atoms: C_8  and  C_9
REMARK    5  A    between atoms: C_9  and  N_10
REMARK    6  A    between atoms: N_10  and  C_11
REMARK    7  A    between atoms: C_11  and  C_12
REMARK                            x       y       z     vdW  Elec       q    Type
REMARK                         _______ _______ _______ _____ _____    ______ ____
ROOT
ATOM      1  C   UNL     1      48.681   3.413  17.184  0.00  0.00    +0.000 A 
ATOM      2  C   UNL     1      49.319   2.182  16.998  0.00  0.00    +0.000 A 
ATOM      3  C   UNL     1      50.679   2.042  17.271  0.00  0.00    +0.000 A 
ATOM      4  C   UNL     1      51.443   3.135  17.706  0.00  0.00    +0.000 A 
ATOM      5  C   UNL     1      50.785   4.350  17.952  0.00  0.00    +0.000 A 
ATOM      6  C   UNL     1      49.416   4.487  17.697  0.00  0.00    +0.000 A 
ENDROOT
BRANCH   1   7
ATOM      7  C   UNL     1      47.210   3.541  16.893  0.00  0.00    +0.000 C 
BRANCH   7  10
ATOM      8  O   UNL     1      47.327   3.155  14.105  0.00  0.00    +0.000 OA
ATOM      9  C   UNL     1      46.979   4.247  14.544  0.00  0.00    +0.000 C 
ATOM     10  N   UNL     1      46.976   4.541  15.883  0.00  0.00    +0.000 N 
ATOM     11  H   UNL     1      46.490   5.371  16.200  0.00  0.00    +0.000 HD
BRANCH   9  12
ATOM     12  C   UNL     1      46.590   5.342  13.646  0.00  0.00    +0.000 A 
ATOM     13  C   UNL     1      47.500   6.350  13.354  0.00  0.00    +0.000 A 
ATOM     14  S   UNL     1      46.873   7.555  12.321  0.00  0.00    +0.000 S 
ATOM     15  C   UNL     1      45.384   6.743  12.186  0.00  0.00    +0.000 A 
ATOM     16  N   UNL     1      44.387   7.236  11.403  0.00  0.00    +0.000 NA
ATOM     17  C   UNL     1      43.330   6.495  11.355  0.00  0.00    +0.000 A 
ATOM     18  N   UNL     1      43.174   5.314  12.030  0.00  0.00    +0.000 N 
ATOM     19  C   UNL     1      44.122   4.818  12.891  0.00  0.00    +0.000 A 
ATOM     20  O   UNL     1      43.895   3.828  13.580  0.00  0.00    +0.000 OA
ATOM     21  C   UNL     1      45.353   5.586  12.943  0.00  0.00    +0.000 A 
ATOM     22  H   UNL     1      42.311   4.794  11.972  0.00  0.00    +0.000 HD
ENDBRANCH   9  12
ENDBRANCH   7  10
ENDBRANCH   1   7
BRANCH   4  23
ATOM     23  C   UNL     1      52.932   3.034  17.965  0.00  0.00    +0.000 C 
BRANCH  23  24
ATOM     24  N   UNL     1      53.324   2.536  19.288  0.00  0.00    +0.000 NA
ATOM     25  H   UNL     1      53.772   1.629  19.184  0.00  0.00    +0.000 HD
BRANCH  24  26
ATOM     26  C   UNL     1      54.196   3.457  20.026  0.00  0.00    +0.000 C 
BRANCH  26  27
ATOM     27  C   UNL     1      53.567   3.797  21.398  0.00  0.00    +0.000 C 
ATOM     28  C   UNL     1      52.243   4.571  21.279  0.00  0.00    +0.000 C 
ATOM     29  C   UNL     1      52.449   6.046  20.943  0.00  0.00    +0.000 C 
ATOM     30  N   UNL     1      53.350   6.701  21.898  0.00  0.00    +0.000 NA
ATOM     31  C   UNL     1      54.659   6.051  21.900  0.00  0.00    +0.000 C 
ATOM     32  C   UNL     1      54.553   4.577  22.285  0.00  0.00    +0.000 C 
ATOM     33  H   UNL     1      52.942   6.633  22.831  0.00  0.00    +0.000 HD
ENDBRANCH  26  27
ENDBRANCH  24  26
ENDBRANCH  23  24
ENDBRANCH   4  23
TORSDOF 7
ENDMDL
MODEL 7
REMARK VINA RESULT:    -6.393      4.776      7.411
REMARK INTER + INTRA:         -10.169
REMARK INTER:                  -9.379
REMARK INTRA:                  -0.790
REMARK UNBOUND:                -1.160
REMARK  Name = 
REMARK  7 active torsions:
REMARK  status: ('A' for Active; 'I' for Inactive)
REMARK    1  A    between atoms: C_2  and  C_20
REMARK    2  A    between atoms: N_3  and  C_4
REMARK    3  A    between atoms: C_4  and  C_5
REMARK    4  A    between atoms: C_8  and  C_9
REMARK    5  A    between atoms: C_9  and  N_10
REMARK    6  A    between atoms: N_10  and  C_11
REMARK    7  A    between atoms: C_11  and  C_12
REMARK                            x       y       z     vdW  Elec       q    Type
REMARK                         _______ _______ _______ _____ _____    ______ ____
ROOT
ATOM      1  C   UNL     1      47.685   8.484  12.428  0.00  0.00    +0.000 A 
ATOM      2  C   UNL     1      48.206   9.736  12.084  0.00  0.00    +0.000 A 
ATOM      3  C   UNL     1      49.510   9.851  11.602  0.00  0.00    +0.000 A 
ATOM      4  C   UNL     1      50.335   8.724  11.481  0.00  0.00    +0.000 A 
ATOM      5  C   UNL     1      49.786   7.464  11.767  0.00  0.00    +0.000 A 
ATOM      6  C   UNL     1      48.473   7.345  12.232  0.00  0.00    +0.000 A 
ENDROOT
BRANCH   1   7
ATOM      7  C   UNL     1      46.272   8.379  12.937  0.00  0.00    +0.000 C 
BRANCH   7  10
ATOM      8  O   UNL     1      44.284   7.666  11.072  0.00  0.00    +0.000 OA
ATOM      9  C   UNL     1      44.832   6.786  11.729  0.00  0.00    +0.000 C 
ATOM     10  N   UNL     1      45.748   7.057  12.714  0.00  0.00    +0.000 N 
ATOM     11  H   UNL     1      46.313   6.299  13.076  0.00  0.00    +0.000 HD
BRANCH   9  12
ATOM     12  C   UNL     1      44.497   5.369  11.538  0.00  0.00    +0.000 A 
ATOM     13  C   UNL     1      43.745   4.703  12.497  0.00  0.00    +0.000 A 
ATOM     14  S   UNL     1      43.473   3.059  12.129  0.00  0.00    +0.000 S 
ATOM     15  C   UNL     1      44.305   3.195  10.651  0.00  0.00    +0.000 A 
ATOM     16  N   UNL     1      44.418   2.131   9.811  0.00  0.00    +0.000 NA
ATOM     17  C   UNL     1      45.032   2.388   8.705  0.00  0.00    +0.000 A 
ATOM     18  N   UNL     1      45.557   3.607   8.368  0.00  0.00    +0.000 N 
ATOM     19  C   UNL     1      45.536   4.686   9.216  0.00  0.00    +0.000 A 
ATOM     20  O   UNL     1      46.132   5.722   8.937  0.00  0.00    +0.000 OA
ATOM     21  C   UNL     1      44.810   4.468  10.454  0.00  0.00    +0.000 A 
ATOM     22  H   UNL     1      46.051   3.736   7.498  0.00  0.00    +0.000 HD
ENDBRANCH   9  12
ENDBRANCH   7  10
ENDBRANCH   1   7
BRANCH   4  23
ATOM     23  C   UNL     1      51.772   8.815  11.008  0.00  0.00    +0.000 C 
BRANCH  23  24
ATOM     24  N   UNL     1      52.550   7.573  11.067  0.00  0.00    +0.000 NA
ATOM     25  H   UNL     1      52.259   7.035  11.880  0.00  0.00    +0.000 HD
BRANCH  24  26
ATOM     26  C   UNL     1      52.445   6.760   9.850  0.00  0.00    +0.000 C 
BRANCH  26  27
ATOM     27  C   UNL     1      53.765   6.839   9.046  0.00  0.00    +0.000 C 
ATOM     28  C   UNL     1      53.749   7.933   7.966  0.00  0.00    +0.000 C 
ATOM     29  C   UNL     1      52.951   7.531   6.728  0.00  0.00    +0.000 C 
ATOM     30  N   UNL     1      53.418   6.257   6.170  0.00  0.00    +0.000 NA
ATOM     31  C   UNL     1      53.293   5.186   7.156  0.00  0.00    +0.000 C 
ATOM     32  C   UNL     1      54.112   5.480   8.412  0.00  0.00    +0.000 C 
ATOM     33  H   UNL     1      54.399   6.356   5.907  0.00  0.00    +0.000 HD
ENDBRANCH  26  27
ENDBRANCH  24  26
ENDBRANCH  23  24
ENDBRANCH   4  23
TORSDOF 7
ENDMDL
MODEL 8
REMARK VINA RESULT:    -6.361      4.031      8.432
REMARK INTER + INTRA:         -10.124
REMARK INTER:                  -8.690
REMARK INTRA:                  -1.434
REMARK UNBOUND:                -1.160
REMARK  Name = 
REMARK  7 active torsions:
REMARK  status: ('A' for Active; 'I' for Inactive)
REMARK    1  A    between atoms: C_2  and  C_20
REMARK    2  A    between atoms: N_3  and  C_4
REMARK    3  A    between atoms: C_4  and  C_5
REMARK    4  A    between atoms: C_8  and  C_9
REMARK    5  A    between atoms: C_9  and  N_10
REMARK    6  A    between atoms: N_10  and  C_11
REMARK    7  A    between atoms: C_11  and  C_12
REMARK                            x       y       z     vdW  Elec       q    Type
REMARK                         _______ _______ _______ _____ _____    ______ ____
ROOT
ATOM      1  C   UNL     1      48.928   8.475  15.533  0.00  0.00    +0.000 A 
ATOM      2  C   UNL     1      49.939   7.702  14.953  0.00  0.00    +0.000 A 
ATOM      3  C   UNL     1      50.776   6.920  15.748  0.00  0.00    +0.000 A 
ATOM      4  C   UNL     1      50.646   6.915  17.144  0.00  0.00    +0.000 A 
ATOM      5  C   UNL     1      49.590   7.642  17.716  0.00  0.00    +0.000 A 
ATOM      6  C   UNL     1      48.737   8.411  16.918  0.00  0.00    +0.000 A 
ENDROOT
BRANCH   1   7
ATOM      7  C   UNL     1      48.028   9.304  14.658  0.00  0.00    +0.000 C 
BRANCH   7  10
ATOM      8  O   UNL     1      47.673   8.700  11.929  0.00  0.00    +0.000 OA
ATOM      9  C   UNL     1      46.927   8.188  12.757  0.00  0.00    +0.000 C 
ATOM     10  N   UNL     1      46.980   8.494  14.093  0.00  0.00    +0.000 N 
ATOM     11  H   UNL     1      46.489   7.900  14.750  0.00  0.00    +0.000 HD
BRANCH   9  12
ATOM     12  C   UNL     1      45.876   7.242  12.358  0.00  0.00    +0.000 A 
ATOM     13  C   UNL     1      44.788   7.691  11.621  0.00  0.00    +0.000 A 
ATOM     14  S   UNL     1      43.652   6.468  11.269  0.00  0.00    +0.000 S 
ATOM     15  C   UNL     1      44.602   5.286  12.043  0.00  0.00    +0.000 A 
ATOM     16  N   UNL     1      44.208   3.985  12.078  0.00  0.00    +0.000 NA
ATOM     17  C   UNL     1      45.046   3.189  12.655  0.00  0.00    +0.000 A 
ATOM     18  N   UNL     1      46.234   3.579  13.214  0.00  0.00    +0.000 N 
ATOM     19  C   UNL     1      46.634   4.891  13.271  0.00  0.00    +0.000 A 
ATOM     20  O   UNL     1      47.639   5.219  13.896  0.00  0.00    +0.000 OA
ATOM     21  C   UNL     1      45.754   5.822  12.590  0.00  0.00    +0.000 A 
ATOM     22  H   UNL     1      46.833   2.911  13.675  0.00  0.00    +0.000 HD
ENDBRANCH   9  12
ENDBRANCH   7  10
ENDBRANCH   1   7
BRANCH   4  23
ATOM     23  C   UNL     1      51.568   6.117  18.044  0.00  0.00    +0.000 C 
BRANCH  23  24
ATOM     24  N   UNL     1      50.984   4.930  18.675  0.00  0.00    +0.000 NA
ATOM     25  H   UNL     1      50.319   5.223  19.387  0.00  0.00    +0.000 HD
BRANCH  24  26
ATOM     26  C   UNL     1      50.345   4.015  17.722  0.00  0.00    +0.000 C 
BRANCH  26  27
ATOM     27  C   UNL     1      49.133   3.320  18.388  0.00  0.00    +0.000 C 
ATOM     28  C   UNL     1      47.981   3.047  17.407  0.00  0.00    +0.000 C 
ATOM     29  C   UNL     1      47.164   4.297  17.092  0.00  0.00    +0.000 C 
ATOM     30  N   UNL     1      46.666   4.944  18.312  0.00  0.00    +0.000 NA
ATOM     31  C   UNL     1      47.776   5.335  19.177  0.00  0.00    +0.000 C 
ATOM     32  C   UNL     1      48.618   4.130  19.591  0.00  0.00    +0.000 C 
ATOM     33  H   UNL     1      46.070   4.282  18.811  0.00  0.00    +0.000 HD
ENDBRANCH  26  27
ENDBRANCH  24  26
ENDBRANCH  23  24
ENDBRANCH   4  23
TORSDOF 7
ENDMDL
MODEL 9
REMARK VINA RESULT:    -6.347      3.817      5.363
REMARK INTER + INTRA:         -10.104
REMARK INTER:                  -8.741
REMARK INTRA:                  -1.363
REMARK UNBOUND:                -1.160
REMARK  Name = 
REMARK  7 active torsions:
REMARK  status: ('A' for Active; 'I' for Inactive)
REMARK    1  A    between atoms: C_2  and  C_20
REMARK    2  A    between atoms: N_3  and  C_4
REMARK    3  A    between atoms: C_4  and  C_5
REMARK    4  A    between atoms: C_8  and  C_9
REMARK    5  A    between atoms: C_9  and  N_10
REMARK    6  A    between atoms: N_10  and  C_11
REMARK    7  A    between atoms: C_11  and  C_12
REMARK                            x       y       z     vdW  Elec       q    Type
REMARK                         _______ _______ _______ _____ _____    ______ ____
ROOT
ATOM      1  C   UNL     1      48.762   7.641  13.962  0.00  0.00    +0.000 A 
ATOM      2  C   UNL     1      48.678   7.134  12.661  0.00  0.00    +0.000 A 
ATOM      3  C   UNL     1      47.606   7.474  11.837  0.00  0.00    +0.000 A 
ATOM      4  C   UNL     1      46.575   8.303  12.302  0.00  0.00    +0.000 A 
ATOM      5  C   UNL     1      46.697   8.860  13.585  0.00  0.00    +0.000 A 
ATOM      6  C   UNL     1      47.782   8.535  14.405  0.00  0.00    +0.000 A 
ENDROOT
BRANCH   1   7
ATOM      7  C   UNL     1      49.932   7.270  14.833  0.00  0.00    +0.000 C 
BRANCH   7  10
ATOM      8  O   UNL     1      48.513   5.090  15.915  0.00  0.00    +0.000 OA
ATOM      9  C   UNL     1      48.897   5.985  16.662  0.00  0.00    +0.000 C 
ATOM     10  N   UNL     1      49.519   7.118  16.204  0.00  0.00    +0.000 N 
ATOM     11  H   UNL     1      49.992   7.718  16.868  0.00  0.00    +0.000 HD
BRANCH   9  12
ATOM     12  C   UNL     1      48.660   5.926  18.111  0.00  0.00    +0.000 A 
ATOM     13  C   UNL     1      48.930   4.754  18.806  0.00  0.00    +0.000 A 
ATOM     14  S   UNL     1      48.570   4.852  20.471  0.00  0.00    +0.000 S 
ATOM     15  C   UNL     1      48.092   6.479  20.329  0.00  0.00    +0.000 A 
ATOM     16  N   UNL     1      47.689   7.187  21.418  0.00  0.00    +0.000 NA
ATOM     17  C   UNL     1      47.401   8.422  21.175  0.00  0.00    +0.000 A 
ATOM     18  N   UNL     1      47.465   9.010  19.939  0.00  0.00    +0.000 N 
ATOM     19  C   UNL     1      47.791   8.314  18.801  0.00  0.00    +0.000 A 
ATOM     20  O   UNL     1      47.710   8.839  17.694  0.00  0.00    +0.000 OA
ATOM     21  C   UNL     1      48.176   6.933  19.025  0.00  0.00    +0.000 A 
ATOM     22  H   UNL     1      47.200   9.974  19.810  0.00  0.00    +0.000 HD
ENDBRANCH   9  12
ENDBRANCH   7  10
ENDBRANCH   1   7
BRANCH   4  23
ATOM     23  C   UNL     1      45.370   8.655  11.453  0.00  0.00    +0.000 C 
BRANCH  23  24
ATOM     24  N   UNL     1      44.180   7.821  11.647  0.00  0.00    +0.000 NA
ATOM     25  H   UNL     1      43.449   8.129  11.009  0.00  0.00    +0.000 HD
BRANCH  24  26
ATOM     26  C   UNL     1      44.437   6.386  11.478  0.00  0.00    +0.000 C 
BRANCH  26  27
ATOM     27  C   UNL     1      44.183   5.643  12.811  0.00  0.00    +0.000 C 
ATOM     28  C   UNL     1      45.415   4.874  13.317  0.00  0.00    +0.000 C 
ATOM     29  C   UNL     1      45.646   3.566  12.565  0.00  0.00    +0.000 C 
ATOM     30  N   UNL     1      44.455   2.709  12.584  0.00  0.00    +0.000 NA
ATOM     31  C   UNL     1      43.320   3.391  11.967  0.00  0.00    +0.000 C 
ATOM     32  C   UNL     1      42.979   4.689  12.696  0.00  0.00    +0.000 C 
ATOM     33  H   UNL     1      44.225   2.491  13.554  0.00  0.00    +0.000 HD
ENDBRANCH  26  27
ENDBRANCH  24  26
ENDBRANCH  23  24
ENDBRANCH   4  23
TORSDOF 7
ENDMDL
