MODEL 1
REMARK VINA RESULT:    -7.906      0.000      0.000
REMARK INTER + INTRA:         -12.562
REMARK INTER:                 -11.372
REMARK INTRA:                  -1.190
REMARK UNBOUND:                -1.190
REMARK  Name = 
REMARK  9 active torsions:
REMARK  status: ('A' for Active; 'I' for Inactive)
REMARK    1  A    between atoms: C_1  and  C_2
REMARK    2  A    between atoms: C_6  and  C_7
REMARK    3  A    between atoms: C_7  and  N_8
REMARK    4  A    between atoms: N_8  and  C_9
REMARK    5  A    between atoms: C_9  and  C_10
REMARK    6  A    between atoms: N_13  and  C_14
REMARK    7  A    between atoms: C_14  and  N_15
REMARK    8  A    between atoms: C_16  and  C_18
REMARK    9  A    between atoms: C_25  and  O_26
REMARK                            x       y       z     vdW  Elec       q    Type
REMARK                         _______ _______ _______ _____ _____    ______ ____
ROOT
ATOM      1  C   UNL     1      43.143   4.041  11.597  0.00  0.00    +0.000 C 
ATOM      2  C   UNL     1      43.024   5.035  12.753  0.00  0.00    +0.000 C 
ATOM      3  C   UNL     1      44.384   5.529  13.238  0.00  0.00    +0.000 C 
ATOM      4  N   UNL     1      45.271   4.415  13.616  0.00  0.00    +0.000 NA
ATOM      5  C   UNL     1      45.450   3.475  12.496  0.00  0.00    +0.000 C 
ATOM      6  C   UNL     1      44.113   2.921  12.002  0.00  0.00    +0.000 C 
ENDROOT
BRANCH   1   7
ATOM      7  C   UNL     1      43.555   4.738  10.279  0.00  0.00    +0.000 C 
BRANCH   7   8
ATOM      8  N   UNL     1      43.844   3.797   9.193  0.00  0.00    +0.000 NA
ATOM      9  H   UNL     1      44.035   2.875   9.589  0.00  0.00    +0.000 HD
BRANCH   8  10
ATOM     10  C   UNL     1      45.033   4.197   8.424  0.00  0.00    +0.000 C 
BRANCH  10  16
ATOM     11  C   UNL     1      47.674   2.339   4.801  0.00  0.00    +0.000 C 
ATOM     12  C   UNL     1      47.047   2.122   6.139  0.00  0.00    +0.000 A 
ATOM     13  C   UNL     1      47.105   0.880   6.769  0.00  0.00    +0.000 A 
ATOM     14  C   UNL     1      46.474   0.722   8.000  0.00  0.00    +0.000 A 
ATOM     15  C   UNL     1      45.804   1.801   8.559  0.00  0.00    +0.000 A 
ATOM     16  C   UNL     1      45.792   3.012   7.873  0.00  0.00    +0.000 A 
ATOM     17  N   UNL     1      46.406   3.180   6.676  0.00  0.00    +0.000 NA
ENDBRANCH  10  16
ENDBRANCH   8  10
ENDBRANCH   7   8
ENDBRANCH   1   7
BRANCH   4  18
ATOM     18  C   UNL     1      46.582   4.908  14.030  0.00  0.00    +0.000 C 
BRANCH  18  19
ATOM     19  N   UNL     1      46.724   6.200  13.450  0.00  0.00    +0.000 N 
ATOM     20  C   UNL     1      47.918   6.855  13.370  0.00  0.00    +0.000 C 
ATOM     21  O   UNL     1      48.978   6.364  13.747  0.00  0.00    +0.000 OA
ATOM     22  H   UNL     1      45.857   6.671  13.237  0.00  0.00    +0.000 HD
BRANCH  20  23
ATOM     23  C   UNL     1      47.864   8.166  12.720  0.00  0.00    +0.000 A 
ATOM     24  C   UNL     1      46.683   8.894  12.710  0.00  0.00    +0.000 A 
ATOM     25  S   UNL     1      46.843  10.424  11.970  0.00  0.00    +0.000 S 
ATOM     26  C   UNL     1      48.477  10.130  11.603  0.00  0.00    +0.000 A 
ATOM     27  N   UNL     1      49.206  11.058  10.956  0.00  0.00    +0.000 NA
ATOM     28  C   UNL     1      50.461  10.661  10.726  0.00  0.00    +0.000 A 
ATOM     29  N   UNL     1      51.019   9.488  11.058  0.00  0.00    +0.000 NA
ATOM     30  C   UNL     1      50.244   8.616  11.703  0.00  0.00    +0.000 A 
ATOM     31  C   UNL     1      48.916   8.886  12.031  0.00  0.00    +0.000 A 
BRANCH  30  32
ATOM     32  O   UNL     1      50.872   7.448  12.020  0.00  0.00    +0.000 OA
ATOM     33  H   UNL     1      51.249   7.672  12.892  0.00  0.00    +0.000 HD
ENDBRANCH  30  32
ENDBRANCH  20  23
ENDBRANCH  18  19
ENDBRANCH   4  18
TORSDOF 8
ENDMDL
MODEL 2
REMARK VINA RESULT:    -7.900      3.332      3.972
REMARK INTER + INTRA:         -12.554
REMARK INTER:                 -11.546
REMARK INTRA:                  -1.008
REMARK UNBOUND:                -1.190
REMARK  Name = 
REMARK  9 active torsions:
REMARK  status: ('A' for Active; 'I' for Inactive)
REMARK    1  A    between atoms: C_1  and  C_2
REMARK    2  A    between atoms: C_6  and  C_7
REMARK    3  A    between atoms: C_7  and  N_8
REMARK    4  A    between atoms: N_8  and  C_9
REMARK    5  A    between atoms: C_9  and  C_10
REMARK    6  A    between atoms: N_13  and  C_14
REMARK    7  A    between atoms: C_14  and  N_15
REMARK    8  A    between atoms: C_16  and  C_18
REMARK    9  A    between atoms: C_25  and  O_26
REMARK                            x       y       z     vdW  Elec       q    Type
REMARK                         _______ _______ _______ _____ _____    ______ ____
ROOT
ATOM      1  C   UNL     1      43.159   4.467  11.730  0.00  0.00    +0.000 C 
ATOM      2  C   UNL     1      43.550   5.427  12.855  0.00  0.00    +0.000 C 
ATOM      3  C   UNL     1      45.044   5.384  13.161  0.00  0.00    +0.000 C 
ATOM      4  N   UNL     1      45.503   4.020  13.475  0.00  0.00    +0.000 NA
ATOM      5  C   UNL     1      45.192   3.088  12.377  0.00  0.00    +0.000 C 
ATOM      6  C   UNL     1      43.695   3.067  12.061  0.00  0.00    +0.000 C 
ENDROOT
BRANCH   1   7
ATOM      7  C   UNL     1      43.634   4.976  10.349  0.00  0.00    +0.000 C 
BRANCH   7   8
ATOM      8  N   UNL     1      43.917   3.895   9.400  0.00  0.00    +0.000 NA
ATOM      9  H   UNL     1      44.253   3.077   9.912  0.00  0.00    +0.000 HD
BRANCH   8  10
ATOM     10  C   UNL     1      44.966   4.270   8.439  0.00  0.00    +0.000 C 
BRANCH  10  16
ATOM     11  C   UNL     1      47.738   2.377   4.934  0.00  0.00    +0.000 C 
ATOM     12  C   UNL     1      47.048   2.167   6.241  0.00  0.00    +0.000 A 
ATOM     13  C   UNL     1      47.056   0.924   6.869  0.00  0.00    +0.000 A 
ATOM     14  C   UNL     1      46.368   0.773   8.070  0.00  0.00    +0.000 A 
ATOM     15  C   UNL     1      45.691   1.861   8.602  0.00  0.00    +0.000 A 
ATOM     16  C   UNL     1      45.730   3.074   7.919  0.00  0.00    +0.000 A 
ATOM     17  N   UNL     1      46.400   3.235   6.752  0.00  0.00    +0.000 NA
ENDBRANCH  10  16
ENDBRANCH   8  10
ENDBRANCH   7   8
ENDBRANCH   1   7
BRANCH   4  18
ATOM     18  C   UNL     1      46.943   3.996  13.718  0.00  0.00    +0.000 C 
BRANCH  18  19
ATOM     19  N   UNL     1      47.162   4.760  14.899  0.00  0.00    +0.000 N 
ATOM     20  C   UNL     1      47.712   4.240  16.034  0.00  0.00    +0.000 C 
ATOM     21  O   UNL     1      48.111   3.082  16.114  0.00  0.00    +0.000 OA
ATOM     22  H   UNL     1      46.743   5.678  14.898  0.00  0.00    +0.000 HD
BRANCH  20  23
ATOM     23  C   UNL     1      47.876   5.189  17.136  0.00  0.00    +0.000 A 
ATOM     24  C   UNL     1      47.208   4.991  18.337  0.00  0.00    +0.000 A 
ATOM     25  S   UNL     1      47.586   6.163  19.517  0.00  0.00    +0.000 S 
ATOM     26  C   UNL     1      48.609   6.990  18.440  0.00  0.00    +0.000 A 
ATOM     27  N   UNL     1      49.252   8.105  18.834  0.00  0.00    +0.000 NA
ATOM     28  C   UNL     1      49.996   8.642  17.862  0.00  0.00    +0.000 A 
ATOM     29  N   UNL     1      50.142   8.198  16.606  0.00  0.00    +0.000 NA
ATOM     30  C   UNL     1      49.482   7.084  16.284  0.00  0.00    +0.000 A 
ATOM     31  C   UNL     1      48.677   6.395  17.189  0.00  0.00    +0.000 A 
BRANCH  30  32
ATOM     32  O   UNL     1      49.680   6.679  14.996  0.00  0.00    +0.000 OA
ATOM     33  H   UNL     1      50.610   6.389  15.035  0.00  0.00    +0.000 HD
ENDBRANCH  30  32
ENDBRANCH  20  23
ENDBRANCH  18  19
ENDBRANCH   4  18
TORSDOF 8
ENDMDL
MODEL 3
REMARK VINA RESULT:    -7.818      4.104      5.477
REMARK INTER + INTRA:         -12.436
REMARK INTER:                 -11.852
REMARK INTRA:                  -0.584
REMARK UNBOUND:                -1.190
REMARK  Name = 
REMARK  9 active torsions:
REMARK  status: ('A' for Active; 'I' for Inactive)
REMARK    1  A    between atoms: C_1  and  C_2
REMARK    2  A    between atoms: C_6  and  C_7
REMARK    3  A    between atoms: C_7  and  N_8
REMARK    4  A    between atoms: N_8  and  C_9
REMARK    5  A    between atoms: C_9  and  C_10
REMARK    6  A    between atoms: N_13  and  C_14
REMARK    7  A    between atoms: C_14  and  N_15
REMARK    8  A    between atoms: C_16  and  C_18
REMARK    9  A    between atoms: C_25  and  O_26
REMARK                            x       y       z     vdW  Elec       q    Type
REMARK                         _______ _______ _______ _____ _____    ______ ____
ROOT
ATOM      1  C   UNL     1      45.150   6.426  11.522  0.00  0.00    +0.000 C 
ATOM      2  C   UNL     1      46.407   6.874  12.268  0.00  0.00    +0.000 C 
ATOM      3  C   UNL     1      47.094   5.722  12.994  0.00  0.00    +0.000 C 
ATOM      4  N   UNL     1      46.177   5.028  13.916  0.00  0.00    +0.000 NA
ATOM      5  C   UNL     1      44.985   4.532  13.206  0.00  0.00    +0.000 C 
ATOM      6  C   UNL     1      44.240   5.662  12.494  0.00  0.00    +0.000 C 
ENDROOT
BRANCH   1   7
ATOM      7  C   UNL     1      45.493   5.603  10.257  0.00  0.00    +0.000 C 
BRANCH   7   8
ATOM      8  N   UNL     1      44.336   4.908   9.687  0.00  0.00    +0.000 NA
ATOM      9  H   UNL     1      43.507   5.120  10.246  0.00  0.00    +0.000 HD
BRANCH   8  10
ATOM     10  C   UNL     1      44.511   3.448   9.702  0.00  0.00    +0.000 C 
BRANCH  10  16
ATOM     11  C   UNL     1      46.896  -0.260   7.673  0.00  0.00    +0.000 C 
ATOM     12  C   UNL     1      46.540   1.189   7.613  0.00  0.00    +0.000 A 
ATOM     13  C   UNL     1      47.069   2.021   6.628  0.00  0.00    +0.000 A 
ATOM     14  C   UNL     1      46.733   3.371   6.638  0.00  0.00    +0.000 A 
ATOM     15  C   UNL     1      45.887   3.850   7.629  0.00  0.00    +0.000 A 
ATOM     16  C   UNL     1      45.395   2.958   8.579  0.00  0.00    +0.000 A 
ATOM     17  N   UNL     1      45.711   1.641   8.577  0.00  0.00    +0.000 NA
ENDBRANCH  10  16
ENDBRANCH   8  10
ENDBRANCH   7   8
ENDBRANCH   1   7
BRANCH   4  18
ATOM     18  C   UNL     1      46.842   3.901  14.564  0.00  0.00    +0.000 C 
BRANCH  18  19
ATOM     19  N   UNL     1      47.512   4.432  15.702  0.00  0.00    +0.000 N 
ATOM     20  C   UNL     1      47.229   4.050  16.981  0.00  0.00    +0.000 C 
ATOM     21  O   UNL     1      46.408   3.179  17.253  0.00  0.00    +0.000 OA
ATOM     22  H   UNL     1      48.107   5.226  15.516  0.00  0.00    +0.000 HD
BRANCH  20  23
ATOM     23  C   UNL     1      48.040   4.695  18.015  0.00  0.00    +0.000 A 
ATOM     24  C   UNL     1      47.479   5.652  18.849  0.00  0.00    +0.000 A 
ATOM     25  S   UNL     1      48.564   6.230  20.033  0.00  0.00    +0.000 S 
ATOM     26  C   UNL     1      49.819   5.255  19.429  0.00  0.00    +0.000 A 
ATOM     27  N   UNL     1      51.036   5.282  20.003  0.00  0.00    +0.000 NA
ATOM     28  C   UNL     1      51.912   4.476  19.395  0.00  0.00    +0.000 A 
ATOM     29  N   UNL     1      51.697   3.698  18.325  0.00  0.00    +0.000 NA
ATOM     30  C   UNL     1      50.467   3.713  17.809  0.00  0.00    +0.000 A 
ATOM     31  C   UNL     1      49.437   4.489  18.338  0.00  0.00    +0.000 A 
BRANCH  30  32
ATOM     32  O   UNL     1      50.311   2.894  16.730  0.00  0.00    +0.000 OA
ATOM     33  H   UNL     1      49.365   2.670  16.804  0.00  0.00    +0.000 HD
ENDBRANCH  30  32
ENDBRANCH  20  23
ENDBRANCH  18  19
ENDBRANCH   4  18
TORSDOF 8
ENDMDL
MODEL 4
REMARK VINA RESULT:    -7.729      2.814      4.753
REMARK INTER + INTRA:         -12.308
REMARK INTER:                 -11.659
REMARK INTRA:                  -0.649
REMARK UNBOUND:                -1.190
REMARK  Name = 
REMARK  9 active torsions:
REMARK  status: ('A' for Active; 'I' for Inactive)
REMARK    1  A    between atoms: C_1  and  C_2
REMARK    2  A    between atoms: C_6  and  C_7
REMARK    3  A    between atoms: C_7  and  N_8
REMARK    4  A    between atoms: N_8  and  C_9
REMARK    5  A    between atoms: C_9  and  C_10
REMARK    6  A    between atoms: N_13  and  C_14
REMARK    7  A    between atoms: C_14  and  N_15
REMARK    8  A    between atoms: C_16  and  C_18
REMARK    9  A    between atoms: C_25  and  O_26
REMARK                            x       y       z     vdW  Elec       q    Type
REMARK                         _______ _______ _______ _____ _____    ______ ____
ROOT
ATOM      1  C   UNL     1      43.638   4.136  11.423  0.00  0.00    +0.000 C 
ATOM      2  C   UNL     1      43.533   5.579  10.928  0.00  0.00    +0.000 C 
ATOM      3  C   UNL     1      44.824   6.362  11.145  0.00  0.00    +0.000 C 
ATOM      4  N   UNL     1      45.252   6.339  12.555  0.00  0.00    +0.000 NA
ATOM      5  C   UNL     1      45.419   4.957  13.036  0.00  0.00    +0.000 C 
ATOM      6  C   UNL     1      44.135   4.142  12.876  0.00  0.00    +0.000 C 
ENDROOT
BRANCH   1   7
ATOM      7  C   UNL     1      44.524   3.271  10.495  0.00  0.00    +0.000 C 
BRANCH   7   8
ATOM      8  N   UNL     1      44.278   3.513   9.070  0.00  0.00    +0.000 NA
ATOM      9  H   UNL     1      44.065   2.626   8.611  0.00  0.00    +0.000 HD
BRANCH   8  10
ATOM     10  C   UNL     1      45.457   4.081   8.399  0.00  0.00    +0.000 C 
BRANCH  10  16
ATOM     11  C   UNL     1      46.933  -0.488   7.694  0.00  0.00    +0.000 C 
ATOM     12  C   UNL     1      46.857   0.904   7.160  0.00  0.00    +0.000 A 
ATOM     13  C   UNL     1      47.460   1.247   5.951  0.00  0.00    +0.000 A 
ATOM     14  C   UNL     1      47.389   2.567   5.516  0.00  0.00    +0.000 A 
ATOM     15  C   UNL     1      46.726   3.502   6.299  0.00  0.00    +0.000 A 
ATOM     16  C   UNL     1      46.145   3.085   7.494  0.00  0.00    +0.000 A 
ATOM     17  N   UNL     1      46.203   1.803   7.926  0.00  0.00    +0.000 NA
ENDBRANCH  10  16
ENDBRANCH   8  10
ENDBRANCH   7   8
ENDBRANCH   1   7
BRANCH   4  18
ATOM     18  C   UNL     1      46.513   7.054  12.730  0.00  0.00    +0.000 C 
BRANCH  18  19
ATOM     19  N   UNL     1      46.949   6.776  14.056  0.00  0.00    +0.000 N 
ATOM     20  C   UNL     1      48.251   6.517  14.375  0.00  0.00    +0.000 C 
ATOM     21  O   UNL     1      49.161   6.552  13.552  0.00  0.00    +0.000 OA
ATOM     22  H   UNL     1      46.211   6.631  14.728  0.00  0.00    +0.000 HD
BRANCH  20  23
ATOM     23  C   UNL     1      48.505   6.275  15.796  0.00  0.00    +0.000 A 
ATOM     24  C   UNL     1      49.022   7.283  16.597  0.00  0.00    +0.000 A 
ATOM     25  S   UNL     1      49.176   6.828  18.234  0.00  0.00    +0.000 S 
ATOM     26  C   UNL     1      48.604   5.262  17.904  0.00  0.00    +0.000 A 
ATOM     27  N   UNL     1      48.496   4.356  18.893  0.00  0.00    +0.000 NA
ATOM     28  C   UNL     1      48.053   3.171  18.461  0.00  0.00    +0.000 A 
ATOM     29  N   UNL     1      47.734   2.827  17.206  0.00  0.00    +0.000 NA
ATOM     30  C   UNL     1      47.858   3.775  16.275  0.00  0.00    +0.000 A 
ATOM     31  C   UNL     1      48.292   5.067  16.567  0.00  0.00    +0.000 A 
BRANCH  30  32
ATOM     32  O   UNL     1      47.510   3.366  15.021  0.00  0.00    +0.000 OA
ATOM     33  H   UNL     1      46.965   2.583  15.227  0.00  0.00    +0.000 HD
ENDBRANCH  30  32
ENDBRANCH  20  23
ENDBRANCH  18  19
ENDBRANCH   4  18
TORSDOF 8
ENDMDL
MODEL 5
REMARK VINA RESULT:    -7.420      4.159      5.652
REMARK INTER + INTRA:         -11.863
REMARK INTER:                 -11.037
REMARK INTRA:                  -0.826
REMARK UNBOUND:                -1.190
REMARK  Name = 
REMARK  9 active torsions:
REMARK  status: ('A' for Active; 'I' for Inactive)
REMARK    1  A    between atoms: C_1  and  C_2
REMARK    2  A    between atoms: C_6  and  C_7
REMARK    3  A    between atoms: C_7  and  N_8
REMARK    4  A    between atoms: N_8  and  C_9
REMARK    5  A    between atoms: C_9  and  C_10
REMARK    6  A    between atoms: N_13  and  C_14
REMARK    7  A    between atoms: C_14  and  N_15
REMARK    8  A    between atoms: C_16  and  C_18
REMARK    9  A    between atoms: C_25  and  O_26
REMARK                            x       y       z     vdW  Elec       q    Type
REMARK                         _______ _______ _______ _____ _____    ______ ____
ROOT
ATOM      1  C   UNL     1      45.312   6.440  11.135  0.00  0.00    +0.000 C 
ATOM      2  C   UNL     1      46.550   7.064  11.783  0.00  0.00    +0.000 C 
ATOM      3  C   UNL     1      47.260   6.099  12.728  0.00  0.00    +0.000 C 
ATOM      4  N   UNL     1      46.352   5.577  13.765  0.00  0.00    +0.000 NA
ATOM      5  C   UNL     1      45.181   4.917  13.163  0.00  0.00    +0.000 C 
ATOM      6  C   UNL     1      44.413   5.861  12.237  0.00  0.00    +0.000 C 
ENDROOT
BRANCH   1   7
ATOM      7  C   UNL     1      45.690   5.392  10.062  0.00  0.00    +0.000 C 
BRANCH   7   8
ATOM      8  N   UNL     1      44.655   4.376   9.856  0.00  0.00    +0.000 NA
ATOM      9  H   UNL     1      44.932   3.513  10.327  0.00  0.00    +0.000 HD
BRANCH   8  10
ATOM     10  C   UNL     1      44.475   4.058   8.431  0.00  0.00    +0.000 C 
BRANCH  10  16
ATOM     11  C   UNL     1      47.623   2.591   5.041  0.00  0.00    +0.000 C 
ATOM     12  C   UNL     1      46.930   2.286   6.327  0.00  0.00    +0.000 A 
ATOM     13  C   UNL     1      47.107   1.063   6.970  0.00  0.00    +0.000 A 
ATOM     14  C   UNL     1      46.410   0.816   8.149  0.00  0.00    +0.000 A 
ATOM     15  C   UNL     1      45.556   1.790   8.646  0.00  0.00    +0.000 A 
ATOM     16  C   UNL     1      45.431   2.991   7.950  0.00  0.00    +0.000 A 
ATOM     17  N   UNL     1      46.108   3.245   6.804  0.00  0.00    +0.000 NA
ENDBRANCH  10  16
ENDBRANCH   8  10
ENDBRANCH   7   8
ENDBRANCH   1   7
BRANCH   4  18
ATOM     18  C   UNL     1      47.040   4.621  14.628  0.00  0.00    +0.000 C 
BRANCH  18  19
ATOM     19  N   UNL     1      47.452   5.347  15.780  0.00  0.00    +0.000 N 
ATOM     20  C   UNL     1      48.296   4.835  16.724  0.00  0.00    +0.000 C 
ATOM     21  O   UNL     1      48.808   3.724  16.631  0.00  0.00    +0.000 OA
ATOM     22  H   UNL     1      46.961   6.214  15.938  0.00  0.00    +0.000 HD
BRANCH  20  23
ATOM     23  C   UNL     1      48.618   5.744  17.825  0.00  0.00    +0.000 A 
ATOM     24  C   UNL     1      48.900   7.079  17.572  0.00  0.00    +0.000 A 
ATOM     25  S   UNL     1      49.178   7.987  18.989  0.00  0.00    +0.000 S 
ATOM     26  C   UNL     1      48.979   6.612  19.969  0.00  0.00    +0.000 A 
ATOM     27  N   UNL     1      49.096   6.708  21.306  0.00  0.00    +0.000 NA
ATOM     28  C   UNL     1      48.933   5.534  21.924  0.00  0.00    +0.000 A 
ATOM     29  N   UNL     1      48.684   4.343  21.361  0.00  0.00    +0.000 NA
ATOM     30  C   UNL     1      48.573   4.320  20.032  0.00  0.00    +0.000 A 
ATOM     31  C   UNL     1      48.701   5.463  19.244  0.00  0.00    +0.000 A 
BRANCH  30  32
ATOM     32  O   UNL     1      48.311   3.083  19.521  0.00  0.00    +0.000 OA
ATOM     33  H   UNL     1      49.156   2.628  19.696  0.00  0.00    +0.000 HD
ENDBRANCH  30  32
ENDBRANCH  20  23
ENDBRANCH  18  19
ENDBRANCH   4  18
TORSDOF 8
ENDMDL
MODEL 6
REMARK VINA RESULT:    -7.325      2.271      3.119
REMARK INTER + INTRA:         -11.726
REMARK INTER:                 -10.827
REMARK INTRA:                  -0.899
REMARK UNBOUND:                -1.190
REMARK  Name = 
REMARK  9 active torsions:
REMARK  status: ('A' for Active; 'I' for Inactive)
REMARK    1  A    between atoms: C_1  and  C_2
REMARK    2  A    between atoms: C_6  and  C_7
REMARK    3  A    between atoms: C_7  and  N_8
REMARK    4  A    between atoms: N_8  and  C_9
REMARK    5  A    between atoms: C_9  and  C_10
REMARK    6  A    between atoms: N_13  and  C_14
REMARK    7  A    between atoms: C_14  and  N_15
REMARK    8  A    between atoms: C_16  and  C_18
REMARK    9  A    between atoms: C_25  and  O_26
REMARK                            x       y       z     vdW  Elec       q    Type
REMARK                         _______ _______ _______ _____ _____    ______ ____
ROOT
ATOM      1  C   UNL     1      43.489   4.001  11.246  0.00  0.00    +0.000 C 
ATOM      2  C   UNL     1      43.554   5.506  10.985  0.00  0.00    +0.000 C 
ATOM      3  C   UNL     1      44.898   6.107  11.385  0.00  0.00    +0.000 C 
ATOM      4  N   UNL     1      45.232   5.821  12.792  0.00  0.00    +0.000 NA
ATOM      5  C   UNL     1      45.235   4.371  13.053  0.00  0.00    +0.000 C 
ATOM      6  C   UNL     1      43.891   3.731  12.703  0.00  0.00    +0.000 C 
ENDROOT
BRANCH   1   7
ATOM      7  C   UNL     1      44.344   3.203  10.234  0.00  0.00    +0.000 C 
BRANCH   7   8
ATOM      8  N   UNL     1      44.291   3.748   8.875  0.00  0.00    +0.000 NA
ATOM      9  H   UNL     1      43.930   3.034   8.240  0.00  0.00    +0.000 HD
BRANCH   8  10
ATOM     10  C   UNL     1      45.624   4.133   8.387  0.00  0.00    +0.000 C 
BRANCH  10  16
ATOM     11  C   UNL     1      46.927  -0.490   7.689  0.00  0.00    +0.000 C 
ATOM     12  C   UNL     1      46.853   0.893   7.130  0.00  0.00    +0.000 A 
ATOM     13  C   UNL     1      47.383   1.194   5.877  0.00  0.00    +0.000 A 
ATOM     14  C   UNL     1      47.319   2.506   5.418  0.00  0.00    +0.000 A 
ATOM     15  C   UNL     1      46.735   3.475   6.222  0.00  0.00    +0.000 A 
ATOM     16  C   UNL     1      46.223   3.100   7.461  0.00  0.00    +0.000 A 
ATOM     17  N   UNL     1      46.276   1.825   7.917  0.00  0.00    +0.000 NA
ENDBRANCH  10  16
ENDBRANCH   8  10
ENDBRANCH   7   8
ENDBRANCH   1   7
BRANCH   4  18
ATOM     18  C   UNL     1      46.542   6.365  13.138  0.00  0.00    +0.000 C 
BRANCH  18  19
ATOM     19  N   UNL     1      46.659   7.600  12.440  0.00  0.00    +0.000 N 
ATOM     20  C   UNL     1      47.424   8.639  12.884  0.00  0.00    +0.000 C 
ATOM     21  O   UNL     1      48.114   8.577  13.897  0.00  0.00    +0.000 OA
ATOM     22  H   UNL     1      46.019   7.718  11.669  0.00  0.00    +0.000 HD
BRANCH  20  23
ATOM     23  C   UNL     1      47.434   9.817  12.015  0.00  0.00    +0.000 A 
ATOM     24  C   UNL     1      48.622  10.265  11.455  0.00  0.00    +0.000 A 
ATOM     25  S   UNL     1      48.413  11.603  10.417  0.00  0.00    +0.000 S 
ATOM     26  C   UNL     1      46.742  11.647  10.729  0.00  0.00    +0.000 A 
ATOM     27  N   UNL     1      45.966  12.578  10.144  0.00  0.00    +0.000 NA
ATOM     28  C   UNL     1      44.684  12.487  10.512  0.00  0.00    +0.000 A 
ATOM     29  N   UNL     1      44.142  11.608  11.366  0.00  0.00    +0.000 NA
ATOM     30  C   UNL     1      44.966  10.709  11.906  0.00  0.00    +0.000 A 
ATOM     31  C   UNL     1      46.328  10.661  11.611  0.00  0.00    +0.000 A 
BRANCH  30  32
ATOM     32  O   UNL     1      44.351   9.838  12.757  0.00  0.00    +0.000 OA
ATOM     33  H   UNL     1      43.697  10.425  13.180  0.00  0.00    +0.000 HD
ENDBRANCH  30  32
ENDBRANCH  20  23
ENDBRANCH  18  19
ENDBRANCH   4  18
TORSDOF 8
ENDMDL
MODEL 7
REMARK VINA RESULT:    -7.227      3.568      8.129
REMARK INTER + INTRA:         -11.585
REMARK INTER:                 -10.484
REMARK INTRA:                  -1.101
REMARK UNBOUND:                -1.190
REMARK  Name = 
REMARK  9 active torsions:
REMARK  status: ('A' for Active; 'I' for Inactive)
REMARK    1  A    between atoms: C_1  and  C_2
REMARK    2  A    between atoms: C_6  and  C_7
REMARK    3  A    between atoms: C_7  and  N_8
REMARK    4  A    between atoms: N_8  and  C_9
REMARK    5  A    between atoms: C_9  and  C_10
REMARK    6  A    between atoms: N_13  and  C_14
REMARK    7  A    between atoms: C_14  and  N_15
REMARK    8  A    between atoms: C_16  and  C_18
REMARK    9  A    between atoms: C_25  and  O_26
REMARK                            x       y       z     vdW  Elec       q    Type
REMARK                         _______ _______ _______ _____ _____    ______ ____
ROOT
ATOM      1  C   UNL     1      49.290   7.919  13.459  0.00  0.00    +0.000 C 
ATOM      2  C   UNL     1      48.518   9.222  13.674  0.00  0.00    +0.000 C 
ATOM      3  C   UNL     1      47.019   9.053  13.449  0.00  0.00    +0.000 C 
ATOM      4  N   UNL     1      46.721   8.500  12.116  0.00  0.00    +0.000 NA
ATOM      5  C   UNL     1      47.406   7.212  11.909  0.00  0.00    +0.000 C 
ATOM      6  C   UNL     1      48.920   7.342  12.085  0.00  0.00    +0.000 C 
ENDROOT
BRANCH   1   7
ATOM      7  C   UNL     1      49.054   6.914  14.610  0.00  0.00    +0.000 C 
BRANCH   7   8
ATOM      8  N   UNL     1      50.180   6.830  15.545  0.00  0.00    +0.000 NA
ATOM      9  H   UNL     1      50.777   6.043  15.283  0.00  0.00    +0.000 HD
BRANCH   8  10
ATOM     10  C   UNL     1      49.729   6.595  16.926  0.00  0.00    +0.000 C 
BRANCH  10  16
ATOM     11  C   UNL     1      50.535   1.812  17.094  0.00  0.00    +0.000 C 
ATOM     12  C   UNL     1      49.544   2.923  17.195  0.00  0.00    +0.000 A 
ATOM     13  C   UNL     1      48.186   2.664  17.373  0.00  0.00    +0.000 A 
ATOM     14  C   UNL     1      47.299   3.735  17.426  0.00  0.00    +0.000 A 
ATOM     15  C   UNL     1      47.791   5.027  17.294  0.00  0.00    +0.000 A 
ATOM     16  C   UNL     1      49.160   5.209  17.122  0.00  0.00    +0.000 A 
ATOM     17  N   UNL     1      50.034   4.175  17.073  0.00  0.00    +0.000 NA
ENDBRANCH  10  16
ENDBRANCH   8  10
ENDBRANCH   7   8
ENDBRANCH   1   7
BRANCH   4  18
ATOM     18  C   UNL     1      45.285   8.303  11.941  0.00  0.00    +0.000 C 
BRANCH  18  19
ATOM     19  N   UNL     1      45.099   6.911  11.708  0.00  0.00    +0.000 N 
ATOM     20  C   UNL     1      43.887   6.360  11.404  0.00  0.00    +0.000 C 
ATOM     21  O   UNL     1      42.867   7.026  11.258  0.00  0.00    +0.000 OA
ATOM     22  H   UNL     1      45.893   6.329  11.930  0.00  0.00    +0.000 HD
BRANCH  20  23
ATOM     23  C   UNL     1      43.903   4.914  11.179  0.00  0.00    +0.000 A 
ATOM     24  C   UNL     1      43.245   4.061  12.054  0.00  0.00    +0.000 A 
ATOM     25  S   UNL     1      43.317   2.424  11.579  0.00  0.00    +0.000 S 
ATOM     26  C   UNL     1      44.269   2.808  10.223  0.00  0.00    +0.000 A 
ATOM     27  N   UNL     1      44.682   1.838   9.387  0.00  0.00    +0.000 NA
ATOM     28  C   UNL     1      45.437   2.306   8.388  0.00  0.00    +0.000 A 
ATOM     29  N   UNL     1      45.799   3.576   8.165  0.00  0.00    +0.000 NA
ATOM     30  C   UNL     1      45.349   4.489   9.028  0.00  0.00    +0.000 A 
ATOM     31  C   UNL     1      44.538   4.164  10.115  0.00  0.00    +0.000 A 
BRANCH  30  32
ATOM     32  O   UNL     1      45.745   5.762   8.742  0.00  0.00    +0.000 OA
ATOM     33  H   UNL     1      44.924   6.256   8.924  0.00  0.00    +0.000 HD
ENDBRANCH  30  32
ENDBRANCH  20  23
ENDBRANCH  18  19
ENDBRANCH   4  18
TORSDOF 8
ENDMDL
MODEL 8
REMARK VINA RESULT:    -7.075      4.794      6.656
REMARK INTER + INTRA:         -11.367
REMARK INTER:                 -10.227
REMARK INTRA:                  -1.140
REMARK UNBOUND:                -1.190
REMARK  Name = 
REMARK  9 active torsions:
REMARK  status: ('A' for Active; 'I' for Inactive)
REMARK    1  A    between atoms: C_1  and  C_2
REMARK    2  A    between atoms: C_6  and  C_7
REMARK    3  A    between atoms: C_7  and  N_8
REMARK    4  A    between atoms: N_8  and  C_9
REMARK    5  A    between atoms: C_9  and  C_10
REMARK    6  A    between atoms: N_13  and  C_14
REMARK    7  A    between atoms: C_14  and  N_15
REMARK    8  A    between atoms: C_16  and  C_18
REMARK    9  A    between atoms: C_25  and  O_26
REMARK                            x       y       z     vdW  Elec       q    Type
REMARK                         _______ _______ _______ _____ _____    ______ ____
ROOT
ATOM      1  C   UNL     1      46.973   6.216  12.202  0.00  0.00    +0.000 C 
ATOM      2  C   UNL     1      47.043   5.111  13.257  0.00  0.00    +0.000 C 
ATOM      3  C   UNL     1      47.363   5.654  14.646  0.00  0.00    +0.000 C 
ATOM      4  N   UNL     1      48.607   6.444  14.655  0.00  0.00    +0.000 NA
ATOM      5  C   UNL     1      48.538   7.554  13.689  0.00  0.00    +0.000 C 
ATOM      6  C   UNL     1      48.258   7.053  12.271  0.00  0.00    +0.000 C 
ENDROOT
BRANCH   1   7
ATOM      7  C   UNL     1      45.695   7.075  12.352  0.00  0.00    +0.000 C 
BRANCH   7   8
ATOM      8  N   UNL     1      44.864   7.091  11.145  0.00  0.00    +0.000 NA
ATOM      9  H   UNL     1      44.460   8.022  11.027  0.00  0.00    +0.000 HD
BRANCH   8  10
ATOM     10  C   UNL     1      43.747   6.138  11.236  0.00  0.00    +0.000 C 
BRANCH  10  16
ATOM     11  C   UNL     1      45.809   3.634   7.626  0.00  0.00    +0.000 C 
ATOM     12  C   UNL     1      45.065   3.592   8.920  0.00  0.00    +0.000 A 
ATOM     13  C   UNL     1      44.655   2.382   9.476  0.00  0.00    +0.000 A 
ATOM     14  C   UNL     1      43.934   2.400  10.666  0.00  0.00    +0.000 A 
ATOM     15  C   UNL     1      43.641   3.620  11.260  0.00  0.00    +0.000 A 
ATOM     16  C   UNL     1      44.087   4.788  10.648  0.00  0.00    +0.000 A 
ATOM     17  N   UNL     1      44.793   4.784   9.492  0.00  0.00    +0.000 NA
ENDBRANCH  10  16
ENDBRANCH   8  10
ENDBRANCH   7   8
ENDBRANCH   1   7
BRANCH   4  18
ATOM     18  C   UNL     1      48.868   6.992  15.983  0.00  0.00    +0.000 C 
BRANCH  18  19
ATOM     19  N   UNL     1      49.945   6.235  16.523  0.00  0.00    +0.000 N 
ATOM     20  C   UNL     1      49.771   5.227  17.427  0.00  0.00    +0.000 C 
ATOM     21  O   UNL     1      48.666   4.857  17.811  0.00  0.00    +0.000 OA
ATOM     22  H   UNL     1      50.866   6.590  16.312  0.00  0.00    +0.000 HD
BRANCH  20  23
ATOM     23  C   UNL     1      50.999   4.552  17.849  0.00  0.00    +0.000 A 
ATOM     24  C   UNL     1      52.011   5.267  18.476  0.00  0.00    +0.000 A 
ATOM     25  S   UNL     1      53.325   4.290  18.955  0.00  0.00    +0.000 S 
ATOM     26  C   UNL     1      52.599   2.902  18.294  0.00  0.00    +0.000 A 
ATOM     27  N   UNL     1      53.220   1.711  18.366  0.00  0.00    +0.000 NA
ATOM     28  C   UNL     1      52.526   0.730  17.780  0.00  0.00    +0.000 A 
ATOM     29  N   UNL     1      51.342   0.827  17.161  0.00  0.00    +0.000 NA
ATOM     30  C   UNL     1      50.777   2.036  17.131  0.00  0.00    +0.000 A 
ATOM     31  C   UNL     1      51.367   3.158  17.711  0.00  0.00    +0.000 A 
BRANCH  30  32
ATOM     32  O   UNL     1      49.571   2.066  16.495  0.00  0.00    +0.000 OA
ATOM     33  H   UNL     1      49.055   1.452  17.051  0.00  0.00    +0.000 HD
ENDBRANCH  30  32
ENDBRANCH  20  23
ENDBRANCH  18  19
ENDBRANCH   4  18
TORSDOF 8
ENDMDL
MODEL 9
REMARK VINA RESULT:    -6.843      4.903      9.571
REMARK INTER + INTRA:         -11.034
REMARK INTER:                  -9.550
REMARK INTRA:                  -1.484
REMARK UNBOUND:                -1.190
REMARK  Name = 
REMARK  9 active torsions:
REMARK  status: ('A' for Active; 'I' for Inactive)
REMARK    1  A    between atoms: C_1  and  C_2
REMARK    2  A    between atoms: C_6  and  C_7
REMARK    3  A    between atoms: C_7  and  N_8
REMARK    4  A    between atoms: N_8  and  C_9
REMARK    5  A    between atoms: C_9  and  C_10
REMARK    6  A    between atoms: N_13  and  C_14
REMARK    7  A    between atoms: C_14  and  N_15
REMARK    8  A    between atoms: C_16  and  C_18
REMARK    9  A    between atoms: C_25  and  O_26
REMARK                            x       y       z     vdW  Elec       q    Type
REMARK                         _______ _______ _______ _____ _____    ______ ____
ROOT
ATOM      1  C   UNL     1      51.492   4.440  17.916  0.00  0.00    +0.000 C 
ATOM      2  C   UNL     1      50.793   5.502  17.067  0.00  0.00    +0.000 C 
ATOM      3  C   UNL     1      49.275   5.356  17.088  0.00  0.00    +0.000 C 
ATOM      4  N   UNL     1      48.845   4.010  16.671  0.00  0.00    +0.000 NA
ATOM      5  C   UNL     1      49.459   2.971  17.516  0.00  0.00    +0.000 C 
ATOM      6  C   UNL     1      50.986   3.053  17.494  0.00  0.00    +0.000 C 
ENDROOT
BRANCH   1   7
ATOM      7  C   UNL     1      51.313   4.703  19.430  0.00  0.00    +0.000 C 
BRANCH   7   8
ATOM      8  N   UNL     1      51.856   5.994  19.861  0.00  0.00    +0.000 NA
ATOM      9  H   UNL     1      52.744   5.842  20.343  0.00  0.00    +0.000 HD
BRANCH   8  10
ATOM     10  C   UNL     1      50.959   6.680  20.803  0.00  0.00    +0.000 C 
BRANCH  10  16
ATOM     11  C   UNL     1      49.273  10.057  17.753  0.00  0.00    +0.000 C 
ATOM     12  C   UNL     1      48.958   8.919  18.667  0.00  0.00    +0.000 A 
ATOM     13  C   UNL     1      47.641   8.538  18.915  0.00  0.00    +0.000 A 
ATOM     14  C   UNL     1      47.400   7.493  19.803  0.00  0.00    +0.000 A 
ATOM     15  C   UNL     1      48.475   6.868  20.418  0.00  0.00    +0.000 A 
ATOM     16  C   UNL     1      49.764   7.301  20.119  0.00  0.00    +0.000 A 
ATOM     17  N   UNL     1      50.012   8.314  19.253  0.00  0.00    +0.000 NA
ENDBRANCH  10  16
ENDBRANCH   8  10
ENDBRANCH   7   8
ENDBRANCH   1   7
BRANCH   4  18
ATOM     18  C   UNL     1      47.393   3.878  16.745  0.00  0.00    +0.000 C 
BRANCH  18  19
ATOM     19  N   UNL     1      46.869   4.612  15.643  0.00  0.00    +0.000 N 
ATOM     20  C   UNL     1      46.901   4.153  14.358  0.00  0.00    +0.000 C 
ATOM     21  O   UNL     1      47.339   3.048  14.053  0.00  0.00    +0.000 OA
ATOM     22  H   UNL     1      46.608   5.565  15.848  0.00  0.00    +0.000 HD
BRANCH  20  23
ATOM     23  C   UNL     1      46.294   5.042  13.366  0.00  0.00    +0.000 A 
ATOM     24  C   UNL     1      46.641   6.385  13.325  0.00  0.00    +0.000 A 
ATOM     25  S   UNL     1      45.883   7.236  12.055  0.00  0.00    +0.000 S 
ATOM     26  C   UNL     1      45.037   5.846  11.562  0.00  0.00    +0.000 A 
ATOM     27  N   UNL     1      44.196   5.899  10.513  0.00  0.00    +0.000 NA
ATOM     28  C   UNL     1      43.596   4.728  10.273  0.00  0.00    +0.000 A 
ATOM     29  N   UNL     1      43.746   3.581  10.949  0.00  0.00    +0.000 NA
ATOM     30  C   UNL     1      44.600   3.597  11.974  0.00  0.00    +0.000 A 
ATOM     31  C   UNL     1      45.316   4.735  12.343  0.00  0.00    +0.000 A 
BRANCH  30  32
ATOM     32  O   UNL     1      44.715   2.398  12.615  0.00  0.00    +0.000 OA
ATOM     33  H   UNL     1      45.681   2.347  12.739  0.00  0.00    +0.000 HD
ENDBRANCH  30  32
ENDBRANCH  20  23
ENDBRANCH  18  19
ENDBRANCH   4  18
TORSDOF 8
ENDMDL
