MODEL 1
REMARK VINA RESULT:    -7.479      0.000      0.000
REMARK INTER + INTRA:         -11.458
REMARK INTER:                 -10.540
REMARK INTRA:                  -0.918
REMARK UNBOUND:                -0.918
REMARK  Name = 
REMARK  8 active torsions:
REMARK  status: ('A' for Active; 'I' for Inactive)
REMARK    1  A    between atoms: C_1  and  C_2
REMARK    2  A    between atoms: C_2  and  O_3
REMARK    3  A    between atoms: O_3  and  N_4
REMARK    4  A    between atoms: C_5  and  C_21
REMARK    5  A    between atoms: N_6  and  C_7
REMARK    6  A    between atoms: C_7  and  C_8
REMARK    7  A    between atoms: C_11  and  C_12
REMARK    8  A    between atoms: C_12  and  N_13
REMARK                            x       y       z     vdW  Elec       q    Type
REMARK                         _______ _______ _______ _____ _____    ______ ____
ROOT
ATOM      1  N   UNL     1      47.410   4.195  15.039  0.00  0.00    +0.000 NA
ATOM      2  C   UNL     1      47.447   5.464  14.734  0.00  0.00    +0.000 C 
ATOM      3  N   UNL     1      46.499   6.019  13.908  0.00  0.00    +0.000 N 
ATOM      4  H   UNL     1      46.358   7.023  13.961  0.00  0.00    +0.000 HD
ENDROOT
BRANCH   2   5
ATOM      5  C   UNL     1      48.507   6.408  15.143  0.00  0.00    +0.000 A 
ATOM      6  C   UNL     1      48.785   6.680  16.476  0.00  0.00    +0.000 A 
ATOM      7  S   UNL     1      50.097   7.745  16.715  0.00  0.00    +0.000 S 
ATOM      8  C   UNL     1      50.379   7.852  15.044  0.00  0.00    +0.000 A 
ATOM      9  N   UNL     1      51.430   8.573  14.564  0.00  0.00    +0.000 NA
ATOM     10  C   UNL     1      51.534   8.565  13.276  0.00  0.00    +0.000 A 
ATOM     11  N   UNL     1      50.664   7.929  12.427  0.00  0.00    +0.000 N 
ATOM     12  C   UNL     1      49.576   7.210  12.869  0.00  0.00    +0.000 A 
ATOM     13  O   UNL     1      48.810   6.669  12.079  0.00  0.00    +0.000 OA
ATOM     14  C   UNL     1      49.453   7.131  14.316  0.00  0.00    +0.000 A 
ATOM     15  H   UNL     1      50.791   7.977  11.428  0.00  0.00    +0.000 HD
ENDBRANCH   2   5
BRANCH   1  16
ATOM     16  O   UNL     1      48.424   3.769  15.904  0.00  0.00    +0.000 OA
BRANCH  16  18
ATOM     17  C   UNL     1      48.736   3.191  18.197  0.00  0.00    +0.000 C 
ATOM     18  C   UNL     1      47.820   3.078  16.996  0.00  0.00    +0.000 C 
ENDBRANCH  16  18
ENDBRANCH   1  16
BRANCH   3  19
ATOM     19  C   UNL     1      45.280   5.294  13.598  0.00  0.00    +0.000 C 
BRANCH  19  20
ATOM     20  C   UNL     1      45.275   4.871  12.149  0.00  0.00    +0.000 A 
ATOM     21  C   UNL     1      45.713   5.751  11.152  0.00  0.00    +0.000 A 
ATOM     22  C   UNL     1      45.698   5.367   9.808  0.00  0.00    +0.000 A 
ATOM     23  C   UNL     1      45.239   4.098   9.431  0.00  0.00    +0.000 A 
ATOM     24  C   UNL     1      44.793   3.220  10.429  0.00  0.00    +0.000 A 
ATOM     25  C   UNL     1      44.805   3.602  11.775  0.00  0.00    +0.000 A 
BRANCH  23  26
ATOM     26  C   UNL     1      45.158   3.711   7.971  0.00  0.00    +0.000 C 
BRANCH  26  27
ATOM     27  N   UNL     1      46.358   3.026   7.438  0.00  0.00    +0.000 NA
ATOM     28  C   UNL     1      46.354   1.600   7.810  0.00  0.00    +0.000 C 
ATOM     29  C   UNL     1      47.485   0.807   7.150  0.00  0.00    +0.000 C 
ATOM     30  C   UNL     1      47.459   0.968   5.637  0.00  0.00    +0.000 C 
ATOM     31  C   UNL     1      47.521   2.447   5.289  0.00  0.00    +0.000 C 
ATOM     32  C   UNL     1      46.394   3.217   5.976  0.00  0.00    +0.000 C 
ENDBRANCH  26  27
ENDBRANCH  23  26
ENDBRANCH  19  20
ENDBRANCH   3  19
TORSDOF 7
ENDMDL
MODEL 2
REMARK VINA RESULT:    -7.304      2.565      4.957
REMARK INTER + INTRA:         -11.211
REMARK INTER:                 -10.321
REMARK INTRA:                  -0.890
REMARK UNBOUND:                -0.918
REMARK  Name = 
REMARK  8 active torsions:
REMARK  status: ('A' for Active; 'I' for Inactive)
REMARK    1  A    between atoms: C_1  and  C_2
REMARK    2  A    between atoms: C_2  and  O_3
REMARK    3  A    between atoms: O_3  and  N_4
REMARK    4  A    between atoms: C_5  and  C_21
REMARK    5  A    between atoms: N_6  and  C_7
REMARK    6  A    between atoms: C_7  and  C_8
REMARK    7  A    between atoms: C_11  and  C_12
REMARK    8  A    between atoms: C_12  and  N_13
REMARK                            x       y       z     vdW  Elec       q    Type
REMARK                         _______ _______ _______ _____ _____    ______ ____
ROOT
ATOM      1  N   UNL     1      44.575   6.887  11.113  0.00  0.00    +0.000 NA
ATOM      2  C   UNL     1      45.579   6.091  11.368  0.00  0.00    +0.000 C 
ATOM      3  N   UNL     1      45.638   4.832  10.819  0.00  0.00    +0.000 N 
ATOM      4  H   UNL     1      46.548   4.387  10.761  0.00  0.00    +0.000 HD
ENDROOT
BRANCH   2   5
ATOM      5  C   UNL     1      46.684   6.387  12.302  0.00  0.00    +0.000 A 
ATOM      6  C   UNL     1      47.582   7.424  12.085  0.00  0.00    +0.000 A 
ATOM      7  S   UNL     1      48.732   7.627  13.330  0.00  0.00    +0.000 S 
ATOM      8  C   UNL     1      48.048   6.364  14.235  0.00  0.00    +0.000 A 
ATOM      9  N   UNL     1      48.533   6.056  15.471  0.00  0.00    +0.000 NA
ATOM     10  C   UNL     1      47.918   5.081  16.053  0.00  0.00    +0.000 A 
ATOM     11  N   UNL     1      46.886   4.367  15.499  0.00  0.00    +0.000 N 
ATOM     12  C   UNL     1      46.382   4.628  14.245  0.00  0.00    +0.000 A 
ATOM     13  O   UNL     1      45.470   3.957  13.775  0.00  0.00    +0.000 OA
ATOM     14  C   UNL     1      46.996   5.763  13.573  0.00  0.00    +0.000 A 
ATOM     15  H   UNL     1      46.460   3.603  16.001  0.00  0.00    +0.000 HD
ENDBRANCH   2   5
BRANCH   1  16
ATOM     16  O   UNL     1      44.654   8.144  11.721  0.00  0.00    +0.000 OA
BRANCH  16  18
ATOM     17  C   UNL     1      42.964   9.528  10.761  0.00  0.00    +0.000 C 
ATOM     18  C   UNL     1      44.428   9.139  10.723  0.00  0.00    +0.000 C 
ENDBRANCH  16  18
ENDBRANCH   1  16
BRANCH   3  19
ATOM     19  C   UNL     1      44.760   4.466   9.723  0.00  0.00    +0.000 C 
BRANCH  19  20
ATOM     20  C   UNL     1      45.508   3.643   8.703  0.00  0.00    +0.000 A 
ATOM     21  C   UNL     1      46.194   4.267   7.654  0.00  0.00    +0.000 A 
ATOM     22  C   UNL     1      46.877   3.507   6.700  0.00  0.00    +0.000 A 
ATOM     23  C   UNL     1      46.885   2.108   6.771  0.00  0.00    +0.000 A 
ATOM     24  C   UNL     1      46.191   1.483   7.817  0.00  0.00    +0.000 A 
ATOM     25  C   UNL     1      45.505   2.241   8.772  0.00  0.00    +0.000 A 
BRANCH  23  26
ATOM     26  C   UNL     1      47.566   1.286   5.699  0.00  0.00    +0.000 C 
BRANCH  26  27
ATOM     27  N   UNL     1      46.650   0.573   4.779  0.00  0.00    +0.000 NA
ATOM     28  C   UNL     1      46.429   1.357   3.551  0.00  0.00    +0.000 C 
ATOM     29  C   UNL     1      45.621   0.598   2.495  0.00  0.00    +0.000 C 
ATOM     30  C   UNL     1      46.265  -0.742   2.170  0.00  0.00    +0.000 C 
ATOM     31  C   UNL     1      46.426  -1.546   3.450  0.00  0.00    +0.000 C 
ATOM     32  C   UNL     1      47.218  -0.757   4.493  0.00  0.00    +0.000 C 
ENDBRANCH  26  27
ENDBRANCH  23  26
ENDBRANCH  19  20
ENDBRANCH   3  19
TORSDOF 7
ENDMDL
MODEL 3
REMARK VINA RESULT:    -6.980      3.581      9.365
REMARK INTER + INTRA:         -10.754
REMARK INTER:                  -9.493
REMARK INTRA:                  -1.261
REMARK UNBOUND:                -0.918
REMARK  Name = 
REMARK  8 active torsions:
REMARK  status: ('A' for Active; 'I' for Inactive)
REMARK    1  A    between atoms: C_1  and  C_2
REMARK    2  A    between atoms: C_2  and  O_3
REMARK    3  A    between atoms: O_3  and  N_4
REMARK    4  A    between atoms: C_5  and  C_21
REMARK    5  A    between atoms: N_6  and  C_7
REMARK    6  A    between atoms: C_7  and  C_8
REMARK    7  A    between atoms: C_11  and  C_12
REMARK    8  A    between atoms: C_12  and  N_13
REMARK                            x       y       z     vdW  Elec       q    Type
REMARK                         _______ _______ _______ _____ _____    ______ ____
ROOT
ATOM      1  N   UNL     1      45.715   7.986  11.888  0.00  0.00    +0.000 NA
ATOM      2  C   UNL     1      46.255   6.820  11.657  0.00  0.00    +0.000 C 
ATOM      3  N   UNL     1      47.538   6.543  12.066  0.00  0.00    +0.000 N 
ATOM      4  H   UNL     1      47.798   5.568  12.174  0.00  0.00    +0.000 HD
ENDROOT
BRANCH   2   5
ATOM      5  C   UNL     1      45.626   5.728  10.887  0.00  0.00    +0.000 A 
ATOM      6  C   UNL     1      45.845   5.556   9.527  0.00  0.00    +0.000 A 
ATOM      7  S   UNL     1      45.074   4.187   8.861  0.00  0.00    +0.000 S 
ATOM      8  C   UNL     1      44.451   3.739  10.375  0.00  0.00    +0.000 A 
ATOM      9  N   UNL     1      43.733   2.589  10.517  0.00  0.00    +0.000 NA
ATOM     10  C   UNL     1      43.324   2.365  11.721  0.00  0.00    +0.000 A 
ATOM     11  N   UNL     1      43.541   3.201  12.787  0.00  0.00    +0.000 N 
ATOM     12  C   UNL     1      44.239   4.383  12.684  0.00  0.00    +0.000 A 
ATOM     13  O   UNL     1      44.398   5.113  13.656  0.00  0.00    +0.000 OA
ATOM     14  C   UNL     1      44.780   4.649  11.360  0.00  0.00    +0.000 A 
ATOM     15  H   UNL     1      43.179   2.975  13.701  0.00  0.00    +0.000 HD
ENDBRANCH   2   5
BRANCH   1  16
ATOM     16  O   UNL     1      44.399   8.123  11.435  0.00  0.00    +0.000 OA
BRANCH  16  18
ATOM     17  C   UNL     1      45.055  10.375  11.870  0.00  0.00    +0.000 C 
ATOM     18  C   UNL     1      44.214   9.468  10.995  0.00  0.00    +0.000 C 
ENDBRANCH  16  18
ENDBRANCH   1  16
BRANCH   3  19
ATOM     19  C   UNL     1      48.211   7.413  13.014  0.00  0.00    +0.000 C 
BRANCH  19  20
ATOM     20  C   UNL     1      48.409   6.703  14.330  0.00  0.00    +0.000 A 
ATOM     21  C   UNL     1      49.406   7.124  15.220  0.00  0.00    +0.000 A 
ATOM     22  C   UNL     1      49.600   6.461  16.435  0.00  0.00    +0.000 A 
ATOM     23  C   UNL     1      48.809   5.358  16.784  0.00  0.00    +0.000 A 
ATOM     24  C   UNL     1      47.817   4.932  15.889  0.00  0.00    +0.000 A 
ATOM     25  C   UNL     1      47.621   5.593  14.672  0.00  0.00    +0.000 A 
BRANCH  23  26
ATOM     26  C   UNL     1      49.068   4.600  18.067  0.00  0.00    +0.000 C 
BRANCH  26  27
ATOM     27  N   UNL     1      48.898   5.391  19.307  0.00  0.00    +0.000 NA
ATOM     28  C   UNL     1      47.530   5.930  19.398  0.00  0.00    +0.000 C 
ATOM     29  C   UNL     1      47.247   6.620  20.736  0.00  0.00    +0.000 C 
ATOM     30  C   UNL     1      47.538   5.690  21.905  0.00  0.00    +0.000 C 
ATOM     31  C   UNL     1      48.973   5.197  21.810  0.00  0.00    +0.000 C 
ATOM     32  C   UNL     1      49.233   4.532  20.458  0.00  0.00    +0.000 C 
ENDBRANCH  26  27
ENDBRANCH  23  26
ENDBRANCH  19  20
ENDBRANCH   3  19
TORSDOF 7
ENDMDL
MODEL 4
REMARK VINA RESULT:    -6.915      2.724      4.356
REMARK INTER + INTRA:         -10.663
REMARK INTER:                  -9.816
REMARK INTRA:                  -0.847
REMARK UNBOUND:                -0.918
REMARK  Name = 
REMARK  8 active torsions:
REMARK  status: ('A' for Active; 'I' for Inactive)
REMARK    1  A    between atoms: C_1  and  C_2
REMARK    2  A    between atoms: C_2  and  O_3
REMARK    3  A    between atoms: O_3  and  N_4
REMARK    4  A    between atoms: C_5  and  C_21
REMARK    5  A    between atoms: N_6  and  C_7
REMARK    6  A    between atoms: C_7  and  C_8
REMARK    7  A    between atoms: C_11  and  C_12
REMARK    8  A    between atoms: C_12  and  N_13
REMARK                            x       y       z     vdW  Elec       q    Type
REMARK                         _______ _______ _______ _____ _____    ______ ____
ROOT
ATOM      1  N   UNL     1      50.003   6.564  15.440  0.00  0.00    +0.000 NA
ATOM      2  C   UNL     1      48.869   6.020  15.793  0.00  0.00    +0.000 C 
ATOM      3  N   UNL     1      47.727   6.231  15.057  0.00  0.00    +0.000 N 
ATOM      4  H   UNL     1      46.975   5.556  15.151  0.00  0.00    +0.000 HD
ENDROOT
BRANCH   2   5
ATOM      5  C   UNL     1      48.652   5.218  17.014  0.00  0.00    +0.000 A 
ATOM      6  C   UNL     1      48.534   3.835  16.983  0.00  0.00    +0.000 A 
ATOM      7  S   UNL     1      48.361   3.113  18.520  0.00  0.00    +0.000 S 
ATOM      8  C   UNL     1      48.483   4.617  19.296  0.00  0.00    +0.000 A 
ATOM      9  N   UNL     1      48.476   4.698  20.656  0.00  0.00    +0.000 NA
ATOM     10  C   UNL     1      48.582   5.900  21.116  0.00  0.00    +0.000 A 
ATOM     11  N   UNL     1      48.662   7.028  20.340  0.00  0.00    +0.000 N 
ATOM     12  C   UNL     1      48.648   6.995  18.964  0.00  0.00    +0.000 A 
ATOM     13  O   UNL     1      48.703   8.026  18.303  0.00  0.00    +0.000 OA
ATOM     14  C   UNL     1      48.598   5.657  18.395  0.00  0.00    +0.000 A 
ATOM     15  H   UNL     1      48.725   7.942  20.764  0.00  0.00    +0.000 HD
ENDBRANCH   2   5
BRANCH   1  16
ATOM     16  O   UNL     1      51.087   6.248  16.266  0.00  0.00    +0.000 OA
BRANCH  16  18
ATOM     17  C   UNL     1      52.351   7.282  18.004  0.00  0.00    +0.000 C 
ATOM     18  C   UNL     1      51.742   7.462  16.628  0.00  0.00    +0.000 C 
ENDBRANCH  16  18
ENDBRANCH   1  16
BRANCH   3  19
ATOM     19  C   UNL     1      47.805   6.805  13.726  0.00  0.00    +0.000 C 
BRANCH  19  20
ATOM     20  C   UNL     1      46.831   6.120  12.800  0.00  0.00    +0.000 A 
ATOM     21  C   UNL     1      46.403   6.753  11.626  0.00  0.00    +0.000 A 
ATOM     22  C   UNL     1      45.491   6.126  10.772  0.00  0.00    +0.000 A 
ATOM     23  C   UNL     1      44.982   4.857  11.076  0.00  0.00    +0.000 A 
ATOM     24  C   UNL     1      45.405   4.226  12.254  0.00  0.00    +0.000 A 
ATOM     25  C   UNL     1      46.316   4.851  13.112  0.00  0.00    +0.000 A 
BRANCH  23  26
ATOM     26  C   UNL     1      43.942   4.211  10.186  0.00  0.00    +0.000 C 
BRANCH  26  27
ATOM     27  N   UNL     1      44.485   3.491   9.011  0.00  0.00    +0.000 NA
ATOM     28  C   UNL     1      45.518   4.297   8.336  0.00  0.00    +0.000 C 
ATOM     29  C   UNL     1      46.229   3.539   7.212  0.00  0.00    +0.000 C 
ATOM     30  C   UNL     1      46.816   2.230   7.720  0.00  0.00    +0.000 C 
ATOM     31  C   UNL     1      45.714   1.400   8.359  0.00  0.00    +0.000 C 
ATOM     32  C   UNL     1      45.008   2.188   9.463  0.00  0.00    +0.000 C 
ENDBRANCH  26  27
ENDBRANCH  23  26
ENDBRANCH  19  20
ENDBRANCH   3  19
TORSDOF 7
ENDMDL
MODEL 5
REMARK VINA RESULT:    -6.891      2.471      4.473
REMARK INTER + INTRA:         -10.629
REMARK INTER:                  -9.769
REMARK INTRA:                  -0.860
REMARK UNBOUND:                -0.918
REMARK  Name = 
REMARK  8 active torsions:
REMARK  status: ('A' for Active; 'I' for Inactive)
REMARK    1  A    between atoms: C_1  and  C_2
REMARK    2  A    between atoms: C_2  and  O_3
REMARK    3  A    between atoms: O_3  and  N_4
REMARK    4  A    between atoms: C_5  and  C_21
REMARK    5  A    between atoms: N_6  and  C_7
REMARK    6  A    between atoms: C_7  and  C_8
REMARK    7  A    between atoms: C_11  and  C_12
REMARK    8  A    between atoms: C_12  and  N_13
REMARK                            x       y       z     vdW  Elec       q    Type
REMARK                         _______ _______ _______ _____ _____    ______ ____
ROOT
ATOM      1  N   UNL     1      50.388   7.615  15.399  0.00  0.00    +0.000 NA
ATOM      2  C   UNL     1      49.222   7.222  15.836  0.00  0.00    +0.000 C 
ATOM      3  N   UNL     1      48.216   6.888  14.960  0.00  0.00    +0.000 N 
ATOM      4  H   UNL     1      47.473   6.289  15.303  0.00  0.00    +0.000 HD
ENDROOT
BRANCH   2   5
ATOM      5  C   UNL     1      48.818   7.170  17.255  0.00  0.00    +0.000 A 
ATOM      6  C   UNL     1      48.177   8.229  17.885  0.00  0.00    +0.000 A 
ATOM      7  S   UNL     1      47.740   7.919  19.506  0.00  0.00    +0.000 S 
ATOM      8  C   UNL     1      48.349   6.336  19.420  0.00  0.00    +0.000 A 
ATOM      9  N   UNL     1      48.227   5.489  20.480  0.00  0.00    +0.000 NA
ATOM     10  C   UNL     1      48.726   4.315  20.279  0.00  0.00    +0.000 A 
ATOM     11  N   UNL     1      49.363   3.924  19.129  0.00  0.00    +0.000 N 
ATOM     12  C   UNL     1      49.531   4.755  18.045  0.00  0.00    +0.000 A 
ATOM     13  O   UNL     1      50.121   4.376  17.039  0.00  0.00    +0.000 OA
ATOM     14  C   UNL     1      48.925   6.069  18.194  0.00  0.00    +0.000 A 
ATOM     15  H   UNL     1      49.748   2.995  19.043  0.00  0.00    +0.000 HD
ENDBRANCH   2   5
BRANCH   1  16
ATOM     16  O   UNL     1      51.323   7.903  16.399  0.00  0.00    +0.000 OA
BRANCH  16  18
ATOM     17  C   UNL     1      52.866   6.617  17.684  0.00  0.00    +0.000 C 
ATOM     18  C   UNL     1      52.398   6.972  16.288  0.00  0.00    +0.000 C 
ENDBRANCH  16  18
ENDBRANCH   1  16
BRANCH   3  19
ATOM     19  C   UNL     1      48.507   6.676  13.553  0.00  0.00    +0.000 C 
BRANCH  19  20
ATOM     20  C   UNL     1      47.279   6.177  12.833  0.00  0.00    +0.000 A 
ATOM     21  C   UNL     1      46.685   4.963  13.201  0.00  0.00    +0.000 A 
ATOM     22  C   UNL     1      45.555   4.492  12.527  0.00  0.00    +0.000 A 
ATOM     23  C   UNL     1      44.997   5.219  11.467  0.00  0.00    +0.000 A 
ATOM     24  C   UNL     1      45.596   6.431  11.094  0.00  0.00    +0.000 A 
ATOM     25  C   UNL     1      46.729   6.905  11.765  0.00  0.00    +0.000 A 
BRANCH  23  26
ATOM     26  C   UNL     1      43.816   4.673  10.695  0.00  0.00    +0.000 C 
BRANCH  26  27
ATOM     27  N   UNL     1      44.167   3.884   9.492  0.00  0.00    +0.000 NA
ATOM     28  C   UNL     1      45.337   4.464   8.809  0.00  0.00    +0.000 C 
ATOM     29  C   UNL     1      45.844   3.599   7.653  0.00  0.00    +0.000 C 
ATOM     30  C   UNL     1      46.142   2.181   8.118  0.00  0.00    +0.000 C 
ATOM     31  C   UNL     1      44.899   1.593   8.767  0.00  0.00    +0.000 C 
ATOM     32  C   UNL     1      44.403   2.487   9.903  0.00  0.00    +0.000 C 
ENDBRANCH  26  27
ENDBRANCH  23  26
ENDBRANCH  19  20
ENDBRANCH   3  19
TORSDOF 7
ENDMDL
MODEL 6
REMARK VINA RESULT:    -6.808      2.965      4.882
REMARK INTER + INTRA:         -10.512
REMARK INTER:                  -9.412
REMARK INTRA:                  -1.100
REMARK UNBOUND:                -0.918
REMARK  Name = 
REMARK  8 active torsions:
REMARK  status: ('A' for Active; 'I' for Inactive)
REMARK    1  A    between atoms: C_1  and  C_2
REMARK    2  A    between atoms: C_2  and  O_3
REMARK    3  A    between atoms: O_3  and  N_4
REMARK    4  A    between atoms: C_5  and  C_21
REMARK    5  A    between atoms: N_6  and  C_7
REMARK    6  A    between atoms: C_7  and  C_8
REMARK    7  A    between atoms: C_11  and  C_12
REMARK    8  A    between atoms: C_12  and  N_13
REMARK                            x       y       z     vdW  Elec       q    Type
REMARK                         _______ _______ _______ _____ _____    ______ ____
ROOT
ATOM      1  N   UNL     1      49.105   6.315  18.166  0.00  0.00    +0.000 NA
ATOM      2  C   UNL     1      49.979   5.868  17.306  0.00  0.00    +0.000 C 
ATOM      3  N   UNL     1      49.842   6.125  15.962  0.00  0.00    +0.000 N 
ATOM      4  H   UNL     1      50.673   6.063  15.383  0.00  0.00    +0.000 HD
ENDROOT
BRANCH   2   5
ATOM      5  C   UNL     1      51.126   4.997  17.631  0.00  0.00    +0.000 A 
ATOM      6  C   UNL     1      52.312   5.494  18.156  0.00  0.00    +0.000 A 
ATOM      7  S   UNL     1      53.472   4.298  18.523  0.00  0.00    +0.000 S 
ATOM      8  C   UNL     1      52.420   3.057  18.037  0.00  0.00    +0.000 A 
ATOM      9  N   UNL     1      52.786   1.750  18.161  0.00  0.00    +0.000 NA
ATOM     10  C   UNL     1      51.891   0.910  17.762  0.00  0.00    +0.000 A 
ATOM     11  N   UNL     1      50.679   1.259  17.220  0.00  0.00    +0.000 N 
ATOM     12  C   UNL     1      50.280   2.565  17.054  0.00  0.00    +0.000 A 
ATOM     13  O   UNL     1      49.196   2.839  16.550  0.00  0.00    +0.000 OA
ATOM     14  C   UNL     1      51.226   3.552  17.552  0.00  0.00    +0.000 A 
ATOM     15  H   UNL     1      50.031   0.551  16.910  0.00  0.00    +0.000 HD
ENDBRANCH   2   5
BRANCH   1  16
ATOM     16  O   UNL     1      49.379   5.997  19.501  0.00  0.00    +0.000 OA
BRANCH  16  18
ATOM     17  C   UNL     1      47.008   5.972  19.246  0.00  0.00    +0.000 C 
ATOM     18  C   UNL     1      48.175   5.534  20.108  0.00  0.00    +0.000 C 
ENDBRANCH  16  18
ENDBRANCH   1  16
BRANCH   3  19
ATOM     19  C   UNL     1      48.907   7.134  15.499  0.00  0.00    +0.000 C 
BRANCH  19  20
ATOM     20  C   UNL     1      47.869   6.515  14.595  0.00  0.00    +0.000 A 
ATOM     21  C   UNL     1      47.357   7.232  13.507  0.00  0.00    +0.000 A 
ATOM     22  C   UNL     1      46.387   6.666  12.676  0.00  0.00    +0.000 A 
ATOM     23  C   UNL     1      45.903   5.373  12.917  0.00  0.00    +0.000 A 
ATOM     24  C   UNL     1      46.411   4.658  14.010  0.00  0.00    +0.000 A 
ATOM     25  C   UNL     1      47.380   5.222  14.846  0.00  0.00    +0.000 A 
BRANCH  23  26
ATOM     26  C   UNL     1      44.803   4.790  12.057  0.00  0.00    +0.000 C 
BRANCH  26  27
ATOM     27  N   UNL     1      45.269   4.068  10.850  0.00  0.00    +0.000 NA
ATOM     28  C   UNL     1      44.341   2.977  10.504  0.00  0.00    +0.000 C 
ATOM     29  C   UNL     1      44.683   2.300   9.174  0.00  0.00    +0.000 C 
ATOM     30  C   UNL     1      44.761   3.318   8.045  0.00  0.00    +0.000 C 
ATOM     31  C   UNL     1      45.767   4.397   8.411  0.00  0.00    +0.000 C 
ATOM     32  C   UNL     1      45.414   5.041   9.752  0.00  0.00    +0.000 C 
ENDBRANCH  26  27
ENDBRANCH  23  26
ENDBRANCH  19  20
ENDBRANCH   3  19
TORSDOF 7
ENDMDL
MODEL 7
REMARK VINA RESULT:    -6.583      2.622      3.749
REMARK INTER + INTRA:         -10.194
REMARK INTER:                  -9.593
REMARK INTRA:                  -0.601
REMARK UNBOUND:                -0.918
REMARK  Name = 
REMARK  8 active torsions:
REMARK  status: ('A' for Active; 'I' for Inactive)
REMARK    1  A    between atoms: C_1  and  C_2
REMARK    2  A    between atoms: C_2  and  O_3
REMARK    3  A    between atoms: O_3  and  N_4
REMARK    4  A    between atoms: C_5  and  C_21
REMARK    5  A    between atoms: N_6  and  C_7
REMARK    6  A    between atoms: C_7  and  C_8
REMARK    7  A    between atoms: C_11  and  C_12
REMARK    8  A    between atoms: C_12  and  N_13
REMARK                            x       y       z     vdW  Elec       q    Type
REMARK                         _______ _______ _______ _____ _____    ______ ____
ROOT
ATOM      1  N   UNL     1      49.645   5.477  16.288  0.00  0.00    +0.000 NA
ATOM      2  C   UNL     1      48.770   6.392  15.968  0.00  0.00    +0.000 C 
ATOM      3  N   UNL     1      47.721   6.102  15.127  0.00  0.00    +0.000 N 
ATOM      4  H   UNL     1      46.906   6.704  15.167  0.00  0.00    +0.000 HD
ENDROOT
BRANCH   2   5
ATOM      5  C   UNL     1      48.833   7.811  16.373  0.00  0.00    +0.000 A 
ATOM      6  C   UNL     1      49.382   8.792  15.558  0.00  0.00    +0.000 A 
ATOM      7  S   UNL     1      49.283  10.371  16.199  0.00  0.00    +0.000 S 
ATOM      8  C   UNL     1      48.461   9.814  17.576  0.00  0.00    +0.000 A 
ATOM      9  N   UNL     1      48.018  10.691  18.520  0.00  0.00    +0.000 NA
ATOM     10  C   UNL     1      47.403  10.136  19.511  0.00  0.00    +0.000 A 
ATOM     11  N   UNL     1      47.220   8.785  19.658  0.00  0.00    +0.000 N 
ATOM     12  C   UNL     1      47.673   7.863  18.742  0.00  0.00    +0.000 A 
ATOM     13  O   UNL     1      47.507   6.660  18.916  0.00  0.00    +0.000 OA
ATOM     14  C   UNL     1      48.314   8.441  17.571  0.00  0.00    +0.000 A 
ATOM     15  H   UNL     1      46.746   8.414  20.467  0.00  0.00    +0.000 HD
ENDBRANCH   2   5
BRANCH   1  16
ATOM     16  O   UNL     1      50.646   5.905  17.166  0.00  0.00    +0.000 OA
BRANCH  16  18
ATOM     17  C   UNL     1      50.759   3.606  17.791  0.00  0.00    +0.000 C 
ATOM     18  C   UNL     1      50.656   5.032  18.294  0.00  0.00    +0.000 C 
ENDBRANCH  16  18
ENDBRANCH   1  16
BRANCH   3  19
ATOM     19  C   UNL     1      47.388   4.723  14.817  0.00  0.00    +0.000 C 
BRANCH  19  20
ATOM     20  C   UNL     1      46.542   4.655  13.570  0.00  0.00    +0.000 A 
ATOM     21  C   UNL     1      46.384   5.785  12.757  0.00  0.00    +0.000 A 
ATOM     22  C   UNL     1      45.591   5.728  11.608  0.00  0.00    +0.000 A 
ATOM     23  C   UNL     1      44.933   4.545  11.249  0.00  0.00    +0.000 A 
ATOM     24  C   UNL     1      45.084   3.416  12.067  0.00  0.00    +0.000 A 
ATOM     25  C   UNL     1      45.876   3.469  13.219  0.00  0.00    +0.000 A 
BRANCH  23  26
ATOM     26  C   UNL     1      44.019   4.507  10.043  0.00  0.00    +0.000 C 
BRANCH  26  27
ATOM     27  N   UNL     1      44.517   3.697   8.907  0.00  0.00    +0.000 NA
ATOM     28  C   UNL     1      45.682   4.342   8.277  0.00  0.00    +0.000 C 
ATOM     29  C   UNL     1      46.338   3.473   7.202  0.00  0.00    +0.000 C 
ATOM     30  C   UNL     1      46.715   2.106   7.756  0.00  0.00    +0.000 C 
ATOM     31  C   UNL     1      45.479   1.446   8.347  0.00  0.00    +0.000 C 
ATOM     32  C   UNL     1      44.834   2.344   9.402  0.00  0.00    +0.000 C 
ENDBRANCH  26  27
ENDBRANCH  23  26
ENDBRANCH  19  20
ENDBRANCH   3  19
TORSDOF 7
ENDMDL
MODEL 8
REMARK VINA RESULT:    -6.556      3.620      8.885
REMARK INTER + INTRA:         -10.156
REMARK INTER:                  -9.050
REMARK INTRA:                  -1.106
REMARK UNBOUND:                -0.918
REMARK  Name = 
REMARK  8 active torsions:
REMARK  status: ('A' for Active; 'I' for Inactive)
REMARK    1  A    between atoms: C_1  and  C_2
REMARK    2  A    between atoms: C_2  and  O_3
REMARK    3  A    between atoms: O_3  and  N_4
REMARK    4  A    between atoms: C_5  and  C_21
REMARK    5  A    between atoms: N_6  and  C_7
REMARK    6  A    between atoms: C_7  and  C_8
REMARK    7  A    between atoms: C_11  and  C_12
REMARK    8  A    between atoms: C_12  and  N_13
REMARK                            x       y       z     vdW  Elec       q    Type
REMARK                         _______ _______ _______ _____ _____    ______ ____
ROOT
ATOM      1  N   UNL     1      45.559   8.210  11.753  0.00  0.00    +0.000 NA
ATOM      2  C   UNL     1      46.123   7.035  11.679  0.00  0.00    +0.000 C 
ATOM      3  N   UNL     1      47.353   6.806  12.248  0.00  0.00    +0.000 N 
ATOM      4  H   UNL     1      47.601   5.846  12.464  0.00  0.00    +0.000 HD
ENDROOT
BRANCH   2   5
ATOM      5  C   UNL     1      45.584   5.877  10.939  0.00  0.00    +0.000 A 
ATOM      6  C   UNL     1      45.908   5.627   9.611  0.00  0.00    +0.000 A 
ATOM      7  S   UNL     1      45.227   4.195   8.981  0.00  0.00    +0.000 S 
ATOM      8  C   UNL     1      44.507   3.822  10.472  0.00  0.00    +0.000 A 
ATOM      9  N   UNL     1      43.813   2.660  10.636  0.00  0.00    +0.000 NA
ATOM     10  C   UNL     1      43.323   2.498  11.819  0.00  0.00    +0.000 A 
ATOM     11  N   UNL     1      43.436   3.405  12.842  0.00  0.00    +0.000 N 
ATOM     12  C   UNL     1      44.106   4.601  12.713  0.00  0.00    +0.000 A 
ATOM     13  O   UNL     1      44.172   5.396  13.645  0.00  0.00    +0.000 OA
ATOM     14  C   UNL     1      44.736   4.802  11.418  0.00  0.00    +0.000 A 
ATOM     15  H   UNL     1      43.013   3.225  13.740  0.00  0.00    +0.000 HD
ENDBRANCH   2   5
BRANCH   1  16
ATOM     16  O   UNL     1      44.300   8.296  11.149  0.00  0.00    +0.000 OA
BRANCH  16  18
ATOM     17  C   UNL     1      42.563   9.799  10.507  0.00  0.00    +0.000 C 
ATOM     18  C   UNL     1      44.027   9.669  10.874  0.00  0.00    +0.000 C 
ENDBRANCH  16  18
ENDBRANCH   1  16
BRANCH   3  19
ATOM     19  C   UNL     1      47.917   7.758  13.189  0.00  0.00    +0.000 C 
BRANCH  19  20
ATOM     20  C   UNL     1      48.559   7.035  14.347  0.00  0.00    +0.000 A 
ATOM     21  C   UNL     1      47.898   5.971  14.973  0.00  0.00    +0.000 A 
ATOM     22  C   UNL     1      48.484   5.307  16.054  0.00  0.00    +0.000 A 
ATOM     23  C   UNL     1      49.741   5.696  16.537  0.00  0.00    +0.000 A 
ATOM     24  C   UNL     1      50.399   6.766  15.915  0.00  0.00    +0.000 A 
ATOM     25  C   UNL     1      49.814   7.434  14.834  0.00  0.00    +0.000 A 
BRANCH  23  26
ATOM     26  C   UNL     1      50.342   5.021  17.751  0.00  0.00    +0.000 C 
BRANCH  26  27
ATOM     27  N   UNL     1      51.408   4.037  17.455  0.00  0.00    +0.000 NA
ATOM     28  C   UNL     1      52.575   4.253  18.330  0.00  0.00    +0.000 C 
ATOM     29  C   UNL     1      53.642   3.166  18.182  0.00  0.00    +0.000 C 
ATOM     30  C   UNL     1      53.050   1.782  18.407  0.00  0.00    +0.000 C 
ATOM     31  C   UNL     1      51.887   1.572  17.451  0.00  0.00    +0.000 C 
ATOM     32  C   UNL     1      50.847   2.682  17.606  0.00  0.00    +0.000 C 
ENDBRANCH  26  27
ENDBRANCH  23  26
ENDBRANCH  19  20
ENDBRANCH   3  19
TORSDOF 7
ENDMDL
MODEL 9
REMARK VINA RESULT:    -6.518      2.631      3.902
REMARK INTER + INTRA:         -10.103
REMARK INTER:                  -9.010
REMARK INTRA:                  -1.093
REMARK UNBOUND:                -0.918
REMARK  Name = 
REMARK  8 active torsions:
REMARK  status: ('A' for Active; 'I' for Inactive)
REMARK    1  A    between atoms: C_1  and  C_2
REMARK    2  A    between atoms: C_2  and  O_3
REMARK    3  A    between atoms: O_3  and  N_4
REMARK    4  A    between atoms: C_5  and  C_21
REMARK    5  A    between atoms: N_6  and  C_7
REMARK    6  A    between atoms: C_7  and  C_8
REMARK    7  A    between atoms: C_11  and  C_12
REMARK    8  A    between atoms: C_12  and  N_13
REMARK                            x       y       z     vdW  Elec       q    Type
REMARK                         _______ _______ _______ _____ _____    ______ ____
ROOT
ATOM      1  N   UNL     1      45.952   8.842  12.697  0.00  0.00    +0.000 NA
ATOM      2  C   UNL     1      46.905   7.980  12.932  0.00  0.00    +0.000 C 
ATOM      3  N   UNL     1      46.614   6.707  13.360  0.00  0.00    +0.000 N 
ATOM      4  H   UNL     1      47.315   5.989  13.212  0.00  0.00    +0.000 HD
ENDROOT
BRANCH   2   5
ATOM      5  C   UNL     1      48.351   8.268  12.858  0.00  0.00    +0.000 A 
ATOM      6  C   UNL     1      49.096   8.041  11.708  0.00  0.00    +0.000 A 
ATOM      7  S   UNL     1      50.731   8.515  11.828  0.00  0.00    +0.000 S 
ATOM      8  C   UNL     1      50.502   9.087  13.410  0.00  0.00    +0.000 A 
ATOM      9  N   UNL     1      51.520   9.693  14.082  0.00  0.00    +0.000 NA
ATOM     10  C   UNL     1      51.209  10.086  15.272  0.00  0.00    +0.000 A 
ATOM     11  N   UNL     1      49.984   9.900  15.860  0.00  0.00    +0.000 N 
ATOM     12  C   UNL     1      48.936   9.272  15.227  0.00  0.00    +0.000 A 
ATOM     13  O   UNL     1      47.859   9.108  15.791  0.00  0.00    +0.000 OA
ATOM     14  C   UNL     1      49.214   8.869  13.857  0.00  0.00    +0.000 A 
ATOM     15  H   UNL     1      49.811  10.216  16.802  0.00  0.00    +0.000 HD
ENDBRANCH   2   5
BRANCH   1  16
ATOM     16  O   UNL     1      46.390  10.092  12.247  0.00  0.00    +0.000 OA
BRANCH  16  18
ATOM     17  C   UNL     1      44.349   9.890  11.030  0.00  0.00    +0.000 C 
ATOM     18  C   UNL     1      45.254  10.830  11.799  0.00  0.00    +0.000 C 
ENDBRANCH  16  18
ENDBRANCH   1  16
BRANCH   3  19
ATOM     19  C   UNL     1      45.257   6.195  13.276  0.00  0.00    +0.000 C 
BRANCH  19  20
ATOM     20  C   UNL     1      45.116   5.273  12.091  0.00  0.00    +0.000 A 
ATOM     21  C   UNL     1      44.668   3.957  12.265  0.00  0.00    +0.000 A 
ATOM     22  C   UNL     1      44.547   3.097  11.171  0.00  0.00    +0.000 A 
ATOM     23  C   UNL     1      44.879   3.528   9.880  0.00  0.00    +0.000 A 
ATOM     24  C   UNL     1      45.335   4.843   9.707  0.00  0.00    +0.000 A 
ATOM     25  C   UNL     1      45.458   5.707  10.800  0.00  0.00    +0.000 A 
BRANCH  23  26
ATOM     26  C   UNL     1      44.814   2.574   8.708  0.00  0.00    +0.000 C 
BRANCH  26  27
ATOM     27  N   UNL     1      46.068   2.454   7.929  0.00  0.00    +0.000 NA
ATOM     28  C   UNL     1      46.480   1.044   7.816  0.00  0.00    +0.000 C 
ATOM     29  C   UNL     1      47.679   0.844   6.886  0.00  0.00    +0.000 C 
ATOM     30  C   UNL     1      47.410   1.436   5.510  0.00  0.00    +0.000 C 
ATOM     31  C   UNL     1      47.043   2.904   5.658  0.00  0.00    +0.000 C 
ATOM     32  C   UNL     1      45.857   3.076   6.608  0.00  0.00    +0.000 C 
ENDBRANCH  26  27
ENDBRANCH  23  26
ENDBRANCH  19  20
ENDBRANCH   3  19
TORSDOF 7
ENDMDL
