MODEL 1
REMARK VINA RESULT:    -8.179      0.000      0.000
REMARK INTER + INTRA:         -12.710
REMARK INTER:                 -11.526
REMARK INTRA:                  -1.184
REMARK UNBOUND:                -1.184
REMARK  Name = 
REMARK  8 active torsions:
REMARK  status: ('A' for Active; 'I' for Inactive)
REMARK    1  A    between atoms: C_1  and  N_2
REMARK    2  A    between atoms: N_2  and  C_3
REMARK    3  A    between atoms: N_2  and  C_14
REMARK    4  A    between atoms: C_3  and  C_4
REMARK    5  A    between atoms: C_4  and  C_5
REMARK    6  A    between atoms: C_8  and  C_9
REMARK    7  A    between atoms: C_18  and  O_19
REMARK    8  A    between atoms: O_19  and  C_20
REMARK                            x       y       z     vdW  Elec       q    Type
REMARK                         _______ _______ _______ _____ _____    ______ ____
ROOT
ATOM      1  C   UNL     1      43.203   4.769  13.321  0.00  0.00    +0.000 C 
ATOM      2  N   UNL     1      43.919   5.331  12.172  0.00  0.00    +0.000 N 
ENDROOT
BRANCH   2   3
ATOM      3  C   UNL     1      45.259   5.716  12.404  0.00  0.00    +0.000 A 
ATOM      4  C   UNL     1      45.978   6.492  11.475  0.00  0.00    +0.000 A 
ATOM      5  C   UNL     1      47.320   6.847  11.672  0.00  0.00    +0.000 A 
ATOM      6  C   UNL     1      47.996   6.428  12.812  0.00  0.00    +0.000 A 
ATOM      7  C   UNL     1      47.323   5.657  13.750  0.00  0.00    +0.000 A 
ATOM      8  C   UNL     1      45.976   5.318  13.547  0.00  0.00    +0.000 A 
BRANCH   7   9
ATOM      9  O   UNL     1      47.875   5.210  14.926  0.00  0.00    +0.000 OA
BRANCH   9  10
ATOM     10  C   UNL     1      47.177   4.189  15.674  0.00  0.00    +0.000 C 
ATOM     11  C   UNL     1      47.079   4.388  17.205  0.00  0.00    +0.000 C 
ATOM     12  C   UNL     1      47.564   2.947  17.409  0.00  0.00    +0.000 C 
ATOM     13  C   UNL     1      48.014   2.915  15.944  0.00  0.00    +0.000 C 
ENDBRANCH   9  10
ENDBRANCH   7   9
ENDBRANCH   2   3
BRANCH   2  14
ATOM     14  C   UNL     1      43.551   4.892  10.801  0.00  0.00    +0.000 C 
BRANCH  14  15
ATOM     15  C   UNL     1      43.868   3.419  10.512  0.00  0.00    +0.000 C 
BRANCH  15  16
ATOM     16  C   UNL     1      44.887   3.180   9.422  0.00  0.00    +0.000 A 
ATOM     17  C   UNL     1      45.302   1.877   9.115  0.00  0.00    +0.000 A 
ATOM     18  C   UNL     1      46.145   1.644   8.023  0.00  0.00    +0.000 A 
ATOM     19  C   UNL     1      46.583   2.704   7.229  0.00  0.00    +0.000 A 
ATOM     20  C   UNL     1      46.212   4.011   7.560  0.00  0.00    +0.000 A 
ATOM     21  C   UNL     1      45.372   4.246   8.655  0.00  0.00    +0.000 A 
BRANCH  19  22
ATOM     22  C   UNL     1      47.437   2.397   6.049  0.00  0.00    +0.000 C 
ATOM     23  N   UNL     1      48.790   2.334   6.249  0.00  0.00    +0.000 N 
ATOM     24  O   UNL     1      46.960   2.254   4.933  0.00  0.00    +0.000 OA
ATOM     25  H   UNL     1      49.237   2.676   7.086  0.00  0.00    +0.000 HD
ATOM     26  H   UNL     1      49.359   2.233   5.418  0.00  0.00    +0.000 HD
ENDBRANCH  19  22
ENDBRANCH  15  16
ENDBRANCH  14  15
ENDBRANCH   2  14
TORSDOF 7
ENDMDL
MODEL 2
REMARK VINA RESULT:    -7.002      1.775      3.656
REMARK INTER + INTRA:         -11.052
REMARK INTER:                 -10.171
REMARK INTRA:                  -0.881
REMARK UNBOUND:                -1.184
REMARK  Name = 
REMARK  8 active torsions:
REMARK  status: ('A' for Active; 'I' for Inactive)
REMARK    1  A    between atoms: C_1  and  N_2
REMARK    2  A    between atoms: N_2  and  C_3
REMARK    3  A    between atoms: N_2  and  C_14
REMARK    4  A    between atoms: C_3  and  C_4
REMARK    5  A    between atoms: C_4  and  C_5
REMARK    6  A    between atoms: C_8  and  C_9
REMARK    7  A    between atoms: C_18  and  O_19
REMARK    8  A    between atoms: O_19  and  C_20
REMARK                            x       y       z     vdW  Elec       q    Type
REMARK                         _______ _______ _______ _____ _____    ______ ____
ROOT
ATOM      1  C   UNL     1      43.264   5.046  13.087  0.00  0.00    +0.000 C 
ATOM      2  N   UNL     1      44.469   4.591  12.387  0.00  0.00    +0.000 N 
ENDROOT
BRANCH   2   3
ATOM      3  C   UNL     1      45.688   5.162  12.818  0.00  0.00    +0.000 A 
ATOM      4  C   UNL     1      46.269   4.825  14.055  0.00  0.00    +0.000 A 
ATOM      5  C   UNL     1      47.455   5.413  14.513  0.00  0.00    +0.000 A 
ATOM      6  C   UNL     1      48.104   6.374  13.746  0.00  0.00    +0.000 A 
ATOM      7  C   UNL     1      47.561   6.738  12.522  0.00  0.00    +0.000 A 
ATOM      8  C   UNL     1      46.378   6.132  12.068  0.00  0.00    +0.000 A 
BRANCH   7   9
ATOM      9  O   UNL     1      48.125   7.651  11.664  0.00  0.00    +0.000 OA
BRANCH   9  10
ATOM     10  C   UNL     1      49.369   8.281  12.042  0.00  0.00    +0.000 C 
ATOM     11  C   UNL     1      49.631   9.700  11.486  0.00  0.00    +0.000 C 
ATOM     12  C   UNL     1      51.028   9.251  11.037  0.00  0.00    +0.000 C 
ATOM     13  C   UNL     1      50.598   7.793  11.238  0.00  0.00    +0.000 C 
ENDBRANCH   9  10
ENDBRANCH   7   9
ENDBRANCH   2   3
BRANCH   2  14
ATOM     14  C   UNL     1      44.508   3.216  11.826  0.00  0.00    +0.000 C 
BRANCH  14  15
ATOM     15  C   UNL     1      43.774   3.067  10.487  0.00  0.00    +0.000 C 
BRANCH  15  16
ATOM     16  C   UNL     1      44.665   2.902   9.277  0.00  0.00    +0.000 A 
ATOM     17  C   UNL     1      44.892   3.982   8.413  0.00  0.00    +0.000 A 
ATOM     18  C   UNL     1      45.816   3.868   7.369  0.00  0.00    +0.000 A 
ATOM     19  C   UNL     1      46.521   2.680   7.176  0.00  0.00    +0.000 A 
ATOM     20  C   UNL     1      46.264   1.583   8.005  0.00  0.00    +0.000 A 
ATOM     21  C   UNL     1      45.335   1.695   9.047  0.00  0.00    +0.000 A 
BRANCH  19  22
ATOM     22  C   UNL     1      47.530   2.627   6.083  0.00  0.00    +0.000 C 
ATOM     23  N   UNL     1      48.829   2.375   6.435  0.00  0.00    +0.000 N 
ATOM     24  O   UNL     1      47.227   2.848   4.920  0.00  0.00    +0.000 OA
ATOM     25  H   UNL     1      49.158   2.424   7.387  0.00  0.00    +0.000 HD
ATOM     26  H   UNL     1      49.515   2.451   5.694  0.00  0.00    +0.000 HD
ENDBRANCH  19  22
ENDBRANCH  15  16
ENDBRANCH  14  15
ENDBRANCH   2  14
TORSDOF 7
ENDMDL
MODEL 3
REMARK VINA RESULT:    -6.877      1.990      2.480
REMARK INTER + INTRA:         -10.875
REMARK INTER:                  -9.955
REMARK INTRA:                  -0.921
REMARK UNBOUND:                -1.184
REMARK  Name = 
REMARK  8 active torsions:
REMARK  status: ('A' for Active; 'I' for Inactive)
REMARK    1  A    between atoms: C_1  and  N_2
REMARK    2  A    between atoms: N_2  and  C_3
REMARK    3  A    between atoms: N_2  and  C_14
REMARK    4  A    between atoms: C_3  and  C_4
REMARK    5  A    between atoms: C_4  and  C_5
REMARK    6  A    between atoms: C_8  and  C_9
REMARK    7  A    between atoms: C_18  and  O_19
REMARK    8  A    between atoms: O_19  and  C_20
REMARK                            x       y       z     vdW  Elec       q    Type
REMARK                         _______ _______ _______ _____ _____    ______ ____
ROOT
ATOM      1  C   UNL     1      45.345   3.724  12.748  0.00  0.00    +0.000 C 
ATOM      2  N   UNL     1      45.288   5.122  12.309  0.00  0.00    +0.000 N 
ENDROOT
BRANCH   2   3
ATOM      3  C   UNL     1      46.457   5.888  12.523  0.00  0.00    +0.000 A 
ATOM      4  C   UNL     1      46.908   6.830  11.580  0.00  0.00    +0.000 A 
ATOM      5  C   UNL     1      48.087   7.567  11.759  0.00  0.00    +0.000 A 
ATOM      6  C   UNL     1      48.866   7.379  12.895  0.00  0.00    +0.000 A 
ATOM      7  C   UNL     1      48.458   6.455  13.847  0.00  0.00    +0.000 A 
ATOM      8  C   UNL     1      47.268   5.732  13.662  0.00  0.00    +0.000 A 
BRANCH   7   9
ATOM      9  O   UNL     1      49.126   6.203  15.021  0.00  0.00    +0.000 OA
BRANCH   9  10
ATOM     10  C   UNL     1      49.743   7.309  15.719  0.00  0.00    +0.000 C 
ATOM     11  C   UNL     1      50.827   6.958  16.763  0.00  0.00    +0.000 C 
ATOM     12  C   UNL     1      50.127   7.872  17.777  0.00  0.00    +0.000 C 
ATOM     13  C   UNL     1      48.889   7.887  16.872  0.00  0.00    +0.000 C 
ENDBRANCH   9  10
ENDBRANCH   7   9
ENDBRANCH   2   3
BRANCH   2  14
ATOM     14  C   UNL     1      44.420   5.487  11.160  0.00  0.00    +0.000 C 
BRANCH  14  15
ATOM     15  C   UNL     1      43.845   4.283  10.404  0.00  0.00    +0.000 C 
BRANCH  15  16
ATOM     16  C   UNL     1      44.739   3.708   9.330  0.00  0.00    +0.000 A 
ATOM     17  C   UNL     1      45.457   4.558   8.478  0.00  0.00    +0.000 A 
ATOM     18  C   UNL     1      46.382   4.031   7.571  0.00  0.00    +0.000 A 
ATOM     19  C   UNL     1      46.600   2.655   7.503  0.00  0.00    +0.000 A 
ATOM     20  C   UNL     1      45.852   1.798   8.316  0.00  0.00    +0.000 A 
ATOM     21  C   UNL     1      44.922   2.324   9.221  0.00  0.00    +0.000 A 
BRANCH  19  22
ATOM     22  C   UNL     1      47.632   2.149   6.557  0.00  0.00    +0.000 C 
ATOM     23  N   UNL     1      47.991   2.967   5.519  0.00  0.00    +0.000 N 
ATOM     24  O   UNL     1      48.109   1.030   6.667  0.00  0.00    +0.000 OA
ATOM     25  H   UNL     1      47.461   3.783   5.255  0.00  0.00    +0.000 HD
ATOM     26  H   UNL     1      48.611   2.564   4.827  0.00  0.00    +0.000 HD
ENDBRANCH  19  22
ENDBRANCH  15  16
ENDBRANCH  14  15
ENDBRANCH   2  14
TORSDOF 7
ENDMDL
MODEL 4
REMARK VINA RESULT:    -6.859      2.091      2.775
REMARK INTER + INTRA:         -10.851
REMARK INTER:                  -9.927
REMARK INTRA:                  -0.924
REMARK UNBOUND:                -1.184
REMARK  Name = 
REMARK  8 active torsions:
REMARK  status: ('A' for Active; 'I' for Inactive)
REMARK    1  A    between atoms: C_1  and  N_2
REMARK    2  A    between atoms: N_2  and  C_3
REMARK    3  A    between atoms: N_2  and  C_14
REMARK    4  A    between atoms: C_3  and  C_4
REMARK    5  A    between atoms: C_4  and  C_5
REMARK    6  A    between atoms: C_8  and  C_9
REMARK    7  A    between atoms: C_18  and  O_19
REMARK    8  A    between atoms: O_19  and  C_20
REMARK                            x       y       z     vdW  Elec       q    Type
REMARK                         _______ _______ _______ _____ _____    ______ ____
ROOT
ATOM      1  C   UNL     1      45.820   3.270  12.825  0.00  0.00    +0.000 C 
ATOM      2  N   UNL     1      44.877   4.337  12.476  0.00  0.00    +0.000 N 
ENDROOT
BRANCH   2   3
ATOM      3  C   UNL     1      45.416   5.642  12.404  0.00  0.00    +0.000 A 
ATOM      4  C   UNL     1      44.600   6.786  12.488  0.00  0.00    +0.000 A 
ATOM      5  C   UNL     1      45.116   8.085  12.377  0.00  0.00    +0.000 A 
ATOM      6  C   UNL     1      46.475   8.285  12.168  0.00  0.00    +0.000 A 
ATOM      7  C   UNL     1      47.312   7.182  12.074  0.00  0.00    +0.000 A 
ATOM      8  C   UNL     1      46.786   5.886  12.199  0.00  0.00    +0.000 A 
BRANCH   7   9
ATOM      9  O   UNL     1      48.673   7.254  11.898  0.00  0.00    +0.000 OA
BRANCH   9  10
ATOM     10  C   UNL     1      49.512   7.454  13.058  0.00  0.00    +0.000 C 
ATOM     11  C   UNL     1      48.903   7.094  14.432  0.00  0.00    +0.000 C 
ATOM     12  C   UNL     1      49.360   8.454  14.976  0.00  0.00    +0.000 C 
ATOM     13  C   UNL     1      49.595   8.924  13.535  0.00  0.00    +0.000 C 
ENDBRANCH   9  10
ENDBRANCH   7   9
ENDBRANCH   2   3
BRANCH   2  14
ATOM     14  C   UNL     1      43.709   4.020  11.615  0.00  0.00    +0.000 C 
BRANCH  14  15
ATOM     15  C   UNL     1      43.839   4.530  10.173  0.00  0.00    +0.000 C 
BRANCH  15  16
ATOM     16  C   UNL     1      44.869   3.816   9.328  0.00  0.00    +0.000 A 
ATOM     17  C   UNL     1      44.943   2.417   9.334  0.00  0.00    +0.000 A 
ATOM     18  C   UNL     1      45.806   1.752   8.456  0.00  0.00    +0.000 A 
ATOM     19  C   UNL     1      46.602   2.473   7.566  0.00  0.00    +0.000 A 
ATOM     20  C   UNL     1      46.568   3.871   7.589  0.00  0.00    +0.000 A 
ATOM     21  C   UNL     1      45.708   4.538   8.470  0.00  0.00    +0.000 A 
BRANCH  19  22
ATOM     22  C   UNL     1      47.465   1.717   6.618  0.00  0.00    +0.000 C 
ATOM     23  N   UNL     1      48.529   2.380   6.067  0.00  0.00    +0.000 N 
ATOM     24  O   UNL     1      47.212   0.564   6.302  0.00  0.00    +0.000 OA
ATOM     25  H   UNL     1      48.633   3.381   6.112  0.00  0.00    +0.000 HD
ATOM     26  H   UNL     1      49.037   1.884   5.345  0.00  0.00    +0.000 HD
ENDBRANCH  19  22
ENDBRANCH  15  16
ENDBRANCH  14  15
ENDBRANCH   2  14
TORSDOF 7
ENDMDL
MODEL 5
REMARK VINA RESULT:    -6.829      2.394      7.558
REMARK INTER + INTRA:         -10.807
REMARK INTER:                  -9.915
REMARK INTRA:                  -0.893
REMARK UNBOUND:                -1.184
REMARK  Name = 
REMARK  8 active torsions:
REMARK  status: ('A' for Active; 'I' for Inactive)
REMARK    1  A    between atoms: C_1  and  N_2
REMARK    2  A    between atoms: N_2  and  C_3
REMARK    3  A    between atoms: N_2  and  C_14
REMARK    4  A    between atoms: C_3  and  C_4
REMARK    5  A    between atoms: C_4  and  C_5
REMARK    6  A    between atoms: C_8  and  C_9
REMARK    7  A    between atoms: C_18  and  O_19
REMARK    8  A    between atoms: O_19  and  C_20
REMARK                            x       y       z     vdW  Elec       q    Type
REMARK                         _______ _______ _______ _____ _____    ______ ____
ROOT
ATOM      1  C   UNL     1      45.295   8.593  11.936  0.00  0.00    +0.000 C 
ATOM      2  N   UNL     1      45.843   7.240  12.074  0.00  0.00    +0.000 N 
ENDROOT
BRANCH   2   3
ATOM      3  C   UNL     1      44.942   6.178  11.830  0.00  0.00    +0.000 A 
ATOM      4  C   UNL     1      43.955   5.814  12.766  0.00  0.00    +0.000 A 
ATOM      5  C   UNL     1      43.082   4.738  12.555  0.00  0.00    +0.000 A 
ATOM      6  C   UNL     1      43.171   3.978  11.394  0.00  0.00    +0.000 A 
ATOM      7  C   UNL     1      44.135   4.302  10.449  0.00  0.00    +0.000 A 
ATOM      8  C   UNL     1      44.996   5.390  10.666  0.00  0.00    +0.000 A 
BRANCH   7   9
ATOM      9  O   UNL     1      44.301   3.645   9.254  0.00  0.00    +0.000 OA
BRANCH   9  10
ATOM     10  C   UNL     1      45.634   3.250   8.860  0.00  0.00    +0.000 C 
ATOM     11  C   UNL     1      46.052   3.557   7.403  0.00  0.00    +0.000 C 
ATOM     12  C   UNL     1      46.543   2.112   7.254  0.00  0.00    +0.000 C 
ATOM     13  C   UNL     1      45.779   1.745   8.531  0.00  0.00    +0.000 C 
ENDBRANCH   9  10
ENDBRANCH   7   9
ENDBRANCH   2   3
BRANCH   2  14
ATOM     14  C   UNL     1      47.282   7.007  11.792  0.00  0.00    +0.000 C 
BRANCH  14  15
ATOM     15  C   UNL     1      48.203   7.254  12.994  0.00  0.00    +0.000 C 
BRANCH  15  16
ATOM     16  C   UNL     1      48.067   6.260  14.125  0.00  0.00    +0.000 A 
ATOM     17  C   UNL     1      48.632   6.533  15.378  0.00  0.00    +0.000 A 
ATOM     18  C   UNL     1      48.398   5.677  16.460  0.00  0.00    +0.000 A 
ATOM     19  C   UNL     1      47.600   4.543  16.303  0.00  0.00    +0.000 A 
ATOM     20  C   UNL     1      47.073   4.240  15.044  0.00  0.00    +0.000 A 
ATOM     21  C   UNL     1      47.311   5.093  13.960  0.00  0.00    +0.000 A 
BRANCH  19  22
ATOM     22  C   UNL     1      47.340   3.693  17.497  0.00  0.00    +0.000 C 
ATOM     23  N   UNL     1      48.049   3.970  18.636  0.00  0.00    +0.000 N 
ATOM     24  O   UNL     1      46.561   2.753  17.457  0.00  0.00    +0.000 OA
ATOM     25  H   UNL     1      48.860   4.570  18.644  0.00  0.00    +0.000 HD
ATOM     26  H   UNL     1      47.939   3.316  19.400  0.00  0.00    +0.000 HD
ENDBRANCH  19  22
ENDBRANCH  15  16
ENDBRANCH  14  15
ENDBRANCH   2  14
TORSDOF 7
ENDMDL
MODEL 6
REMARK VINA RESULT:    -6.669      3.392      8.166
REMARK INTER + INTRA:         -10.583
REMARK INTER:                  -9.969
REMARK INTRA:                  -0.614
REMARK UNBOUND:                -1.184
REMARK  Name = 
REMARK  8 active torsions:
REMARK  status: ('A' for Active; 'I' for Inactive)
REMARK    1  A    between atoms: C_1  and  N_2
REMARK    2  A    between atoms: N_2  and  C_3
REMARK    3  A    between atoms: N_2  and  C_14
REMARK    4  A    between atoms: C_3  and  C_4
REMARK    5  A    between atoms: C_4  and  C_5
REMARK    6  A    between atoms: C_8  and  C_9
REMARK    7  A    between atoms: C_18  and  O_19
REMARK    8  A    between atoms: O_19  and  C_20
REMARK                            x       y       z     vdW  Elec       q    Type
REMARK                         _______ _______ _______ _____ _____    ______ ____
ROOT
ATOM      1  C   UNL     1      47.009   6.520  13.572  0.00  0.00    +0.000 C 
ATOM      2  N   UNL     1      46.243   5.305  13.866  0.00  0.00    +0.000 N 
ENDROOT
BRANCH   2   3
ATOM      3  C   UNL     1      45.250   4.955  12.923  0.00  0.00    +0.000 A 
ATOM      4  C   UNL     1      43.985   5.574  12.916  0.00  0.00    +0.000 A 
ATOM      5  C   UNL     1      42.976   5.210  12.014  0.00  0.00    +0.000 A 
ATOM      6  C   UNL     1      43.196   4.199  11.085  0.00  0.00    +0.000 A 
ATOM      7  C   UNL     1      44.428   3.560  11.064  0.00  0.00    +0.000 A 
ATOM      8  C   UNL     1      45.436   3.943  11.965  0.00  0.00    +0.000 A 
BRANCH   7   9
ATOM      9  O   UNL     1      44.774   2.570  10.177  0.00  0.00    +0.000 OA
BRANCH   9  10
ATOM     10  C   UNL     1      44.868   2.899   8.772  0.00  0.00    +0.000 C 
ATOM     11  C   UNL     1      46.011   2.232   7.973  0.00  0.00    +0.000 C 
ATOM     12  C   UNL     1      46.396   3.603   7.405  0.00  0.00    +0.000 C 
ATOM     13  C   UNL     1      45.531   4.266   8.483  0.00  0.00    +0.000 C 
ENDBRANCH   9  10
ENDBRANCH   7   9
ENDBRANCH   2   3
BRANCH   2  14
ATOM     14  C   UNL     1      46.888   4.209  14.633  0.00  0.00    +0.000 C 
BRANCH  14  15
ATOM     15  C   UNL     1      47.347   4.617  16.039  0.00  0.00    +0.000 C 
BRANCH  15  16
ATOM     16  C   UNL     1      48.513   3.828  16.591  0.00  0.00    +0.000 A 
ATOM     17  C   UNL     1      48.618   2.453  16.343  0.00  0.00    +0.000 A 
ATOM     18  C   UNL     1      49.759   1.749  16.742  0.00  0.00    +0.000 A 
ATOM     19  C   UNL     1      50.805   2.407  17.391  0.00  0.00    +0.000 A 
ATOM     20  C   UNL     1      50.685   3.769  17.684  0.00  0.00    +0.000 A 
ATOM     21  C   UNL     1      49.541   4.474  17.290  0.00  0.00    +0.000 A 
BRANCH  19  22
ATOM     22  C   UNL     1      52.018   1.623  17.748  0.00  0.00    +0.000 C 
ATOM     23  N   UNL     1      51.842   0.308  18.087  0.00  0.00    +0.000 N 
ATOM     24  O   UNL     1      53.125   2.138  17.788  0.00  0.00    +0.000 OA
ATOM     25  H   UNL     1      50.939  -0.088  18.297  0.00  0.00    +0.000 HD
ATOM     26  H   UNL     1      52.662  -0.177  18.431  0.00  0.00    +0.000 HD
ENDBRANCH  19  22
ENDBRANCH  15  16
ENDBRANCH  14  15
ENDBRANCH   2  14
TORSDOF 7
ENDMDL
MODEL 7
REMARK VINA RESULT:    -6.552      2.811      8.468
REMARK INTER + INTRA:         -10.418
REMARK INTER:                  -9.752
REMARK INTRA:                  -0.666
REMARK UNBOUND:                -1.184
REMARK  Name = 
REMARK  8 active torsions:
REMARK  status: ('A' for Active; 'I' for Inactive)
REMARK    1  A    between atoms: C_1  and  N_2
REMARK    2  A    between atoms: N_2  and  C_3
REMARK    3  A    between atoms: N_2  and  C_14
REMARK    4  A    between atoms: C_3  and  C_4
REMARK    5  A    between atoms: C_4  and  C_5
REMARK    6  A    between atoms: C_8  and  C_9
REMARK    7  A    between atoms: C_18  and  O_19
REMARK    8  A    between atoms: O_19  and  C_20
REMARK                            x       y       z     vdW  Elec       q    Type
REMARK                         _______ _______ _______ _____ _____    ______ ____
ROOT
ATOM      1  C   UNL     1      45.985   7.506  12.939  0.00  0.00    +0.000 C 
ATOM      2  N   UNL     1      46.031   6.041  12.951  0.00  0.00    +0.000 N 
ENDROOT
BRANCH   2   3
ATOM      3  C   UNL     1      45.270   5.389  11.953  0.00  0.00    +0.000 A 
ATOM      4  C   UNL     1      44.056   4.741  12.253  0.00  0.00    +0.000 A 
ATOM      5  C   UNL     1      43.312   4.056  11.282  0.00  0.00    +0.000 A 
ATOM      6  C   UNL     1      43.764   3.987   9.970  0.00  0.00    +0.000 A 
ATOM      7  C   UNL     1      44.959   4.608   9.636  0.00  0.00    +0.000 A 
ATOM      8  C   UNL     1      45.690   5.302  10.614  0.00  0.00    +0.000 A 
BRANCH   7   9
ATOM      9  O   UNL     1      45.493   4.635   8.370  0.00  0.00    +0.000 OA
BRANCH   9  10
ATOM     10  C   UNL     1      45.558   3.402   7.619  0.00  0.00    +0.000 C 
ATOM     11  C   UNL     1      46.003   2.137   8.389  0.00  0.00    +0.000 C 
ATOM     12  C   UNL     1      47.008   1.828   7.272  0.00  0.00    +0.000 C 
ATOM     13  C   UNL     1      46.826   3.256   6.745  0.00  0.00    +0.000 C 
ENDBRANCH   9  10
ENDBRANCH   7   9
ENDBRANCH   2   3
BRANCH   2  14
ATOM     14  C   UNL     1      47.251   5.357  13.451  0.00  0.00    +0.000 C 
BRANCH  14  15
ATOM     15  C   UNL     1      46.964   4.158  14.365  0.00  0.00    +0.000 C 
BRANCH  15  16
ATOM     16  C   UNL     1      47.469   4.293  15.783  0.00  0.00    +0.000 A 
ATOM     17  C   UNL     1      47.400   3.205  16.664  0.00  0.00    +0.000 A 
ATOM     18  C   UNL     1      47.983   3.287  17.933  0.00  0.00    +0.000 A 
ATOM     19  C   UNL     1      48.639   4.451  18.336  0.00  0.00    +0.000 A 
ATOM     20  C   UNL     1      48.668   5.556  17.479  0.00  0.00    +0.000 A 
ATOM     21  C   UNL     1      48.081   5.477  16.211  0.00  0.00    +0.000 A 
BRANCH  19  22
ATOM     22  C   UNL     1      49.286   4.469  19.676  0.00  0.00    +0.000 C 
ATOM     23  N   UNL     1      48.536   4.057  20.745  0.00  0.00    +0.000 N 
ATOM     24  O   UNL     1      50.427   4.880  19.831  0.00  0.00    +0.000 OA
ATOM     25  H   UNL     1      47.536   3.941  20.700  0.00  0.00    +0.000 HD
ATOM     26  H   UNL     1      48.956   4.180  21.658  0.00  0.00    +0.000 HD
ENDBRANCH  19  22
ENDBRANCH  15  16
ENDBRANCH  14  15
ENDBRANCH   2  14
TORSDOF 7
ENDMDL
MODEL 8
REMARK VINA RESULT:    -6.540      3.082      5.018
REMARK INTER + INTRA:         -10.401
REMARK INTER:                  -9.676
REMARK INTRA:                  -0.725
REMARK UNBOUND:                -1.184
REMARK  Name = 
REMARK  8 active torsions:
REMARK  status: ('A' for Active; 'I' for Inactive)
REMARK    1  A    between atoms: C_1  and  N_2
REMARK    2  A    between atoms: N_2  and  C_3
REMARK    3  A    between atoms: N_2  and  C_14
REMARK    4  A    between atoms: C_3  and  C_4
REMARK    5  A    between atoms: C_4  and  C_5
REMARK    6  A    between atoms: C_8  and  C_9
REMARK    7  A    between atoms: C_18  and  O_19
REMARK    8  A    between atoms: O_19  and  C_20
REMARK                            x       y       z     vdW  Elec       q    Type
REMARK                         _______ _______ _______ _____ _____    ______ ____
ROOT
ATOM      1  C   UNL     1      43.140   5.048  13.053  0.00  0.00    +0.000 C 
ATOM      2  N   UNL     1      44.102   5.392  12.002  0.00  0.00    +0.000 N 
ENDROOT
BRANCH   2   3
ATOM      3  C   UNL     1      44.764   6.632  12.148  0.00  0.00    +0.000 A 
ATOM      4  C   UNL     1      45.893   6.776  12.977  0.00  0.00    +0.000 A 
ATOM      5  C   UNL     1      46.535   8.008  13.164  0.00  0.00    +0.000 A 
ATOM      6  C   UNL     1      46.061   9.150  12.530  0.00  0.00    +0.000 A 
ATOM      7  C   UNL     1      44.947   9.051  11.708  0.00  0.00    +0.000 A 
ATOM      8  C   UNL     1      44.320   7.809  11.519  0.00  0.00    +0.000 A 
BRANCH   7   9
ATOM      9  O   UNL     1      44.405  10.100  11.006  0.00  0.00    +0.000 OA
BRANCH   9  10
ATOM     10  C   UNL     1      43.128   9.913  10.356  0.00  0.00    +0.000 C 
ATOM     11  C   UNL     1      42.790  10.871   9.190  0.00  0.00    +0.000 C 
ATOM     12  C   UNL     1      41.420  11.140   9.826  0.00  0.00    +0.000 C 
ATOM     13  C   UNL     1      41.928  10.511  11.129  0.00  0.00    +0.000 C 
ENDBRANCH   9  10
ENDBRANCH   7   9
ENDBRANCH   2   3
BRANCH   2  14
ATOM     14  C   UNL     1      44.820   4.303  11.290  0.00  0.00    +0.000 C 
BRANCH  14  15
ATOM     15  C   UNL     1      44.225   3.955   9.919  0.00  0.00    +0.000 C 
BRANCH  15  16
ATOM     16  C   UNL     1      45.190   3.332   8.936  0.00  0.00    +0.000 A 
ATOM     17  C   UNL     1      45.435   1.952   8.965  0.00  0.00    +0.000 A 
ATOM     18  C   UNL     1      46.225   1.356   7.976  0.00  0.00    +0.000 A 
ATOM     19  C   UNL     1      46.778   2.126   6.953  0.00  0.00    +0.000 A 
ATOM     20  C   UNL     1      46.576   3.510   6.947  0.00  0.00    +0.000 A 
ATOM     21  C   UNL     1      45.789   4.109   7.938  0.00  0.00    +0.000 A 
BRANCH  19  22
ATOM     22  C   UNL     1      47.568   1.436   5.897  0.00  0.00    +0.000 C 
ATOM     23  N   UNL     1      47.172   0.176   5.536  0.00  0.00    +0.000 N 
ATOM     24  O   UNL     1      48.561   1.948   5.402  0.00  0.00    +0.000 OA
ATOM     25  H   UNL     1      46.518  -0.369   6.076  0.00  0.00    +0.000 HD
ATOM     26  H   UNL     1      47.784  -0.318   4.898  0.00  0.00    +0.000 HD
ENDBRANCH  19  22
ENDBRANCH  15  16
ENDBRANCH  14  15
ENDBRANCH   2  14
TORSDOF 7
ENDMDL
MODEL 9
REMARK VINA RESULT:    -6.163      3.214      7.123
REMARK INTER + INTRA:          -9.869
REMARK INTER:                  -8.654
REMARK INTRA:                  -1.215
REMARK UNBOUND:                -1.184
REMARK  Name = 
REMARK  8 active torsions:
REMARK  status: ('A' for Active; 'I' for Inactive)
REMARK    1  A    between atoms: C_1  and  N_2
REMARK    2  A    between atoms: N_2  and  C_3
REMARK    3  A    between atoms: N_2  and  C_14
REMARK    4  A    between atoms: C_3  and  C_4
REMARK    5  A    between atoms: C_4  and  C_5
REMARK    6  A    between atoms: C_8  and  C_9
REMARK    7  A    between atoms: C_18  and  O_19
REMARK    8  A    between atoms: O_19  and  C_20
REMARK                            x       y       z     vdW  Elec       q    Type
REMARK                         _______ _______ _______ _____ _____    ______ ____
ROOT
ATOM      1  C   UNL     1      46.947   4.250  14.997  0.00  0.00    +0.000 C 
ATOM      2  N   UNL     1      46.726   4.981  13.745  0.00  0.00    +0.000 N 
ENDROOT
BRANCH   2   3
ATOM      3  C   UNL     1      45.567   4.627  13.017  0.00  0.00    +0.000 A 
ATOM      4  C   UNL     1      44.299   5.143  13.347  0.00  0.00    +0.000 A 
ATOM      5  C   UNL     1      43.135   4.770  12.661  0.00  0.00    +0.000 A 
ATOM      6  C   UNL     1      43.199   3.855  11.616  0.00  0.00    +0.000 A 
ATOM      7  C   UNL     1      44.430   3.320  11.263  0.00  0.00    +0.000 A 
ATOM      8  C   UNL     1      45.591   3.710  11.950  0.00  0.00    +0.000 A 
BRANCH   7   9
ATOM      9  O   UNL     1      44.623   2.432  10.233  0.00  0.00    +0.000 OA
BRANCH   9  10
ATOM     10  C   UNL     1      44.706   2.943   8.883  0.00  0.00    +0.000 C 
ATOM     11  C   UNL     1      45.900   2.464   8.026  0.00  0.00    +0.000 C 
ATOM     12  C   UNL     1      46.193   3.920   7.643  0.00  0.00    +0.000 C 
ATOM     13  C   UNL     1      45.274   4.379   8.781  0.00  0.00    +0.000 C 
ENDBRANCH   9  10
ENDBRANCH   7   9
ENDBRANCH   2   3
BRANCH   2  14
ATOM     14  C   UNL     1      47.226   6.374  13.619  0.00  0.00    +0.000 C 
BRANCH  14  15
ATOM     15  C   UNL     1      47.273   6.893  12.176  0.00  0.00    +0.000 C 
BRANCH  15  16
ATOM     16  C   UNL     1      46.268   7.972  11.845  0.00  0.00    +0.000 A 
ATOM     17  C   UNL     1      45.067   7.647  11.201  0.00  0.00    +0.000 A 
ATOM     18  C   UNL     1      44.082   8.622  11.011  0.00  0.00    +0.000 A 
ATOM     19  C   UNL     1      44.283   9.927  11.460  0.00  0.00    +0.000 A 
ATOM     20  C   UNL     1      45.499  10.269  12.061  0.00  0.00    +0.000 A 
ATOM     21  C   UNL     1      46.488   9.296  12.247  0.00  0.00    +0.000 A 
BRANCH  19  22
ATOM     22  C   UNL     1      43.183  10.913  11.279  0.00  0.00    +0.000 C 
ATOM     23  N   UNL     1      42.854  11.264   9.997  0.00  0.00    +0.000 N 
ATOM     24  O   UNL     1      42.624  11.432  12.234  0.00  0.00    +0.000 OA
ATOM     25  H   UNL     1      43.438  11.048   9.203  0.00  0.00    +0.000 HD
ATOM     26  H   UNL     1      42.181  12.013   9.898  0.00  0.00    +0.000 HD
ENDBRANCH  19  22
ENDBRANCH  15  16
ENDBRANCH  14  15
ENDBRANCH   2  14
TORSDOF 7
ENDMDL
