MODEL 1
REMARK VINA RESULT:    -8.672      0.000      0.000
REMARK INTER + INTRA:         -12.625
REMARK INTER:                 -11.714
REMARK INTRA:                  -0.911
REMARK UNBOUND:                -0.911
REMARK  Name = 
REMARK  6 active torsions:
REMARK  status: ('A' for Active; 'I' for Inactive)
REMARK    1  A    between atoms: C_2  and  C_4
REMARK    2  A    between atoms: N_8  and  C_9
REMARK    3  A    between atoms: C_9  and  C_10
REMARK    4  A    between atoms: C_10  and  C_11
REMARK    5  A    between atoms: C_16  and  O_17
REMARK    6  A    between atoms: O_17  and  C_18
REMARK                            x       y       z     vdW  Elec       q    Type
REMARK                         _______ _______ _______ _____ _____    ______ ____
ROOT
ATOM      1  C   UNL     1      43.447   4.399  10.925  0.00  0.00    +0.000 C 
ENDROOT
BRANCH   1   6
ATOM      2  C   UNL     1      46.621   2.479   7.472  0.00  0.00    +0.000 A 
ATOM      3  C   UNL     1      45.828   1.821   8.404  0.00  0.00    +0.000 A 
ATOM      4  C   UNL     1      44.881   2.548   9.126  0.00  0.00    +0.000 A 
ATOM      5  C   UNL     1      44.759   3.921   8.922  0.00  0.00    +0.000 A 
ATOM      6  N   UNL     1      43.788   4.695   9.541  0.00  0.00    +0.000 N 
ATOM      7  N   UNL     1      45.548   4.574   8.048  0.00  0.00    +0.000 NA
ATOM      8  C   UNL     1      46.462   3.850   7.347  0.00  0.00    +0.000 A 
ATOM      9  H   UNL     1      44.016   5.666   9.333  0.00  0.00    +0.000 HD
BRANCH   2  11
ATOM     10  N   UNL     1      48.766   2.455   6.339  0.00  0.00    +0.000 N 
ATOM     11  C   UNL     1      47.610   1.782   6.626  0.00  0.00    +0.000 C 
ATOM     12  O   UNL     1      47.425   0.640   6.229  0.00  0.00    +0.000 OA
ATOM     13  H   UNL     1      49.483   1.930   5.854  0.00  0.00    +0.000 HD
ATOM     14  H   UNL     1      49.060   3.278   6.848  0.00  0.00    +0.000 HD
ENDBRANCH   2  11
ENDBRANCH   1   6
BRANCH   1  15
ATOM     15  C   UNL     1      43.701   5.616  11.821  0.00  0.00    +0.000 C 
BRANCH  15  16
ATOM     16  C   UNL     1      45.156   5.682  12.223  0.00  0.00    +0.000 A 
ATOM     17  C   UNL     1      45.991   6.679  11.704  0.00  0.00    +0.000 A 
ATOM     18  C   UNL     1      47.311   6.768  12.131  0.00  0.00    +0.000 A 
ATOM     19  F   UNL     1      48.099   7.730  11.632  0.00  0.00    +0.000 F 
ATOM     20  C   UNL     1      47.821   5.888  13.077  0.00  0.00    +0.000 A 
ATOM     21  C   UNL     1      46.995   4.900  13.611  0.00  0.00    +0.000 A 
ATOM     22  C   UNL     1      45.672   4.787  13.177  0.00  0.00    +0.000 A 
BRANCH  21  23
ATOM     23  O   UNL     1      47.576   4.076  14.544  0.00  0.00    +0.000 OA
BRANCH  23  24
ATOM     24  C   UNL     1      47.288   4.310  15.940  0.00  0.00    +0.000 C 
ATOM     25  C   UNL     1      48.344   5.106  16.752  0.00  0.00    +0.000 C 
ATOM     26  C   UNL     1      48.113   4.126  17.914  0.00  0.00    +0.000 C 
ATOM     27  C   UNL     1      47.593   3.114  16.878  0.00  0.00    +0.000 C 
ENDBRANCH  23  24
ENDBRANCH  21  23
ENDBRANCH  15  16
ENDBRANCH   1  15
TORSDOF 6
ENDMDL
MODEL 2
REMARK VINA RESULT:    -8.155      2.035      3.373
REMARK INTER + INTRA:         -11.927
REMARK INTER:                 -10.940
REMARK INTRA:                  -0.987
REMARK UNBOUND:                -0.911
REMARK  Name = 
REMARK  6 active torsions:
REMARK  status: ('A' for Active; 'I' for Inactive)
REMARK    1  A    between atoms: C_2  and  C_4
REMARK    2  A    between atoms: N_8  and  C_9
REMARK    3  A    between atoms: C_9  and  C_10
REMARK    4  A    between atoms: C_10  and  C_11
REMARK    5  A    between atoms: C_16  and  O_17
REMARK    6  A    between atoms: O_17  and  C_18
REMARK                            x       y       z     vdW  Elec       q    Type
REMARK                         _______ _______ _______ _____ _____    ______ ____
ROOT
ATOM      1  C   UNL     1      43.251   4.465  11.045  0.00  0.00    +0.000 C 
ENDROOT
BRANCH   1   6
ATOM      2  C   UNL     1      46.480   2.491   7.676  0.00  0.00    +0.000 A 
ATOM      3  C   UNL     1      45.608   1.846   8.545  0.00  0.00    +0.000 A 
ATOM      4  C   UNL     1      44.668   2.600   9.248  0.00  0.00    +0.000 A 
ATOM      5  C   UNL     1      44.630   3.983   9.090  0.00  0.00    +0.000 A 
ATOM      6  N   UNL     1      43.674   4.789   9.691  0.00  0.00    +0.000 N 
ATOM      7  N   UNL     1      45.495   4.622   8.277  0.00  0.00    +0.000 NA
ATOM      8  C   UNL     1      46.401   3.873   7.594  0.00  0.00    +0.000 A 
ATOM      9  H   UNL     1      43.963   5.752   9.530  0.00  0.00    +0.000 HD
BRANCH   2  11
ATOM     10  N   UNL     1      48.572   2.472   6.447  0.00  0.00    +0.000 N 
ATOM     11  C   UNL     1      47.470   1.770   6.851  0.00  0.00    +0.000 C 
ATOM     12  O   UNL     1      47.334   0.587   6.571  0.00  0.00    +0.000 OA
ATOM     13  H   UNL     1      49.297   1.943   5.979  0.00  0.00    +0.000 HD
ATOM     14  H   UNL     1      48.840   3.354   6.863  0.00  0.00    +0.000 HD
ENDBRANCH   2  11
ENDBRANCH   1   6
BRANCH   1  15
ATOM     15  C   UNL     1      43.443   5.665  11.978  0.00  0.00    +0.000 C 
BRANCH  15  16
ATOM     16  C   UNL     1      44.837   5.664  12.560  0.00  0.00    +0.000 A 
ATOM     17  C   UNL     1      45.404   4.476  13.041  0.00  0.00    +0.000 A 
ATOM     18  C   UNL     1      46.710   4.474  13.515  0.00  0.00    +0.000 A 
ATOM     19  F   UNL     1      47.244   3.331  13.966  0.00  0.00    +0.000 F 
ATOM     20  C   UNL     1      47.476   5.633  13.514  0.00  0.00    +0.000 A 
ATOM     21  C   UNL     1      46.928   6.818  13.026  0.00  0.00    +0.000 A 
ATOM     22  C   UNL     1      45.609   6.838  12.564  0.00  0.00    +0.000 A 
BRANCH  21  23
ATOM     23  O   UNL     1      47.754   7.915  13.056  0.00  0.00    +0.000 OA
BRANCH  23  24
ATOM     24  C   UNL     1      48.762   8.043  12.029  0.00  0.00    +0.000 C 
ATOM     25  C   UNL     1      50.241   8.065  12.495  0.00  0.00    +0.000 C 
ATOM     26  C   UNL     1      50.496   9.174  11.462  0.00  0.00    +0.000 C 
ATOM     27  C   UNL     1      48.991   9.488  11.517  0.00  0.00    +0.000 C 
ENDBRANCH  23  24
ENDBRANCH  21  23
ENDBRANCH  15  16
ENDBRANCH   1  15
TORSDOF 6
ENDMDL
MODEL 3
REMARK VINA RESULT:    -7.532      2.541      3.192
REMARK INTER + INTRA:         -11.085
REMARK INTER:                  -9.987
REMARK INTRA:                  -1.098
REMARK UNBOUND:                -0.911
REMARK  Name = 
REMARK  6 active torsions:
REMARK  status: ('A' for Active; 'I' for Inactive)
REMARK    1  A    between atoms: C_2  and  C_4
REMARK    2  A    between atoms: N_8  and  C_9
REMARK    3  A    between atoms: C_9  and  C_10
REMARK    4  A    between atoms: C_10  and  C_11
REMARK    5  A    between atoms: C_16  and  O_17
REMARK    6  A    between atoms: O_17  and  C_18
REMARK                            x       y       z     vdW  Elec       q    Type
REMARK                         _______ _______ _______ _____ _____    ______ ____
ROOT
ATOM      1  C   UNL     1      43.334   3.564  11.132  0.00  0.00    +0.000 C 
ENDROOT
BRANCH   1   6
ATOM      2  C   UNL     1      46.560   2.737   7.313  0.00  0.00    +0.000 A 
ATOM      3  C   UNL     1      46.134   3.940   7.863  0.00  0.00    +0.000 A 
ATOM      4  C   UNL     1      45.389   3.922   9.042  0.00  0.00    +0.000 A 
ATOM      5  C   UNL     1      45.063   2.705   9.638  0.00  0.00    +0.000 A 
ATOM      6  N   UNL     1      44.397   2.610  10.852  0.00  0.00    +0.000 N 
ATOM      7  N   UNL     1      45.441   1.533   9.093  0.00  0.00    +0.000 NA
ATOM      8  C   UNL     1      46.172   1.567   7.947  0.00  0.00    +0.000 A 
ATOM      9  H   UNL     1      44.162   1.627  10.977  0.00  0.00    +0.000 HD
BRANCH   2  11
ATOM     10  N   UNL     1      48.750   2.570   6.282  0.00  0.00    +0.000 N 
ATOM     11  C   UNL     1      47.398   2.662   6.099  0.00  0.00    +0.000 C 
ATOM     12  O   UNL     1      46.906   2.645   4.979  0.00  0.00    +0.000 OA
ATOM     13  H   UNL     1      49.306   2.406   5.452  0.00  0.00    +0.000 HD
ATOM     14  H   UNL     1      49.165   2.327   7.172  0.00  0.00    +0.000 HD
ENDBRANCH   2  11
ENDBRANCH   1   6
BRANCH   1  15
ATOM     15  C   UNL     1      43.615   4.325  12.432  0.00  0.00    +0.000 C 
BRANCH  15  16
ATOM     16  C   UNL     1      44.569   5.469  12.179  0.00  0.00    +0.000 A 
ATOM     17  C   UNL     1      44.099   6.687  11.672  0.00  0.00    +0.000 A 
ATOM     18  C   UNL     1      44.975   7.752  11.504  0.00  0.00    +0.000 A 
ATOM     19  F   UNL     1      44.513   8.914  11.024  0.00  0.00    +0.000 F 
ATOM     20  C   UNL     1      46.318   7.637  11.841  0.00  0.00    +0.000 A 
ATOM     21  C   UNL     1      46.795   6.435  12.360  0.00  0.00    +0.000 A 
ATOM     22  C   UNL     1      45.929   5.350  12.516  0.00  0.00    +0.000 A 
BRANCH  21  23
ATOM     23  O   UNL     1      48.133   6.408  12.671  0.00  0.00    +0.000 OA
BRANCH  23  24
ATOM     24  C   UNL     1      48.889   7.633  12.552  0.00  0.00    +0.000 C 
ATOM     25  C   UNL     1      49.990   7.676  11.460  0.00  0.00    +0.000 C 
ATOM     26  C   UNL     1      50.889   8.411  12.468  0.00  0.00    +0.000 C 
ATOM     27  C   UNL     1      50.031   7.798  13.589  0.00  0.00    +0.000 C 
ENDBRANCH  23  24
ENDBRANCH  21  23
ENDBRANCH  15  16
ENDBRANCH   1  15
TORSDOF 6
ENDMDL
MODEL 4
REMARK VINA RESULT:    -7.480      3.603      8.180
REMARK INTER + INTRA:         -11.014
REMARK INTER:                 -10.277
REMARK INTRA:                  -0.737
REMARK UNBOUND:                -0.911
REMARK  Name = 
REMARK  6 active torsions:
REMARK  status: ('A' for Active; 'I' for Inactive)
REMARK    1  A    between atoms: C_2  and  C_4
REMARK    2  A    between atoms: N_8  and  C_9
REMARK    3  A    between atoms: C_9  and  C_10
REMARK    4  A    between atoms: C_10  and  C_11
REMARK    5  A    between atoms: C_16  and  O_17
REMARK    6  A    between atoms: O_17  and  C_18
REMARK                            x       y       z     vdW  Elec       q    Type
REMARK                         _______ _______ _______ _____ _____    ______ ____
ROOT
ATOM      1  C   UNL     1      46.071   6.338  12.868  0.00  0.00    +0.000 C 
ENDROOT
BRANCH   1   6
ATOM      2  C   UNL     1      48.377   4.431  16.958  0.00  0.00    +0.000 A 
ATOM      3  C   UNL     1      47.342   3.898  16.198  0.00  0.00    +0.000 A 
ATOM      4  C   UNL     1      46.996   4.511  14.994  0.00  0.00    +0.000 A 
ATOM      5  C   UNL     1      47.671   5.657  14.581  0.00  0.00    +0.000 A 
ATOM      6  N   UNL     1      47.440   6.273  13.359  0.00  0.00    +0.000 N 
ATOM      7  N   UNL     1      48.651   6.202  15.327  0.00  0.00    +0.000 NA
ATOM      8  C   UNL     1      48.982   5.589  16.495  0.00  0.00    +0.000 A 
ATOM      9  H   UNL     1      47.952   7.154  13.377  0.00  0.00    +0.000 HD
BRANCH   2  11
ATOM     10  N   UNL     1      49.699   2.754  18.108  0.00  0.00    +0.000 N 
ATOM     11  C   UNL     1      48.847   3.818  18.216  0.00  0.00    +0.000 C 
ATOM     12  O   UNL     1      48.522   4.263  19.308  0.00  0.00    +0.000 OA
ATOM     13  H   UNL     1      50.104   2.413  18.971  0.00  0.00    +0.000 HD
ATOM     14  H   UNL     1      50.182   2.526  17.250  0.00  0.00    +0.000 HD
ENDBRANCH   2  11
ENDBRANCH   1   6
BRANCH   1  15
ATOM     15  C   UNL     1      46.048   6.543  11.349  0.00  0.00    +0.000 C 
BRANCH  15  16
ATOM     16  C   UNL     1      45.494   5.318  10.659  0.00  0.00    +0.000 A 
ATOM     17  C   UNL     1      44.648   4.439  11.345  0.00  0.00    +0.000 A 
ATOM     18  C   UNL     1      44.094   3.351  10.681  0.00  0.00    +0.000 A 
ATOM     19  F   UNL     1      43.280   2.520  11.346  0.00  0.00    +0.000 F 
ATOM     20  C   UNL     1      44.356   3.121   9.336  0.00  0.00    +0.000 A 
ATOM     21  C   UNL     1      45.186   3.997   8.639  0.00  0.00    +0.000 A 
ATOM     22  C   UNL     1      45.765   5.084   9.300  0.00  0.00    +0.000 A 
BRANCH  21  23
ATOM     23  O   UNL     1      45.389   3.699   7.314  0.00  0.00    +0.000 OA
BRANCH  23  24
ATOM     24  C   UNL     1      46.711   3.293   6.896  0.00  0.00    +0.000 C 
ATOM     25  C   UNL     1      46.872   2.832   5.423  0.00  0.00    +0.000 C 
ATOM     26  C   UNL     1      47.791   1.709   5.929  0.00  0.00    +0.000 C 
ATOM     27  C   UNL     1      47.109   1.850   7.301  0.00  0.00    +0.000 C 
ENDBRANCH  23  24
ENDBRANCH  21  23
ENDBRANCH  15  16
ENDBRANCH   1  15
TORSDOF 6
ENDMDL
MODEL 5
REMARK VINA RESULT:    -7.400      2.687      4.743
REMARK INTER + INTRA:         -10.907
REMARK INTER:                 -10.404
REMARK INTRA:                  -0.503
REMARK UNBOUND:                -0.911
REMARK  Name = 
REMARK  6 active torsions:
REMARK  status: ('A' for Active; 'I' for Inactive)
REMARK    1  A    between atoms: C_2  and  C_4
REMARK    2  A    between atoms: N_8  and  C_9
REMARK    3  A    between atoms: C_9  and  C_10
REMARK    4  A    between atoms: C_10  and  C_11
REMARK    5  A    between atoms: C_16  and  O_17
REMARK    6  A    between atoms: O_17  and  C_18
REMARK                            x       y       z     vdW  Elec       q    Type
REMARK                         _______ _______ _______ _____ _____    ______ ____
ROOT
ATOM      1  C   UNL     1      43.729   4.827  11.005  0.00  0.00    +0.000 C 
ENDROOT
BRANCH   1   6
ATOM      2  C   UNL     1      46.540   2.320   7.615  0.00  0.00    +0.000 A 
ATOM      3  C   UNL     1      45.703   1.824   8.608  0.00  0.00    +0.000 A 
ATOM      4  C   UNL     1      44.874   2.706   9.301  0.00  0.00    +0.000 A 
ATOM      5  C   UNL     1      44.910   4.067   9.009  0.00  0.00    +0.000 A 
ATOM      6  N   UNL     1      44.059   4.992   9.597  0.00  0.00    +0.000 N 
ATOM      7  N   UNL     1      45.744   4.563   8.074  0.00  0.00    +0.000 NA
ATOM      8  C   UNL     1      46.542   3.690   7.402  0.00  0.00    +0.000 A 
ATOM      9  H   UNL     1      44.394   5.913   9.320  0.00  0.00    +0.000 HD
BRANCH   2  11
ATOM     10  N   UNL     1      48.557   2.018   6.301  0.00  0.00    +0.000 N 
ATOM     11  C   UNL     1      47.411   1.456   6.794  0.00  0.00    +0.000 C 
ATOM     12  O   UNL     1      47.144   0.280   6.594  0.00  0.00    +0.000 OA
ATOM     13  H   UNL     1      49.201   1.391   5.836  0.00  0.00    +0.000 HD
ATOM     14  H   UNL     1      48.932   2.890   6.651  0.00  0.00    +0.000 HD
ENDBRANCH   2  11
ENDBRANCH   1   6
BRANCH   1  15
ATOM     15  C   UNL     1      45.001   4.745  11.857  0.00  0.00    +0.000 C 
BRANCH  15  16
ATOM     16  C   UNL     1      45.451   6.127  12.269  0.00  0.00    +0.000 A 
ATOM     17  C   UNL     1      46.634   6.300  12.999  0.00  0.00    +0.000 A 
ATOM     18  C   UNL     1      47.070   7.580  13.318  0.00  0.00    +0.000 A 
ATOM     19  F   UNL     1      48.207   7.734  14.010  0.00  0.00    +0.000 F 
ATOM     20  C   UNL     1      46.358   8.703  12.915  0.00  0.00    +0.000 A 
ATOM     21  C   UNL     1      45.187   8.544  12.176  0.00  0.00    +0.000 A 
ATOM     22  C   UNL     1      44.726   7.262  11.866  0.00  0.00    +0.000 A 
BRANCH  21  23
ATOM     23  O   UNL     1      44.548   9.705  11.814  0.00  0.00    +0.000 OA
BRANCH  23  24
ATOM     24  C   UNL     1      43.769   9.708  10.597  0.00  0.00    +0.000 C 
ATOM     25  C   UNL     1      43.996  10.893   9.621  0.00  0.00    +0.000 C 
ATOM     26  C   UNL     1      42.476  10.929   9.394  0.00  0.00    +0.000 C 
ATOM     27  C   UNL     1      42.316  10.227  10.754  0.00  0.00    +0.000 C 
ENDBRANCH  23  24
ENDBRANCH  21  23
ENDBRANCH  15  16
ENDBRANCH   1  15
TORSDOF 6
ENDMDL
MODEL 6
REMARK VINA RESULT:    -7.052      4.432      8.345
REMARK INTER + INTRA:         -10.436
REMARK INTER:                  -9.922
REMARK INTRA:                  -0.515
REMARK UNBOUND:                -0.911
REMARK  Name = 
REMARK  6 active torsions:
REMARK  status: ('A' for Active; 'I' for Inactive)
REMARK    1  A    between atoms: C_2  and  C_4
REMARK    2  A    between atoms: N_8  and  C_9
REMARK    3  A    between atoms: C_9  and  C_10
REMARK    4  A    between atoms: C_10  and  C_11
REMARK    5  A    between atoms: C_16  and  O_17
REMARK    6  A    between atoms: O_17  and  C_18
REMARK                            x       y       z     vdW  Elec       q    Type
REMARK                         _______ _______ _______ _____ _____    ______ ____
ROOT
ATOM      1  C   UNL     1      46.815   4.366  15.168  0.00  0.00    +0.000 C 
ENDROOT
BRANCH   1   6
ATOM      2  C   UNL     1      51.021   2.908  17.589  0.00  0.00    +0.000 A 
ATOM      3  C   UNL     1      50.336   4.115  17.658  0.00  0.00    +0.000 A 
ATOM      4  C   UNL     1      49.086   4.224  17.048  0.00  0.00    +0.000 A 
ATOM      5  C   UNL     1      48.553   3.136  16.361  0.00  0.00    +0.000 A 
ATOM      6  N   UNL     1      47.284   3.142  15.800  0.00  0.00    +0.000 N 
ATOM      7  N   UNL     1      49.225   1.973  16.257  0.00  0.00    +0.000 NA
ATOM      8  C   UNL     1      50.439   1.880  16.862  0.00  0.00    +0.000 A 
ATOM      9  H   UNL     1      47.209   2.292  15.243  0.00  0.00    +0.000 HD
BRANCH   2  11
ATOM     10  N   UNL     1      52.726   1.386  18.403  0.00  0.00    +0.000 N 
ATOM     11  C   UNL     1      52.322   2.684  18.249  0.00  0.00    +0.000 C 
ATOM     12  O   UNL     1      53.028   3.616  18.610  0.00  0.00    +0.000 OA
ATOM     13  H   UNL     1      53.666   1.246  18.753  0.00  0.00    +0.000 HD
ATOM     14  H   UNL     1      52.302   0.619  17.899  0.00  0.00    +0.000 HD
ENDBRANCH   2  11
ENDBRANCH   1   6
BRANCH   1  15
ATOM     15  C   UNL     1      46.998   4.298  13.647  0.00  0.00    +0.000 C 
BRANCH  15  16
ATOM     16  C   UNL     1      45.658   4.191  12.958  0.00  0.00    +0.000 A 
ATOM     17  C   UNL     1      44.618   5.071  13.288  0.00  0.00    +0.000 A 
ATOM     18  C   UNL     1      43.411   5.005  12.602  0.00  0.00    +0.000 A 
ATOM     19  F   UNL     1      42.427   5.855  12.921  0.00  0.00    +0.000 F 
ATOM     20  C   UNL     1      43.216   4.084  11.580  0.00  0.00    +0.000 A 
ATOM     21  C   UNL     1      44.247   3.213  11.234  0.00  0.00    +0.000 A 
ATOM     22  C   UNL     1      45.459   3.256  11.928  0.00  0.00    +0.000 A 
BRANCH  21  23
ATOM     23  O   UNL     1      43.972   2.340  10.210  0.00  0.00    +0.000 OA
BRANCH  23  24
ATOM     24  C   UNL     1      44.420   2.679   8.879  0.00  0.00    +0.000 C 
ATOM     25  C   UNL     1      45.788   2.102   8.430  0.00  0.00    +0.000 C 
ATOM     26  C   UNL     1      46.090   3.463   7.781  0.00  0.00    +0.000 C 
ATOM     27  C   UNL     1      45.064   4.083   8.746  0.00  0.00    +0.000 C 
ENDBRANCH  23  24
ENDBRANCH  21  23
ENDBRANCH  15  16
ENDBRANCH   1  15
TORSDOF 6
ENDMDL
MODEL 7
REMARK VINA RESULT:    -6.970      4.029      8.543
REMARK INTER + INTRA:         -10.326
REMARK INTER:                  -9.780
REMARK INTRA:                  -0.546
REMARK UNBOUND:                -0.911
REMARK  Name = 
REMARK  6 active torsions:
REMARK  status: ('A' for Active; 'I' for Inactive)
REMARK    1  A    between atoms: C_2  and  C_4
REMARK    2  A    between atoms: N_8  and  C_9
REMARK    3  A    between atoms: C_9  and  C_10
REMARK    4  A    between atoms: C_10  and  C_11
REMARK    5  A    between atoms: C_16  and  O_17
REMARK    6  A    between atoms: O_17  and  C_18
REMARK                            x       y       z     vdW  Elec       q    Type
REMARK                         _______ _______ _______ _____ _____    ______ ____
ROOT
ATOM      1  C   UNL     1      47.225   4.388  13.667  0.00  0.00    +0.000 C 
ENDROOT
BRANCH   1   6
ATOM      2  C   UNL     1      48.694   4.421  18.517  0.00  0.00    +0.000 A 
ATOM      3  C   UNL     1      48.846   5.399  17.542  0.00  0.00    +0.000 A 
ATOM      4  C   UNL     1      48.187   5.252  16.321  0.00  0.00    +0.000 A 
ATOM      5  C   UNL     1      47.408   4.121  16.086  0.00  0.00    +0.000 A 
ATOM      6  N   UNL     1      46.659   3.944  14.932  0.00  0.00    +0.000 N 
ATOM      7  N   UNL     1      47.283   3.150  17.011  0.00  0.00    +0.000 NA
ATOM      8  C   UNL     1      47.926   3.311  18.198  0.00  0.00    +0.000 A 
ATOM      9  H   UNL     1      46.312   2.986  14.956  0.00  0.00    +0.000 HD
BRANCH   2  11
ATOM     10  N   UNL     1      48.548   4.117  20.919  0.00  0.00    +0.000 N 
ATOM     11  C   UNL     1      49.308   4.520  19.856  0.00  0.00    +0.000 C 
ATOM     12  O   UNL     1      50.458   4.907  20.008  0.00  0.00    +0.000 OA
ATOM     13  H   UNL     1      49.014   4.082  21.817  0.00  0.00    +0.000 HD
ATOM     14  H   UNL     1      47.708   3.563  20.812  0.00  0.00    +0.000 HD
ENDBRANCH   2  11
ENDBRANCH   1   6
BRANCH   1  15
ATOM     15  C   UNL     1      46.442   5.582  13.109  0.00  0.00    +0.000 C 
BRANCH  15  16
ATOM     16  C   UNL     1      45.186   5.111  12.414  0.00  0.00    +0.000 A 
ATOM     17  C   UNL     1      44.009   5.868  12.486  0.00  0.00    +0.000 A 
ATOM     18  C   UNL     1      42.878   5.457  11.790  0.00  0.00    +0.000 A 
ATOM     19  F   UNL     1      41.760   6.192  11.860  0.00  0.00    +0.000 F 
ATOM     20  C   UNL     1      42.893   4.308  11.009  0.00  0.00    +0.000 A 
ATOM     21  C   UNL     1      44.062   3.555  10.918  0.00  0.00    +0.000 A 
ATOM     22  C   UNL     1      45.201   3.946  11.628  0.00  0.00    +0.000 A 
BRANCH  21  23
ATOM     23  O   UNL     1      43.993   2.439  10.122  0.00  0.00    +0.000 OA
BRANCH  23  24
ATOM     24  C   UNL     1      44.470   2.535   8.761  0.00  0.00    +0.000 C 
ATOM     25  C   UNL     1      45.910   2.029   8.484  0.00  0.00    +0.000 C 
ATOM     26  C   UNL     1      46.106   3.246   7.566  0.00  0.00    +0.000 C 
ATOM     27  C   UNL     1      44.976   3.941   8.346  0.00  0.00    +0.000 C 
ENDBRANCH  23  24
ENDBRANCH  21  23
ENDBRANCH  15  16
ENDBRANCH   1  15
TORSDOF 6
ENDMDL
MODEL 8
REMARK VINA RESULT:    -6.853      3.734      7.908
REMARK INTER + INTRA:         -10.167
REMARK INTER:                  -9.480
REMARK INTRA:                  -0.687
REMARK UNBOUND:                -0.911
REMARK  Name = 
REMARK  6 active torsions:
REMARK  status: ('A' for Active; 'I' for Inactive)
REMARK    1  A    between atoms: C_2  and  C_4
REMARK    2  A    between atoms: N_8  and  C_9
REMARK    3  A    between atoms: C_9  and  C_10
REMARK    4  A    between atoms: C_10  and  C_11
REMARK    5  A    between atoms: C_16  and  O_17
REMARK    6  A    between atoms: O_17  and  C_18
REMARK                            x       y       z     vdW  Elec       q    Type
REMARK                         _______ _______ _______ _____ _____    ______ ____
ROOT
ATOM      1  C   UNL     1      46.496   6.861  13.297  0.00  0.00    +0.000 C 
ENDROOT
BRANCH   1   6
ATOM      2  C   UNL     1      48.584   4.044  16.956  0.00  0.00    +0.000 A 
ATOM      3  C   UNL     1      47.598   3.708  16.037  0.00  0.00    +0.000 A 
ATOM      4  C   UNL     1      47.315   4.585  14.990  0.00  0.00    +0.000 A 
ATOM      5  C   UNL     1      48.003   5.792  14.892  0.00  0.00    +0.000 A 
ATOM      6  N   UNL     1      47.835   6.677  13.837  0.00  0.00    +0.000 N 
ATOM      7  N   UNL     1      48.936   6.145  15.798  0.00  0.00    +0.000 NA
ATOM      8  C   UNL     1      49.205   5.276  16.809  0.00  0.00    +0.000 A 
ATOM      9  H   UNL     1      48.338   7.526  14.087  0.00  0.00    +0.000 HD
BRANCH   2  11
ATOM     10  N   UNL     1      48.238   3.205  19.205  0.00  0.00    +0.000 N 
ATOM     11  C   UNL     1      48.988   3.154  18.062  0.00  0.00    +0.000 C 
ATOM     12  O   UNL     1      49.927   2.378  17.953  0.00  0.00    +0.000 OA
ATOM     13  H   UNL     1      48.452   2.514  19.914  0.00  0.00    +0.000 HD
ATOM     14  H   UNL     1      47.323   3.634  19.240  0.00  0.00    +0.000 HD
ENDBRANCH   2  11
ENDBRANCH   1   6
BRANCH   1  15
ATOM     15  C   UNL     1      46.505   6.752  11.768  0.00  0.00    +0.000 C 
BRANCH  15  16
ATOM     16  C   UNL     1      45.662   5.581  11.317  0.00  0.00    +0.000 A 
ATOM     17  C   UNL     1      45.031   4.757  12.258  0.00  0.00    +0.000 A 
ATOM     18  C   UNL     1      44.207   3.723  11.830  0.00  0.00    +0.000 A 
ATOM     19  F   UNL     1      43.603   2.946  12.738  0.00  0.00    +0.000 F 
ATOM     20  C   UNL     1      43.986   3.494  10.478  0.00  0.00    +0.000 A 
ATOM     21  C   UNL     1      44.597   4.316   9.533  0.00  0.00    +0.000 A 
ATOM     22  C   UNL     1      45.443   5.347   9.949  0.00  0.00    +0.000 A 
BRANCH  21  23
ATOM     23  O   UNL     1      44.321   4.023   8.220  0.00  0.00    +0.000 OA
BRANCH  23  24
ATOM     24  C   UNL     1      45.075   2.971   7.578  0.00  0.00    +0.000 C 
ATOM     25  C   UNL     1      45.923   2.053   8.498  0.00  0.00    +0.000 C 
ATOM     26  C   UNL     1      47.036   2.107   7.439  0.00  0.00    +0.000 C 
ATOM     27  C   UNL     1      46.413   3.423   6.939  0.00  0.00    +0.000 C 
ENDBRANCH  23  24
ENDBRANCH  21  23
ENDBRANCH  15  16
ENDBRANCH   1  15
TORSDOF 6
ENDMDL
MODEL 9
REMARK VINA RESULT:    -6.640      3.910      7.433
REMARK INTER + INTRA:          -9.880
REMARK INTER:                  -9.155
REMARK INTRA:                  -0.725
REMARK UNBOUND:                -0.911
REMARK  Name = 
REMARK  6 active torsions:
REMARK  status: ('A' for Active; 'I' for Inactive)
REMARK    1  A    between atoms: C_2  and  C_4
REMARK    2  A    between atoms: N_8  and  C_9
REMARK    3  A    between atoms: C_9  and  C_10
REMARK    4  A    between atoms: C_10  and  C_11
REMARK    5  A    between atoms: C_16  and  O_17
REMARK    6  A    between atoms: O_17  and  C_18
REMARK                            x       y       z     vdW  Elec       q    Type
REMARK                         _______ _______ _______ _____ _____    ______ ____
ROOT
ATOM      1  C   UNL     1      47.421   5.558  13.340  0.00  0.00    +0.000 C 
ENDROOT
BRANCH   1   6
ATOM      2  C   UNL     1      46.053  10.237  11.954  0.00  0.00    +0.000 A 
ATOM      3  C   UNL     1      45.390   9.030  11.765  0.00  0.00    +0.000 A 
ATOM      4  C   UNL     1      45.863   7.886  12.406  0.00  0.00    +0.000 A 
ATOM      5  C   UNL     1      47.002   7.959  13.204  0.00  0.00    +0.000 A 
ATOM      6  N   UNL     1      47.485   6.884  13.937  0.00  0.00    +0.000 N 
ATOM      7  N   UNL     1      47.674   9.116  13.365  0.00  0.00    +0.000 NA
ATOM      8  C   UNL     1      47.196  10.224  12.739  0.00  0.00    +0.000 A 
ATOM      9  H   UNL     1      48.392   7.167  14.304  0.00  0.00    +0.000 HD
BRANCH   2  11
ATOM     10  N   UNL     1      44.392  11.997  11.795  0.00  0.00    +0.000 N 
ATOM     11  C   UNL     1      45.593  11.508  11.360  0.00  0.00    +0.000 C 
ATOM     12  O   UNL     1      46.270  12.118  10.545  0.00  0.00    +0.000 OA
ATOM     13  H   UNL     1      44.138  12.921  11.468  0.00  0.00    +0.000 HD
ATOM     14  H   UNL     1      43.938  11.664  12.635  0.00  0.00    +0.000 HD
ENDBRANCH   2  11
ENDBRANCH   1   6
BRANCH   1  15
ATOM     15  C   UNL     1      46.320   4.718  13.998  0.00  0.00    +0.000 C 
BRANCH  15  16
ATOM     16  C   UNL     1      45.209   4.439  13.013  0.00  0.00    +0.000 A 
ATOM     17  C   UNL     1      44.031   5.196  13.039  0.00  0.00    +0.000 A 
ATOM     18  C   UNL     1      43.043   4.973  12.087  0.00  0.00    +0.000 A 
ATOM     19  F   UNL     1      41.923   5.707  12.118  0.00  0.00    +0.000 F 
ATOM     20  C   UNL     1      43.204   4.013  11.096  0.00  0.00    +0.000 A 
ATOM     21  C   UNL     1      44.378   3.263  11.051  0.00  0.00    +0.000 A 
ATOM     22  C   UNL     1      45.371   3.464  12.013  0.00  0.00    +0.000 A 
BRANCH  21  23
ATOM     23  O   UNL     1      44.459   2.341  10.037  0.00  0.00    +0.000 OA
BRANCH  23  24
ATOM     24  C   UNL     1      44.744   2.813   8.701  0.00  0.00    +0.000 C 
ATOM     25  C   UNL     1      46.009   2.241   8.009  0.00  0.00    +0.000 C 
ATOM     26  C   UNL     1      46.294   3.654   7.476  0.00  0.00    +0.000 C 
ATOM     27  C   UNL     1      45.438   4.198   8.633  0.00  0.00    +0.000 C 
ENDBRANCH  23  24
ENDBRANCH  21  23
ENDBRANCH  15  16
ENDBRANCH   1  15
TORSDOF 6
ENDMDL
