MODEL 1
REMARK VINA RESULT:    -7.447      0.000      0.000
REMARK INTER + INTRA:          -9.797
REMARK INTER:                  -9.188
REMARK INTRA:                  -0.609
REMARK UNBOUND:                -0.609
REMARK  Name = 
REMARK  4 active torsions:
REMARK  status: ('A' for Active; 'I' for Inactive)
REMARK    1  A    between atoms: C_5  and  O_6
REMARK    2  A    between atoms: O_6  and  C_7
REMARK    3  A    between atoms: C_7  and  C_8
REMARK    4  A    between atoms: C_12  and  C_13
REMARK                            x       y       z     vdW  Elec       q    Type
REMARK                         _______ _______ _______ _____ _____    ______ ____
ROOT
ATOM      1  C   UNL     1      45.417   5.257  12.176  0.00  0.00    +0.000 A 
ATOM      2  C   UNL     1      46.156   6.320  11.655  0.00  0.00    +0.000 A 
ATOM      3  C   UNL     1      47.324   6.732  12.287  0.00  0.00    +0.000 A 
ATOM      4  C   UNL     1      47.737   6.075  13.436  0.00  0.00    +0.000 A 
ATOM      5  C   UNL     1      46.977   5.016  13.927  0.00  0.00    +0.000 A 
ATOM      6  N   UNL     1      45.837   4.610  13.297  0.00  0.00    +0.000 NA
ENDROOT
BRANCH   5   7
ATOM      7  C   UNL     1      47.336   4.299  15.174  0.00  0.00    +0.000 A 
ATOM      8  C   UNL     1      47.253   4.903  16.418  0.00  0.00    +0.000 A 
ATOM      9  C   UNL     1      47.647   4.151  17.501  0.00  0.00    +0.000 A 
ATOM     10  N   UNL     1      48.094   2.888  17.404  0.00  0.00    +0.000 NA
ATOM     11  C   UNL     1      48.135   2.385  16.164  0.00  0.00    +0.000 A 
ATOM     12  N   UNL     1      47.777   3.022  15.040  0.00  0.00    +0.000 NA
ENDBRANCH   5   7
BRANCH   1  13
ATOM     13  C   UNL     1      44.085   4.850  11.544  0.00  0.00    +0.000 C 
ATOM     14  C   UNL     1      42.825   4.966  12.403  0.00  0.00    +0.000 C 
ATOM     15  C   UNL     1      43.049   5.930  11.288  0.00  0.00    +0.000 C 
BRANCH  13  16
ATOM     16  O   UNL     1      44.050   3.606  10.808  0.00  0.00    +0.000 OA
BRANCH  16  21
ATOM     17  C   UNL     1      46.025   3.974   7.699  0.00  0.00    +0.000 A 
ATOM     18  C   UNL     1      46.310   2.626   7.530  0.00  0.00    +0.000 A 
ATOM     19  N   UNL     1      45.900   1.669   8.382  0.00  0.00    +0.000 NA
ATOM     20  C   UNL     1      45.167   2.084   9.444  0.00  0.00    +0.000 A 
ATOM     21  C   UNL     1      44.825   3.408   9.702  0.00  0.00    +0.000 A 
ATOM     22  C   UNL     1      45.266   4.368   8.803  0.00  0.00    +0.000 A 
ENDBRANCH  16  21
ENDBRANCH  13  16
ENDBRANCH   1  13
TORSDOF 4
ENDMDL
MODEL 2
REMARK VINA RESULT:    -7.004      2.124      3.397
REMARK INTER + INTRA:          -9.250
REMARK INTER:                  -8.452
REMARK INTRA:                  -0.798
REMARK UNBOUND:                -0.609
REMARK  Name = 
REMARK  4 active torsions:
REMARK  status: ('A' for Active; 'I' for Inactive)
REMARK    1  A    between atoms: C_5  and  O_6
REMARK    2  A    between atoms: O_6  and  C_7
REMARK    3  A    between atoms: C_7  and  C_8
REMARK    4  A    between atoms: C_12  and  C_13
REMARK                            x       y       z     vdW  Elec       q    Type
REMARK                         _______ _______ _______ _____ _____    ______ ____
ROOT
ATOM      1  C   UNL     1      45.092   4.722  12.090  0.00  0.00    +0.000 A 
ATOM      2  C   UNL     1      45.400   3.573  12.821  0.00  0.00    +0.000 A 
ATOM      3  C   UNL     1      46.574   3.514  13.562  0.00  0.00    +0.000 A 
ATOM      4  C   UNL     1      47.429   4.606  13.562  0.00  0.00    +0.000 A 
ATOM      5  C   UNL     1      47.088   5.738  12.824  0.00  0.00    +0.000 A 
ATOM      6  N   UNL     1      45.930   5.794  12.106  0.00  0.00    +0.000 NA
ENDROOT
BRANCH   5   7
ATOM      7  C   UNL     1      47.976   6.922  12.743  0.00  0.00    +0.000 A 
ATOM      8  C   UNL     1      47.624   8.057  12.029  0.00  0.00    +0.000 A 
ATOM      9  C   UNL     1      48.544   9.079  11.996  0.00  0.00    +0.000 A 
ATOM     10  N   UNL     1      49.737   9.025  12.612  0.00  0.00    +0.000 NA
ATOM     11  C   UNL     1      49.988   7.893  13.281  0.00  0.00    +0.000 A 
ATOM     12  N   UNL     1      49.171   6.836  13.383  0.00  0.00    +0.000 NA
ENDBRANCH   5   7
BRANCH   1  13
ATOM     13  C   UNL     1      43.849   4.769  11.200  0.00  0.00    +0.000 C 
ATOM     14  C   UNL     1      42.517   5.136  11.856  0.00  0.00    +0.000 C 
ATOM     15  C   UNL     1      43.189   6.114  10.954  0.00  0.00    +0.000 C 
BRANCH  13  16
ATOM     16  O   UNL     1      43.645   3.670  10.283  0.00  0.00    +0.000 OA
BRANCH  16  21
ATOM     17  C   UNL     1      46.104   3.625   7.516  0.00  0.00    +0.000 A 
ATOM     18  C   UNL     1      46.395   2.269   7.583  0.00  0.00    +0.000 A 
ATOM     19  N   UNL     1      45.838   1.434   8.479  0.00  0.00    +0.000 NA
ATOM     20  C   UNL     1      44.948   1.985   9.341  0.00  0.00    +0.000 A 
ATOM     21  C   UNL     1      44.586   3.329   9.356  0.00  0.00    +0.000 A 
ATOM     22  C   UNL     1      45.182   4.160   8.418  0.00  0.00    +0.000 A 
ENDBRANCH  16  21
ENDBRANCH  13  16
ENDBRANCH   1  13
TORSDOF 4
ENDMDL
MODEL 3
REMARK VINA RESULT:    -6.764      1.781      6.674
REMARK INTER + INTRA:          -8.954
REMARK INTER:                  -8.318
REMARK INTRA:                  -0.636
REMARK UNBOUND:                -0.609
REMARK  Name = 
REMARK  4 active torsions:
REMARK  status: ('A' for Active; 'I' for Inactive)
REMARK    1  A    between atoms: C_5  and  O_6
REMARK    2  A    between atoms: O_6  and  C_7
REMARK    3  A    between atoms: C_7  and  C_8
REMARK    4  A    between atoms: C_12  and  C_13
REMARK                            x       y       z     vdW  Elec       q    Type
REMARK                         _______ _______ _______ _____ _____    ______ ____
ROOT
ATOM      1  C   UNL     1      45.438   6.183  11.824  0.00  0.00    +0.000 A 
ATOM      2  C   UNL     1      44.075   6.362  12.065  0.00  0.00    +0.000 A 
ATOM      3  C   UNL     1      43.137   5.657  11.321  0.00  0.00    +0.000 A 
ATOM      4  C   UNL     1      43.575   4.780  10.340  0.00  0.00    +0.000 A 
ATOM      5  C   UNL     1      44.943   4.623  10.128  0.00  0.00    +0.000 A 
ATOM      6  N   UNL     1      45.860   5.311  10.868  0.00  0.00    +0.000 NA
ENDROOT
BRANCH   5   7
ATOM      7  C   UNL     1      45.479   3.737   9.067  0.00  0.00    +0.000 A 
ATOM      8  C   UNL     1      45.442   2.356   9.175  0.00  0.00    +0.000 A 
ATOM      9  C   UNL     1      46.003   1.638   8.144  0.00  0.00    +0.000 A 
ATOM     10  N   UNL     1      46.567   2.205   7.065  0.00  0.00    +0.000 NA
ATOM     11  C   UNL     1      46.552   3.543   7.044  0.00  0.00    +0.000 A 
ATOM     12  N   UNL     1      46.036   4.344   7.987  0.00  0.00    +0.000 NA
ENDBRANCH   5   7
BRANCH   1  13
ATOM     13  C   UNL     1      46.479   7.017  12.573  0.00  0.00    +0.000 C 
ATOM     14  C   UNL     1      46.878   8.365  11.970  0.00  0.00    +0.000 C 
ATOM     15  C   UNL     1      46.038   8.327  13.201  0.00  0.00    +0.000 C 
BRANCH  13  16
ATOM     16  O   UNL     1      47.663   6.335  13.046  0.00  0.00    +0.000 OA
BRANCH  16  21
ATOM     17  C   UNL     1      48.468   5.649  16.594  0.00  0.00    +0.000 A 
ATOM     18  C   UNL     1      47.709   4.494  16.709  0.00  0.00    +0.000 A 
ATOM     19  N   UNL     1      46.974   3.985  15.704  0.00  0.00    +0.000 NA
ATOM     20  C   UNL     1      47.008   4.664  14.532  0.00  0.00    +0.000 A 
ATOM     21  C   UNL     1      47.738   5.829  14.311  0.00  0.00    +0.000 A 
ATOM     22  C   UNL     1      48.483   6.325  15.371  0.00  0.00    +0.000 A 
ENDBRANCH  16  21
ENDBRANCH  13  16
ENDBRANCH   1  13
TORSDOF 4
ENDMDL
MODEL 4
REMARK VINA RESULT:    -6.571      3.192      6.855
REMARK INTER + INTRA:          -8.716
REMARK INTER:                  -8.006
REMARK INTRA:                  -0.710
REMARK UNBOUND:                -0.609
REMARK  Name = 
REMARK  4 active torsions:
REMARK  status: ('A' for Active; 'I' for Inactive)
REMARK    1  A    between atoms: C_5  and  O_6
REMARK    2  A    between atoms: O_6  and  C_7
REMARK    3  A    between atoms: C_7  and  C_8
REMARK    4  A    between atoms: C_12  and  C_13
REMARK                            x       y       z     vdW  Elec       q    Type
REMARK                         _______ _______ _______ _____ _____    ______ ____
ROOT
ATOM      1  C   UNL     1      45.110   6.228  11.680  0.00  0.00    +0.000 A 
ATOM      2  C   UNL     1      43.792   6.063  12.107  0.00  0.00    +0.000 A 
ATOM      3  C   UNL     1      42.990   5.084  11.532  0.00  0.00    +0.000 A 
ATOM      4  C   UNL     1      43.517   4.281  10.532  0.00  0.00    +0.000 A 
ATOM      5  C   UNL     1      44.839   4.471  10.132  0.00  0.00    +0.000 A 
ATOM      6  N   UNL     1      45.624   5.426  10.706  0.00  0.00    +0.000 NA
ENDROOT
BRANCH   5   7
ATOM      7  C   UNL     1      45.452   3.678   9.039  0.00  0.00    +0.000 A 
ATOM      8  C   UNL     1      45.503   2.294   9.074  0.00  0.00    +0.000 A 
ATOM      9  C   UNL     1      46.129   1.669   8.021  0.00  0.00    +0.000 A 
ATOM     10  N   UNL     1      46.676   2.328   6.986  0.00  0.00    +0.000 NA
ATOM     11  C   UNL     1      46.574   3.662   7.034  0.00  0.00    +0.000 A 
ATOM     12  N   UNL     1      45.989   4.376   8.005  0.00  0.00    +0.000 NA
ENDBRANCH   5   7
BRANCH   1  13
ATOM     13  C   UNL     1      45.976   7.357  12.239  0.00  0.00    +0.000 C 
ATOM     14  C   UNL     1      47.042   6.991  13.273  0.00  0.00    +0.000 C 
ATOM     15  C   UNL     1      47.454   7.372  11.892  0.00  0.00    +0.000 C 
BRANCH  13  16
ATOM     16  O   UNL     1      45.304   8.569  12.653  0.00  0.00    +0.000 OA
BRANCH  16  21
ATOM     17  C   UNL     1      43.824  10.681   9.997  0.00  0.00    +0.000 A 
ATOM     18  C   UNL     1      44.767  11.698  10.058  0.00  0.00    +0.000 A 
ATOM     19  N   UNL     1      45.802  11.699  10.918  0.00  0.00    +0.000 NA
ATOM     20  C   UNL     1      45.896  10.631  11.746  0.00  0.00    +0.000 A 
ATOM     21  C   UNL     1      45.007   9.560  11.764  0.00  0.00    +0.000 A 
ATOM     22  C   UNL     1      43.951   9.593  10.864  0.00  0.00    +0.000 A 
ENDBRANCH  16  21
ENDBRANCH  13  16
ENDBRANCH   1  13
TORSDOF 4
ENDMDL
MODEL 5
REMARK VINA RESULT:    -6.411      3.858      6.294
REMARK INTER + INTRA:          -8.519
REMARK INTER:                  -7.872
REMARK INTRA:                  -0.647
REMARK UNBOUND:                -0.609
REMARK  Name = 
REMARK  4 active torsions:
REMARK  status: ('A' for Active; 'I' for Inactive)
REMARK    1  A    between atoms: C_5  and  O_6
REMARK    2  A    between atoms: O_6  and  C_7
REMARK    3  A    between atoms: C_7  and  C_8
REMARK    4  A    between atoms: C_12  and  C_13
REMARK                            x       y       z     vdW  Elec       q    Type
REMARK                         _______ _______ _______ _____ _____    ______ ____
ROOT
ATOM      1  C   UNL     1      44.524   6.991  12.040  0.00  0.00    +0.000 A 
ATOM      2  C   UNL     1      45.645   7.270  12.822  0.00  0.00    +0.000 A 
ATOM      3  C   UNL     1      46.159   8.561  12.867  0.00  0.00    +0.000 A 
ATOM      4  C   UNL     1      45.545   9.558  12.125  0.00  0.00    +0.000 A 
ATOM      5  C   UNL     1      44.425   9.245  11.357  0.00  0.00    +0.000 A 
ATOM      6  N   UNL     1      43.919   7.979  11.324  0.00  0.00    +0.000 NA
ENDROOT
BRANCH   5   7
ATOM      7  C   UNL     1      43.747  10.252  10.506  0.00  0.00    +0.000 A 
ATOM      8  C   UNL     1      42.370  10.281  10.359  0.00  0.00    +0.000 A 
ATOM      9  C   UNL     1      41.856  11.238   9.515  0.00  0.00    +0.000 A 
ATOM     10  N   UNL     1      42.614  12.123   8.846  0.00  0.00    +0.000 NA
ATOM     11  C   UNL     1      43.933  12.023   9.054  0.00  0.00    +0.000 A 
ATOM     12  N   UNL     1      44.544  11.135   9.851  0.00  0.00    +0.000 NA
ENDBRANCH   5   7
BRANCH   1  13
ATOM     13  C   UNL     1      44.001   5.560  11.910  0.00  0.00    +0.000 C 
ATOM     14  C   UNL     1      43.061   5.044  13.001  0.00  0.00    +0.000 C 
ATOM     15  C   UNL     1      42.519   5.355  11.648  0.00  0.00    +0.000 C 
BRANCH  13  16
ATOM     16  O   UNL     1      44.958   4.529  11.575  0.00  0.00    +0.000 OA
BRANCH  16  21
ATOM     17  C   UNL     1      44.974   2.400   8.547  0.00  0.00    +0.000 A 
ATOM     18  C   UNL     1      45.462   3.364   7.676  0.00  0.00    +0.000 A 
ATOM     19  N   UNL     1      45.749   4.624   8.050  0.00  0.00    +0.000 NA
ATOM     20  C   UNL     1      45.542   4.925   9.355  0.00  0.00    +0.000 A 
ATOM     21  C   UNL     1      45.059   4.033  10.308  0.00  0.00    +0.000 A 
ATOM     22  C   UNL     1      44.774   2.742   9.886  0.00  0.00    +0.000 A 
ENDBRANCH  16  21
ENDBRANCH  13  16
ENDBRANCH   1  13
TORSDOF 4
ENDMDL
MODEL 6
REMARK VINA RESULT:    -6.203      2.145      6.768
REMARK INTER + INTRA:          -8.262
REMARK INTER:                  -7.729
REMARK INTRA:                  -0.533
REMARK UNBOUND:                -0.609
REMARK  Name = 
REMARK  4 active torsions:
REMARK  status: ('A' for Active; 'I' for Inactive)
REMARK    1  A    between atoms: C_5  and  O_6
REMARK    2  A    between atoms: O_6  and  C_7
REMARK    3  A    between atoms: C_7  and  C_8
REMARK    4  A    between atoms: C_12  and  C_13
REMARK                            x       y       z     vdW  Elec       q    Type
REMARK                         _______ _______ _______ _____ _____    ______ ____
ROOT
ATOM      1  C   UNL     1      46.902   7.355  13.099  0.00  0.00    +0.000 A 
ATOM      2  C   UNL     1      46.213   8.564  12.995  0.00  0.00    +0.000 A 
ATOM      3  C   UNL     1      45.127   8.676  12.135  0.00  0.00    +0.000 A 
ATOM      4  C   UNL     1      44.746   7.575  11.383  0.00  0.00    +0.000 A 
ATOM      5  C   UNL     1      45.454   6.382  11.513  0.00  0.00    +0.000 A 
ATOM      6  N   UNL     1      46.512   6.275  12.366  0.00  0.00    +0.000 NA
ENDROOT
BRANCH   5   7
ATOM      7  C   UNL     1      45.128   5.180  10.708  0.00  0.00    +0.000 A 
ATOM      8  C   UNL     1      45.529   5.049   9.388  0.00  0.00    +0.000 A 
ATOM      9  C   UNL     1      45.137   3.906   8.731  0.00  0.00    +0.000 A 
ATOM     10  N   UNL     1      44.404   2.936   9.302  0.00  0.00    +0.000 NA
ATOM     11  C   UNL     1      44.067   3.146  10.581  0.00  0.00    +0.000 A 
ATOM     12  N   UNL     1      44.392   4.217  11.319  0.00  0.00    +0.000 NA
ENDBRANCH   5   7
BRANCH   1  13
ATOM     13  C   UNL     1      48.151   7.241  13.974  0.00  0.00    +0.000 C 
ATOM     14  C   UNL     1      49.397   8.013  13.538  0.00  0.00    +0.000 C 
ATOM     15  C   UNL     1      48.621   8.475  14.724  0.00  0.00    +0.000 C 
BRANCH  13  16
ATOM     16  O   UNL     1      48.537   5.919  14.414  0.00  0.00    +0.000 OA
BRANCH  16  21
ATOM     17  C   UNL     1      48.062   5.195  18.014  0.00  0.00    +0.000 A 
ATOM     18  C   UNL     1      47.183   4.134  17.849  0.00  0.00    +0.000 A 
ATOM     19  N   UNL     1      46.764   3.698  16.647  0.00  0.00    +0.000 NA
ATOM     20  C   UNL     1      47.253   4.353  15.566  0.00  0.00    +0.000 A 
ATOM     21  C   UNL     1      48.139   5.425  15.623  0.00  0.00    +0.000 A 
ATOM     22  C   UNL     1      48.549   5.848  16.879  0.00  0.00    +0.000 A 
ENDBRANCH  16  21
ENDBRANCH  13  16
ENDBRANCH   1  13
TORSDOF 4
ENDMDL
MODEL 7
REMARK VINA RESULT:    -5.982      2.873      7.299
REMARK INTER + INTRA:          -7.990
REMARK INTER:                  -7.965
REMARK INTRA:                  -0.025
REMARK UNBOUND:                -0.609
REMARK  Name = 
REMARK  4 active torsions:
REMARK  status: ('A' for Active; 'I' for Inactive)
REMARK    1  A    between atoms: C_5  and  O_6
REMARK    2  A    between atoms: O_6  and  C_7
REMARK    3  A    between atoms: C_7  and  C_8
REMARK    4  A    between atoms: C_12  and  C_13
REMARK                            x       y       z     vdW  Elec       q    Type
REMARK                         _______ _______ _______ _____ _____    ______ ____
ROOT
ATOM      1  C   UNL     1      47.709   5.231  15.367  0.00  0.00    +0.000 A 
ATOM      2  C   UNL     1      48.467   6.302  14.891  0.00  0.00    +0.000 A 
ATOM      3  C   UNL     1      48.203   6.840  13.638  0.00  0.00    +0.000 A 
ATOM      4  C   UNL     1      47.183   6.297  12.871  0.00  0.00    +0.000 A 
ATOM      5  C   UNL     1      46.443   5.231  13.378  0.00  0.00    +0.000 A 
ATOM      6  N   UNL     1      46.701   4.713  14.613  0.00  0.00    +0.000 NA
ENDROOT
BRANCH   5   7
ATOM      7  C   UNL     1      45.369   4.574  12.595  0.00  0.00    +0.000 A 
ATOM      8  C   UNL     1      45.143   4.876  11.262  0.00  0.00    +0.000 A 
ATOM      9  C   UNL     1      44.094   4.230  10.649  0.00  0.00    +0.000 A 
ATOM     10  N   UNL     1      43.304   3.340  11.272  0.00  0.00    +0.000 NA
ATOM     11  C   UNL     1      43.601   3.107  12.557  0.00  0.00    +0.000 A 
ATOM     12  N   UNL     1      44.594   3.675  13.255  0.00  0.00    +0.000 NA
ENDBRANCH   5   7
BRANCH   1  13
ATOM     13  C   UNL     1      48.045   4.571  16.705  0.00  0.00    +0.000 C 
ATOM     14  C   UNL     1      47.014   4.680  17.830  0.00  0.00    +0.000 C 
ATOM     15  C   UNL     1      47.222   3.373  17.144  0.00  0.00    +0.000 C 
BRANCH  13  16
ATOM     16  O   UNL     1      49.368   4.795  17.244  0.00  0.00    +0.000 OA
BRANCH  16  21
ATOM     17  C   UNL     1      51.110   1.529  17.282  0.00  0.00    +0.000 A 
ATOM     18  C   UNL     1      52.311   1.994  17.798  0.00  0.00    +0.000 A 
ATOM     19  N   UNL     1      52.539   3.286  18.097  0.00  0.00    +0.000 NA
ATOM     20  C   UNL     1      51.514   4.144  17.872  0.00  0.00    +0.000 A 
ATOM     21  C   UNL     1      50.272   3.780  17.360  0.00  0.00    +0.000 A 
ATOM     22  C   UNL     1      50.074   2.439  17.063  0.00  0.00    +0.000 A 
ENDBRANCH  16  21
ENDBRANCH  13  16
ENDBRANCH   1  13
TORSDOF 4
ENDMDL
MODEL 8
REMARK VINA RESULT:    -5.857      3.291      6.328
REMARK INTER + INTRA:          -7.835
REMARK INTER:                  -7.251
REMARK INTRA:                  -0.584
REMARK UNBOUND:                -0.609
REMARK  Name = 
REMARK  4 active torsions:
REMARK  status: ('A' for Active; 'I' for Inactive)
REMARK    1  A    between atoms: C_5  and  O_6
REMARK    2  A    between atoms: O_6  and  C_7
REMARK    3  A    between atoms: C_7  and  C_8
REMARK    4  A    between atoms: C_12  and  C_13
REMARK                            x       y       z     vdW  Elec       q    Type
REMARK                         _______ _______ _______ _____ _____    ______ ____
ROOT
ATOM      1  C   UNL     1      47.889   6.737  13.299  0.00  0.00    +0.000 A 
ATOM      2  C   UNL     1      48.238   6.322  14.584  0.00  0.00    +0.000 A 
ATOM      3  C   UNL     1      47.612   5.220  15.154  0.00  0.00    +0.000 A 
ATOM      4  C   UNL     1      46.640   4.546  14.431  0.00  0.00    +0.000 A 
ATOM      5  C   UNL     1      46.318   4.986  13.148  0.00  0.00    +0.000 A 
ATOM      6  N   UNL     1      46.942   6.062  12.590  0.00  0.00    +0.000 NA
ENDROOT
BRANCH   5   7
ATOM      7  C   UNL     1      45.258   4.341  12.337  0.00  0.00    +0.000 A 
ATOM      8  C   UNL     1      44.981   4.740  11.040  0.00  0.00    +0.000 A 
ATOM      9  C   UNL     1      43.951   4.092  10.397  0.00  0.00    +0.000 A 
ATOM     10  N   UNL     1      43.224   3.113  10.961  0.00  0.00    +0.000 NA
ATOM     11  C   UNL     1      43.567   2.790  12.214  0.00  0.00    +0.000 A 
ATOM     12  N   UNL     1      44.548   3.350  12.936  0.00  0.00    +0.000 NA
ENDBRANCH   5   7
BRANCH   1  13
ATOM     13  C   UNL     1      48.504   8.000  12.693  0.00  0.00    +0.000 C 
ATOM     14  C   UNL     1      50.029   8.105  12.665  0.00  0.00    +0.000 C 
ATOM     15  C   UNL     1      49.283   7.871  11.396  0.00  0.00    +0.000 C 
BRANCH  13  16
ATOM     16  O   UNL     1      47.943   9.271  13.093  0.00  0.00    +0.000 OA
BRANCH  16  21
ATOM     17  C   UNL     1      44.565   9.961  11.744  0.00  0.00    +0.000 A 
ATOM     18  C   UNL     1      44.912  11.090  11.015  0.00  0.00    +0.000 A 
ATOM     19  N   UNL     1      46.157  11.598  10.981  0.00  0.00    +0.000 NA
ATOM     20  C   UNL     1      47.094  10.939  11.706  0.00  0.00    +0.000 A 
ATOM     21  C   UNL     1      46.852   9.799  12.467  0.00  0.00    +0.000 A 
ATOM     22  C   UNL     1      45.555   9.305  12.479  0.00  0.00    +0.000 A 
ENDBRANCH  16  21
ENDBRANCH  13  16
ENDBRANCH   1  13
TORSDOF 4
ENDMDL
MODEL 9
REMARK VINA RESULT:    -5.791      2.761      6.989
REMARK INTER + INTRA:          -7.754
REMARK INTER:                  -7.081
REMARK INTRA:                  -0.673
REMARK UNBOUND:                -0.609
REMARK  Name = 
REMARK  4 active torsions:
REMARK  status: ('A' for Active; 'I' for Inactive)
REMARK    1  A    between atoms: C_5  and  O_6
REMARK    2  A    between atoms: O_6  and  C_7
REMARK    3  A    between atoms: C_7  and  C_8
REMARK    4  A    between atoms: C_12  and  C_13
REMARK                            x       y       z     vdW  Elec       q    Type
REMARK                         _______ _______ _______ _____ _____    ______ ____
ROOT
ATOM      1  C   UNL     1      47.307   7.567  12.457  0.00  0.00    +0.000 A 
ATOM      2  C   UNL     1      46.633   8.781  12.317  0.00  0.00    +0.000 A 
ATOM      3  C   UNL     1      45.313   8.798  11.882  0.00  0.00    +0.000 A 
ATOM      4  C   UNL     1      44.683   7.599  11.589  0.00  0.00    +0.000 A 
ATOM      5  C   UNL     1      45.384   6.405  11.743  0.00  0.00    +0.000 A 
ATOM      6  N   UNL     1      46.676   6.392  12.179  0.00  0.00    +0.000 NA
ENDROOT
BRANCH   5   7
ATOM      7  C   UNL     1      44.787   5.091  11.405  0.00  0.00    +0.000 A 
ATOM      8  C   UNL     1      44.920   4.524  10.148  0.00  0.00    +0.000 A 
ATOM      9  C   UNL     1      44.291   3.318   9.941  0.00  0.00    +0.000 A 
ATOM     10  N   UNL     1      43.576   2.682  10.883  0.00  0.00    +0.000 NA
ATOM     11  C   UNL     1      43.507   3.301  12.069  0.00  0.00    +0.000 A 
ATOM     12  N   UNL     1      44.077   4.473  12.384  0.00  0.00    +0.000 NA
ENDBRANCH   5   7
BRANCH   1  13
ATOM     13  C   UNL     1      48.785   7.536  12.849  0.00  0.00    +0.000 C 
ATOM     14  C   UNL     1      49.814   7.365  11.730  0.00  0.00    +0.000 C 
ATOM     15  C   UNL     1      49.673   8.686  12.406  0.00  0.00    +0.000 C 
BRANCH  13  16
ATOM     16  O   UNL     1      49.158   6.707  13.973  0.00  0.00    +0.000 OA
BRANCH  16  21
ATOM     17  C   UNL     1      48.479   8.585  17.091  0.00  0.00    +0.000 A 
ATOM     18  C   UNL     1      48.485   7.489  17.942  0.00  0.00    +0.000 A 
ATOM     19  N   UNL     1      48.681   6.226  17.523  0.00  0.00    +0.000 NA
ATOM     20  C   UNL     1      48.885   6.058  16.194  0.00  0.00    +0.000 A 
ATOM     21  C   UNL     1      48.900   7.089  15.258  0.00  0.00    +0.000 A 
ATOM     22  C   UNL     1      48.693   8.378  15.726  0.00  0.00    +0.000 A 
ENDBRANCH  16  21
ENDBRANCH  13  16
ENDBRANCH   1  13
TORSDOF 4
ENDMDL
