MODEL 1
REMARK VINA RESULT:    -8.155      0.000      0.000
REMARK INTER + INTRA:         -14.382
REMARK INTER:                 -12.685
REMARK INTRA:                  -1.698
REMARK UNBOUND:                -1.698
REMARK  Name = 
REMARK  10 active torsions:
REMARK  status: ('A' for Active; 'I' for Inactive)
REMARK    1  A    between atoms: C_2  and  C_23
REMARK    2  A    between atoms: N_3  and  C_4
REMARK    3  A    between atoms: C_4  and  C_5
REMARK    4  A    between atoms: C_8  and  C_9
REMARK    5  A    between atoms: C_9  and  N_10
REMARK    6  A    between atoms: N_10  and  C_11
REMARK    7  A    between atoms: N_10  and  C_14
REMARK    8  A    between atoms: C_11  and  C_12
REMARK    9  A    between atoms: C_12  and  O_13
REMARK   10  A    between atoms: C_14  and  C_15
REMARK                            x       y       z     vdW  Elec       q    Type
REMARK                         _______ _______ _______ _____ _____    ______ ____
ROOT
ATOM      1  C   UNL     1      46.803   7.854  12.828  0.00  0.00    +0.000 A 
ATOM      2  C   UNL     1      47.332   6.895  11.969  0.00  0.00    +0.000 A 
ATOM      3  C   UNL     1      46.466   6.150  11.167  0.00  0.00    +0.000 A 
ATOM      4  C   UNL     1      45.086   6.358  11.247  0.00  0.00    +0.000 A 
ATOM      5  C   UNL     1      44.649   7.343  12.124  0.00  0.00    +0.000 A 
ATOM      6  N   UNL     1      45.467   8.084  12.912  0.00  0.00    +0.000 NA
ENDROOT
BRANCH   1   7
ATOM      7  C   UNL     1      47.705   8.611  13.779  0.00  0.00    +0.000 C 
BRANCH   7  10
ATOM      8  O   UNL     1      50.101   7.201  14.266  0.00  0.00    +0.000 OA
ATOM      9  C   UNL     1      49.185   7.120  15.074  0.00  0.00    +0.000 C 
ATOM     10  N   UNL     1      48.017   7.825  14.953  0.00  0.00    +0.000 N 
ATOM     11  H   UNL     1      47.287   7.728  15.644  0.00  0.00    +0.000 HD
BRANCH   9  12
ATOM     12  C   UNL     1      49.281   6.285  16.277  0.00  0.00    +0.000 A 
ATOM     13  C   UNL     1      50.186   6.580  17.285  0.00  0.00    +0.000 A 
ATOM     14  S   UNL     1      50.083   5.515  18.617  0.00  0.00    +0.000 S 
ATOM     15  C   UNL     1      48.865   4.594  17.862  0.00  0.00    +0.000 A 
ATOM     16  N   UNL     1      48.316   3.509  18.475  0.00  0.00    +0.000 NA
ATOM     17  C   UNL     1      47.427   2.894  17.768  0.00  0.00    +0.000 A 
ATOM     18  N   UNL     1      47.046   3.255  16.500  0.00  0.00    +0.000 N 
ATOM     19  C   UNL     1      47.579   4.334  15.837  0.00  0.00    +0.000 A 
ATOM     20  O   UNL     1      47.231   4.609  14.694  0.00  0.00    +0.000 OA
ATOM     21  C   UNL     1      48.552   5.085  16.608  0.00  0.00    +0.000 A 
ATOM     22  H   UNL     1      46.357   2.719  15.994  0.00  0.00    +0.000 HD
ENDBRANCH   9  12
ENDBRANCH   7  10
ENDBRANCH   1   7
BRANCH   4  23
ATOM     23  C   UNL     1      44.116   5.460  10.516  0.00  0.00    +0.000 C 
BRANCH  23  24
ATOM     24  N   UNL     1      44.602   4.096  10.196  0.00  0.00    +0.000 NA
BRANCH  24  25
ATOM     25  C   UNL     1      43.816   3.086  10.953  0.00  0.00    +0.000 C 
BRANCH  25  26
ATOM     26  C   UNL     1      44.039   3.077  12.478  0.00  0.00    +0.000 C 
BRANCH  26  27
ATOM     27  O   UNL     1      45.413   2.846  12.778  0.00  0.00    +0.000 OA
ATOM     28  H   UNL     1      45.546   3.077  13.714  0.00  0.00    +0.000 HD
ENDBRANCH  26  27
ENDBRANCH  25  26
ENDBRANCH  24  25
BRANCH  24  29
ATOM     29  C   UNL     1      44.452   3.852   8.738  0.00  0.00    +0.000 C 
BRANCH  29  30
ATOM     30  C   UNL     1      45.522   2.992   8.111  0.00  0.00    +0.000 A 
ATOM     31  C   UNL     1      46.473   3.518   7.232  0.00  0.00    +0.000 A 
ATOM     32  C   UNL     1      47.490   2.699   6.746  0.00  0.00    +0.000 A 
ATOM     33  C   UNL     1      47.519   1.375   7.153  0.00  0.00    +0.000 A 
ATOM     34  N   UNL     1      46.612   0.827   7.988  0.00  0.00    +0.000 NA
ATOM     35  C   UNL     1      45.640   1.646   8.449  0.00  0.00    +0.000 A 
ENDBRANCH  29  30
ENDBRANCH  24  29
ENDBRANCH  23  24
ENDBRANCH   4  23
TORSDOF 10
ENDMDL
MODEL 2
REMARK VINA RESULT:    -7.057      2.184      2.715
REMARK INTER + INTRA:         -12.674
REMARK INTER:                 -11.523
REMARK INTRA:                  -1.151
REMARK UNBOUND:                -1.698
REMARK  Name = 
REMARK  10 active torsions:
REMARK  status: ('A' for Active; 'I' for Inactive)
REMARK    1  A    between atoms: C_2  and  C_23
REMARK    2  A    between atoms: N_3  and  C_4
REMARK    3  A    between atoms: C_4  and  C_5
REMARK    4  A    between atoms: C_8  and  C_9
REMARK    5  A    between atoms: C_9  and  N_10
REMARK    6  A    between atoms: N_10  and  C_11
REMARK    7  A    between atoms: N_10  and  C_14
REMARK    8  A    between atoms: C_11  and  C_12
REMARK    9  A    between atoms: C_12  and  O_13
REMARK   10  A    between atoms: C_14  and  C_15
REMARK                            x       y       z     vdW  Elec       q    Type
REMARK                         _______ _______ _______ _____ _____    ______ ____
ROOT
ATOM      1  C   UNL     1      47.943   6.735  13.487  0.00  0.00    +0.000 A 
ATOM      2  C   UNL     1      47.536   7.737  12.610  0.00  0.00    +0.000 A 
ATOM      3  C   UNL     1      46.455   7.496  11.760  0.00  0.00    +0.000 A 
ATOM      4  C   UNL     1      45.809   6.257  11.783  0.00  0.00    +0.000 A 
ATOM      5  C   UNL     1      46.277   5.322  12.697  0.00  0.00    +0.000 A 
ATOM      6  N   UNL     1      47.321   5.529  13.538  0.00  0.00    +0.000 NA
ENDROOT
BRANCH   1   7
ATOM      7  C   UNL     1      49.170   6.928  14.354  0.00  0.00    +0.000 C 
BRANCH   7  10
ATOM      8  O   UNL     1      50.974   6.052  16.340  0.00  0.00    +0.000 OA
ATOM      9  C   UNL     1      49.797   6.221  16.633  0.00  0.00    +0.000 C 
ATOM     10  N   UNL     1      48.870   6.711  15.752  0.00  0.00    +0.000 N 
ATOM     11  H   UNL     1      47.909   6.835  16.038  0.00  0.00    +0.000 HD
BRANCH   9  12
ATOM     12  C   UNL     1      49.286   5.951  17.983  0.00  0.00    +0.000 A 
ATOM     13  C   UNL     1      49.376   4.685  18.543  0.00  0.00    +0.000 A 
ATOM     14  S   UNL     1      48.777   4.613  20.142  0.00  0.00    +0.000 S 
ATOM     15  C   UNL     1      48.328   6.256  20.111  0.00  0.00    +0.000 A 
ATOM     16  N   UNL     1      47.746   6.850  21.189  0.00  0.00    +0.000 NA
ATOM     17  C   UNL     1      47.434   8.090  21.007  0.00  0.00    +0.000 A 
ATOM     18  N   UNL     1      47.637   8.787  19.843  0.00  0.00    +0.000 N 
ATOM     19  C   UNL     1      48.210   8.228  18.725  0.00  0.00    +0.000 A 
ATOM     20  O   UNL     1      48.351   8.876  17.695  0.00  0.00    +0.000 OA
ATOM     21  C   UNL     1      48.619   6.845  18.895  0.00  0.00    +0.000 A 
ATOM     22  H   UNL     1      47.353   9.751  19.760  0.00  0.00    +0.000 HD
ENDBRANCH   9  12
ENDBRANCH   7  10
ENDBRANCH   1   7
BRANCH   4  23
ATOM     23  C   UNL     1      44.747   5.911  10.766  0.00  0.00    +0.000 C 
BRANCH  23  24
ATOM     24  N   UNL     1      44.556   4.467  10.485  0.00  0.00    +0.000 NA
BRANCH  24  25
ATOM     25  C   UNL     1      43.354   3.964  11.202  0.00  0.00    +0.000 C 
BRANCH  25  26
ATOM     26  C   UNL     1      43.597   2.783  12.161  0.00  0.00    +0.000 C 
BRANCH  26  27
ATOM     27  O   UNL     1      43.019   1.590  11.638  0.00  0.00    +0.000 OA
ATOM     28  H   UNL     1      43.751   1.009  11.370  0.00  0.00    +0.000 HD
ENDBRANCH  26  27
ENDBRANCH  25  26
ENDBRANCH  24  25
BRANCH  24  29
ATOM     29  C   UNL     1      44.382   4.272   9.023  0.00  0.00    +0.000 C 
BRANCH  29  30
ATOM     30  C   UNL     1      45.345   3.305   8.379  0.00  0.00    +0.000 A 
ATOM     31  C   UNL     1      46.298   3.721   7.445  0.00  0.00    +0.000 A 
ATOM     32  C   UNL     1      47.217   2.804   6.942  0.00  0.00    +0.000 A 
ATOM     33  C   UNL     1      47.151   1.493   7.389  0.00  0.00    +0.000 A 
ATOM     34  N   UNL     1      46.238   1.050   8.278  0.00  0.00    +0.000 NA
ATOM     35  C   UNL     1      45.362   1.964   8.753  0.00  0.00    +0.000 A 
ENDBRANCH  29  30
ENDBRANCH  24  29
ENDBRANCH  23  24
ENDBRANCH   4  23
TORSDOF 10
ENDMDL
MODEL 3
REMARK VINA RESULT:    -6.884      2.704      3.720
REMARK INTER + INTRA:         -12.405
REMARK INTER:                 -11.089
REMARK INTRA:                  -1.317
REMARK UNBOUND:                -1.698
REMARK  Name = 
REMARK  10 active torsions:
REMARK  status: ('A' for Active; 'I' for Inactive)
REMARK    1  A    between atoms: C_2  and  C_23
REMARK    2  A    between atoms: N_3  and  C_4
REMARK    3  A    between atoms: C_4  and  C_5
REMARK    4  A    between atoms: C_8  and  C_9
REMARK    5  A    between atoms: C_9  and  N_10
REMARK    6  A    between atoms: N_10  and  C_11
REMARK    7  A    between atoms: N_10  and  C_14
REMARK    8  A    between atoms: C_11  and  C_12
REMARK    9  A    between atoms: C_12  and  O_13
REMARK   10  A    between atoms: C_14  and  C_15
REMARK                            x       y       z     vdW  Elec       q    Type
REMARK                         _______ _______ _______ _____ _____    ______ ____
ROOT
ATOM      1  C   UNL     1      47.101   4.927  14.767  0.00  0.00    +0.000 A 
ATOM      2  C   UNL     1      46.577   3.806  14.129  0.00  0.00    +0.000 A 
ATOM      3  C   UNL     1      46.168   3.913  12.799  0.00  0.00    +0.000 A 
ATOM      4  C   UNL     1      46.269   5.137  12.131  0.00  0.00    +0.000 A 
ATOM      5  C   UNL     1      46.813   6.198  12.844  0.00  0.00    +0.000 A 
ATOM      6  N   UNL     1      47.222   6.123  14.135  0.00  0.00    +0.000 NA
ENDROOT
BRANCH   1   7
ATOM      7  C   UNL     1      47.465   4.872  16.236  0.00  0.00    +0.000 C 
BRANCH   7  10
ATOM      8  O   UNL     1      48.086   2.786  18.033  0.00  0.00    +0.000 OA
ATOM      9  C   UNL     1      48.985   3.301  17.382  0.00  0.00    +0.000 C 
ATOM     10  N   UNL     1      48.764   4.269  16.438  0.00  0.00    +0.000 N 
ATOM     11  H   UNL     1      49.537   4.667  15.924  0.00  0.00    +0.000 HD
BRANCH   9  12
ATOM     12  C   UNL     1      50.386   2.890  17.530  0.00  0.00    +0.000 A 
ATOM     13  C   UNL     1      50.765   1.566  17.368  0.00  0.00    +0.000 A 
ATOM     14  S   UNL     1      52.450   1.323  17.522  0.00  0.00    +0.000 S 
ATOM     15  C   UNL     1      52.715   2.971  17.865  0.00  0.00    +0.000 A 
ATOM     16  N   UNL     1      53.967   3.451  18.102  0.00  0.00    +0.000 NA
ATOM     17  C   UNL     1      54.008   4.713  18.377  0.00  0.00    +0.000 A 
ATOM     18  N   UNL     1      52.912   5.535  18.451  0.00  0.00    +0.000 N 
ATOM     19  C   UNL     1      51.628   5.094  18.231  0.00  0.00    +0.000 A 
ATOM     20  O   UNL     1      50.673   5.854  18.333  0.00  0.00    +0.000 OA
ATOM     21  C   UNL     1      51.535   3.690  17.875  0.00  0.00    +0.000 A 
ATOM     22  H   UNL     1      53.011   6.510  18.690  0.00  0.00    +0.000 HD
ENDBRANCH   9  12
ENDBRANCH   7  10
ENDBRANCH   1   7
BRANCH   4  23
ATOM     23  C   UNL     1      45.686   5.324  10.750  0.00  0.00    +0.000 C 
BRANCH  23  24
ATOM     24  N   UNL     1      44.452   4.558  10.451  0.00  0.00    +0.000 NA
BRANCH  24  25
ATOM     25  C   UNL     1      43.262   5.298  10.947  0.00  0.00    +0.000 C 
BRANCH  25  26
ATOM     26  C   UNL     1      42.696   4.819  12.297  0.00  0.00    +0.000 C 
BRANCH  26  27
ATOM     27  O   UNL     1      42.952   5.784  13.314  0.00  0.00    +0.000 OA
ATOM     28  H   UNL     1      42.096   6.013  13.716  0.00  0.00    +0.000 HD
ENDBRANCH  26  27
ENDBRANCH  25  26
ENDBRANCH  24  25
BRANCH  24  29
ATOM     29  C   UNL     1      44.341   4.362   8.983  0.00  0.00    +0.000 C 
BRANCH  29  30
ATOM     30  C   UNL     1      45.271   3.331   8.394  0.00  0.00    +0.000 A 
ATOM     31  C   UNL     1      46.238   3.663   7.441  0.00  0.00    +0.000 A 
ATOM     32  C   UNL     1      47.127   2.690   6.991  0.00  0.00    +0.000 A 
ATOM     33  C   UNL     1      47.015   1.409   7.506  0.00  0.00    +0.000 A 
ATOM     34  N   UNL     1      46.087   1.045   8.415  0.00  0.00    +0.000 NA
ATOM     35  C   UNL     1      45.242   2.012   8.839  0.00  0.00    +0.000 A 
ENDBRANCH  29  30
ENDBRANCH  24  29
ENDBRANCH  23  24
ENDBRANCH   4  23
TORSDOF 10
ENDMDL
MODEL 4
REMARK VINA RESULT:    -6.874      2.561      3.022
REMARK INTER + INTRA:         -12.389
REMARK INTER:                 -11.224
REMARK INTRA:                  -1.165
REMARK UNBOUND:                -1.698
REMARK  Name = 
REMARK  10 active torsions:
REMARK  status: ('A' for Active; 'I' for Inactive)
REMARK    1  A    between atoms: C_2  and  C_23
REMARK    2  A    between atoms: N_3  and  C_4
REMARK    3  A    between atoms: C_4  and  C_5
REMARK    4  A    between atoms: C_8  and  C_9
REMARK    5  A    between atoms: C_9  and  N_10
REMARK    6  A    between atoms: N_10  and  C_11
REMARK    7  A    between atoms: N_10  and  C_14
REMARK    8  A    between atoms: C_11  and  C_12
REMARK    9  A    between atoms: C_12  and  O_13
REMARK   10  A    between atoms: C_14  and  C_15
REMARK                            x       y       z     vdW  Elec       q    Type
REMARK                         _______ _______ _______ _____ _____    ______ ____
ROOT
ATOM      1  C   UNL     1      47.544   6.089  14.534  0.00  0.00    +0.000 A 
ATOM      2  C   UNL     1      46.966   4.868  14.193  0.00  0.00    +0.000 A 
ATOM      3  C   UNL     1      46.462   4.694  12.903  0.00  0.00    +0.000 A 
ATOM      4  C   UNL     1      46.523   5.742  11.980  0.00  0.00    +0.000 A 
ATOM      5  C   UNL     1      47.126   6.919  12.405  0.00  0.00    +0.000 A 
ATOM      6  N   UNL     1      47.628   7.116  13.649  0.00  0.00    +0.000 NA
ENDROOT
BRANCH   1   7
ATOM      7  C   UNL     1      48.014   6.344  15.951  0.00  0.00    +0.000 C 
BRANCH   7  10
ATOM      8  O   UNL     1      49.323   6.217  18.448  0.00  0.00    +0.000 OA
ATOM      9  C   UNL     1      49.806   5.629  17.489  0.00  0.00    +0.000 C 
ATOM     10  N   UNL     1      49.202   5.579  16.261  0.00  0.00    +0.000 N 
ATOM     11  H   UNL     1      49.636   5.081  15.497  0.00  0.00    +0.000 HD
BRANCH   9  12
ATOM     12  C   UNL     1      51.066   4.883  17.589  0.00  0.00    +0.000 A 
ATOM     13  C   UNL     1      52.283   5.541  17.683  0.00  0.00    +0.000 A 
ATOM     14  S   UNL     1      53.612   4.480  17.852  0.00  0.00    +0.000 S 
ATOM     15  C   UNL     1      52.606   3.109  17.749  0.00  0.00    +0.000 A 
ATOM     16  N   UNL     1      53.117   1.850  17.826  0.00  0.00    +0.000 NA
ATOM     17  C   UNL     1      52.237   0.912  17.701  0.00  0.00    +0.000 A 
ATOM     18  N   UNL     1      50.897   1.117  17.492  0.00  0.00    +0.000 N 
ATOM     19  C   UNL     1      50.337   2.368  17.396  0.00  0.00    +0.000 A 
ATOM     20  O   UNL     1      49.138   2.510  17.183  0.00  0.00    +0.000 OA
ATOM     21  C   UNL     1      51.280   3.457  17.574  0.00  0.00    +0.000 A 
ATOM     22  H   UNL     1      50.265   0.338  17.384  0.00  0.00    +0.000 HD
ENDBRANCH   9  12
ENDBRANCH   7  10
ENDBRANCH   1   7
BRANCH   4  23
ATOM     23  C   UNL     1      45.843   5.639  10.635  0.00  0.00    +0.000 C 
BRANCH  23  24
ATOM     24  N   UNL     1      44.652   4.758  10.570  0.00  0.00    +0.000 NA
BRANCH  24  25
ATOM     25  C   UNL     1      43.466   5.465  11.123  0.00  0.00    +0.000 C 
BRANCH  25  26
ATOM     26  C   UNL     1      42.824   4.816  12.364  0.00  0.00    +0.000 C 
BRANCH  26  27
ATOM     27  O   UNL     1      42.863   5.714  13.471  0.00  0.00    +0.000 OA
ATOM     28  H   UNL     1      41.953   5.798  13.806  0.00  0.00    +0.000 HD
ENDBRANCH  26  27
ENDBRANCH  25  26
ENDBRANCH  24  25
BRANCH  24  29
ATOM     29  C   UNL     1      44.395   4.387   9.155  0.00  0.00    +0.000 C 
BRANCH  29  30
ATOM     30  C   UNL     1      45.385   3.425   8.547  0.00  0.00    +0.000 A 
ATOM     31  C   UNL     1      45.356   2.056   8.828  0.00  0.00    +0.000 A 
ATOM     32  C   UNL     1      46.239   1.199   8.176  0.00  0.00    +0.000 A 
ATOM     33  C   UNL     1      47.129   1.741   7.263  0.00  0.00    +0.000 A 
ATOM     34  N   UNL     1      47.198   3.058   6.975  0.00  0.00    +0.000 NA
ATOM     35  C   UNL     1      46.325   3.865   7.618  0.00  0.00    +0.000 A 
ENDBRANCH  29  30
ENDBRANCH  24  29
ENDBRANCH  23  24
ENDBRANCH   4  23
TORSDOF 10
ENDMDL
MODEL 5
REMARK VINA RESULT:    -6.861      2.851      3.907
REMARK INTER + INTRA:         -12.370
REMARK INTER:                 -11.318
REMARK INTRA:                  -1.052
REMARK UNBOUND:                -1.698
REMARK  Name = 
REMARK  10 active torsions:
REMARK  status: ('A' for Active; 'I' for Inactive)
REMARK    1  A    between atoms: C_2  and  C_23
REMARK    2  A    between atoms: N_3  and  C_4
REMARK    3  A    between atoms: C_4  and  C_5
REMARK    4  A    between atoms: C_8  and  C_9
REMARK    5  A    between atoms: C_9  and  N_10
REMARK    6  A    between atoms: N_10  and  C_11
REMARK    7  A    between atoms: N_10  and  C_14
REMARK    8  A    between atoms: C_11  and  C_12
REMARK    9  A    between atoms: C_12  and  O_13
REMARK   10  A    between atoms: C_14  and  C_15
REMARK                            x       y       z     vdW  Elec       q    Type
REMARK                         _______ _______ _______ _____ _____    ______ ____
ROOT
ATOM      1  C   UNL     1      47.577   5.263  14.636  0.00  0.00    +0.000 A 
ATOM      2  C   UNL     1      46.881   4.176  14.112  0.00  0.00    +0.000 A 
ATOM      3  C   UNL     1      46.169   4.337  12.923  0.00  0.00    +0.000 A 
ATOM      4  C   UNL     1      46.143   5.580  12.285  0.00  0.00    +0.000 A 
ATOM      5  C   UNL     1      46.874   6.604  12.874  0.00  0.00    +0.000 A 
ATOM      6  N   UNL     1      47.579   6.476  14.026  0.00  0.00    +0.000 NA
ENDROOT
BRANCH   1   7
ATOM      7  C   UNL     1      48.281   5.149  15.972  0.00  0.00    +0.000 C 
BRANCH   7  10
ATOM      8  O   UNL     1      49.639   5.876  18.337  0.00  0.00    +0.000 OA
ATOM      9  C   UNL     1      48.648   6.509  17.998  0.00  0.00    +0.000 C 
ATOM     10  N   UNL     1      47.971   6.270  16.832  0.00  0.00    +0.000 N 
ATOM     11  H   UNL     1      47.157   6.818  16.591  0.00  0.00    +0.000 HD
BRANCH   9  12
ATOM     12  C   UNL     1      48.122   7.619  18.802  0.00  0.00    +0.000 A 
ATOM     13  C   UNL     1      47.712   7.423  20.113  0.00  0.00    +0.000 A 
ATOM     14  S   UNL     1      47.195   8.861  20.879  0.00  0.00    +0.000 S 
ATOM     15  C   UNL     1      47.449   9.776  19.464  0.00  0.00    +0.000 A 
ATOM     16  N   UNL     1      47.198  11.113  19.433  0.00  0.00    +0.000 NA
ATOM     17  C   UNL     1      47.409  11.666  18.285  0.00  0.00    +0.000 A 
ATOM     18  N   UNL     1      47.834  11.002  17.161  0.00  0.00    +0.000 N 
ATOM     19  C   UNL     1      48.089   9.651  17.141  0.00  0.00    +0.000 A 
ATOM     20  O   UNL     1      48.442   9.090  16.110  0.00  0.00    +0.000 OA
ATOM     21  C   UNL     1      47.909   8.993  18.422  0.00  0.00    +0.000 A 
ATOM     22  H   UNL     1      47.962  11.491  16.288  0.00  0.00    +0.000 HD
ENDBRANCH   9  12
ENDBRANCH   7  10
ENDBRANCH   1   7
BRANCH   4  23
ATOM     23  C   UNL     1      45.252   5.827  11.090  0.00  0.00    +0.000 C 
BRANCH  23  24
ATOM     24  N   UNL     1      44.675   4.624  10.444  0.00  0.00    +0.000 NA
BRANCH  24  25
ATOM     25  C   UNL     1      43.215   4.553  10.713  0.00  0.00    +0.000 C 
BRANCH  25  26
ATOM     26  C   UNL     1      42.748   5.210  12.026  0.00  0.00    +0.000 C 
BRANCH  26  27
ATOM     27  O   UNL     1      41.874   6.302  11.754  0.00  0.00    +0.000 OA
ATOM     28  H   UNL     1      42.021   6.969  12.446  0.00  0.00    +0.000 HD
ENDBRANCH  26  27
ENDBRANCH  25  26
ENDBRANCH  24  25
BRANCH  24  29
ATOM     29  C   UNL     1      44.909   4.695   8.979  0.00  0.00    +0.000 C 
BRANCH  29  30
ATOM     30  C   UNL     1      45.612   3.505   8.375  0.00  0.00    +0.000 A 
ATOM     31  C   UNL     1      46.577   3.645   7.373  0.00  0.00    +0.000 A 
ATOM     32  C   UNL     1      47.257   2.522   6.908  0.00  0.00    +0.000 A 
ATOM     33  C   UNL     1      46.945   1.289   7.460  0.00  0.00    +0.000 A 
ATOM     34  N   UNL     1      46.011   1.111   8.417  0.00  0.00    +0.000 NA
ATOM     35  C   UNL     1      45.371   2.220   8.854  0.00  0.00    +0.000 A 
ENDBRANCH  29  30
ENDBRANCH  24  29
ENDBRANCH  23  24
ENDBRANCH   4  23
TORSDOF 10
ENDMDL
MODEL 6
REMARK VINA RESULT:    -6.814      2.479      2.908
REMARK INTER + INTRA:         -12.296
REMARK INTER:                 -11.203
REMARK INTRA:                  -1.093
REMARK UNBOUND:                -1.698
REMARK  Name = 
REMARK  10 active torsions:
REMARK  status: ('A' for Active; 'I' for Inactive)
REMARK    1  A    between atoms: C_2  and  C_23
REMARK    2  A    between atoms: N_3  and  C_4
REMARK    3  A    between atoms: C_4  and  C_5
REMARK    4  A    between atoms: C_8  and  C_9
REMARK    5  A    between atoms: C_9  and  N_10
REMARK    6  A    between atoms: N_10  and  C_11
REMARK    7  A    between atoms: N_10  and  C_14
REMARK    8  A    between atoms: C_11  and  C_12
REMARK    9  A    between atoms: C_12  and  O_13
REMARK   10  A    between atoms: C_14  and  C_15
REMARK                            x       y       z     vdW  Elec       q    Type
REMARK                         _______ _______ _______ _____ _____    ______ ____
ROOT
ATOM      1  C   UNL     1      47.884   6.327  13.947  0.00  0.00    +0.000 A 
ATOM      2  C   UNL     1      47.550   7.410  13.138  0.00  0.00    +0.000 A 
ATOM      3  C   UNL     1      46.603   7.235  12.128  0.00  0.00    +0.000 A 
ATOM      4  C   UNL     1      46.019   5.981  11.926  0.00  0.00    +0.000 A 
ATOM      5  C   UNL     1      46.406   4.962  12.787  0.00  0.00    +0.000 A 
ATOM      6  N   UNL     1      47.319   5.104  13.779  0.00  0.00    +0.000 NA
ENDROOT
BRANCH   1   7
ATOM      7  C   UNL     1      48.976   6.458  14.989  0.00  0.00    +0.000 C 
BRANCH   7  10
ATOM      8  O   UNL     1      49.816   8.649  16.557  0.00  0.00    +0.000 OA
ATOM      9  C   UNL     1      48.955   7.896  16.994  0.00  0.00    +0.000 C 
ATOM     10  N   UNL     1      48.439   6.852  16.273  0.00  0.00    +0.000 N 
ATOM     11  H   UNL     1      47.729   6.256  16.673  0.00  0.00    +0.000 HD
BRANCH   9  12
ATOM     12  C   UNL     1      48.366   8.079  18.326  0.00  0.00    +0.000 A 
ATOM     13  C   UNL     1      47.924   9.323  18.750  0.00  0.00    +0.000 A 
ATOM     14  S   UNL     1      47.217   9.293  20.306  0.00  0.00    +0.000 S 
ATOM     15  C   UNL     1      47.532   7.627  20.481  0.00  0.00    +0.000 A 
ATOM     16  N   UNL     1      47.173   6.955  21.608  0.00  0.00    +0.000 NA
ATOM     17  C   UNL     1      47.503   5.706  21.609  0.00  0.00    +0.000 A 
ATOM     18  N   UNL     1      48.173   5.072  20.594  0.00  0.00    +0.000 N 
ATOM     19  C   UNL     1      48.567   5.711  19.442  0.00  0.00    +0.000 A 
ATOM     20  O   UNL     1      49.187   5.115  18.569  0.00  0.00    +0.000 OA
ATOM     21  C   UNL     1      48.178   7.108  19.375  0.00  0.00    +0.000 A 
ATOM     22  H   UNL     1      48.419   4.096  20.666  0.00  0.00    +0.000 HD
ENDBRANCH   9  12
ENDBRANCH   7  10
ENDBRANCH   1   7
BRANCH   4  23
ATOM     23  C   UNL     1      45.116   5.721  10.743  0.00  0.00    +0.000 C 
BRANCH  23  24
ATOM     24  N   UNL     1      44.642   4.326  10.577  0.00  0.00    +0.000 NA
BRANCH  24  25
ATOM     25  C   UNL     1      43.375   4.127  11.329  0.00  0.00    +0.000 C 
BRANCH  25  26
ATOM     26  C   UNL     1      43.334   2.890  12.247  0.00  0.00    +0.000 C 
BRANCH  26  27
ATOM     27  O   UNL     1      43.058   1.716  11.489  0.00  0.00    +0.000 OA
ATOM     28  H   UNL     1      42.410   1.193  11.991  0.00  0.00    +0.000 HD
ENDBRANCH  26  27
ENDBRANCH  25  26
ENDBRANCH  24  25
BRANCH  24  29
ATOM     29  C   UNL     1      44.412   4.056   9.135  0.00  0.00    +0.000 C 
BRANCH  29  30
ATOM     30  C   UNL     1      45.460   3.208   8.458  0.00  0.00    +0.000 A 
ATOM     31  C   UNL     1      45.560   1.832   8.685  0.00  0.00    +0.000 A 
ATOM     32  C   UNL     1      46.490   1.081   7.972  0.00  0.00    +0.000 A 
ATOM     33  C   UNL     1      47.298   1.733   7.054  0.00  0.00    +0.000 A 
ATOM     34  N   UNL     1      47.243   3.060   6.817  0.00  0.00    +0.000 NA
ATOM     35  C   UNL     1      46.325   3.763   7.519  0.00  0.00    +0.000 A 
ENDBRANCH  29  30
ENDBRANCH  24  29
ENDBRANCH  23  24
ENDBRANCH   4  23
TORSDOF 10
ENDMDL
MODEL 7
REMARK VINA RESULT:    -6.287      3.381      4.830
REMARK INTER + INTRA:         -11.476
REMARK INTER:                 -10.213
REMARK INTRA:                  -1.263
REMARK UNBOUND:                -1.698
REMARK  Name = 
REMARK  10 active torsions:
REMARK  status: ('A' for Active; 'I' for Inactive)
REMARK    1  A    between atoms: C_2  and  C_23
REMARK    2  A    between atoms: N_3  and  C_4
REMARK    3  A    between atoms: C_4  and  C_5
REMARK    4  A    between atoms: C_8  and  C_9
REMARK    5  A    between atoms: C_9  and  N_10
REMARK    6  A    between atoms: N_10  and  C_11
REMARK    7  A    between atoms: N_10  and  C_14
REMARK    8  A    between atoms: C_11  and  C_12
REMARK    9  A    between atoms: C_12  and  O_13
REMARK   10  A    between atoms: C_14  and  C_15
REMARK                            x       y       z     vdW  Elec       q    Type
REMARK                         _______ _______ _______ _____ _____    ______ ____
ROOT
ATOM      1  C   UNL     1      46.933   7.930  13.290  0.00  0.00    +0.000 A 
ATOM      2  C   UNL     1      45.728   8.442  12.814  0.00  0.00    +0.000 A 
ATOM      3  C   UNL     1      45.034   7.737  11.829  0.00  0.00    +0.000 A 
ATOM      4  C   UNL     1      45.557   6.545  11.321  0.00  0.00    +0.000 A 
ATOM      5  C   UNL     1      46.759   6.105  11.863  0.00  0.00    +0.000 A 
ATOM      6  N   UNL     1      47.453   6.766  12.821  0.00  0.00    +0.000 NA
ENDROOT
BRANCH   1   7
ATOM      7  C   UNL     1      47.758   8.716  14.287  0.00  0.00    +0.000 C 
BRANCH   7  10
ATOM      8  O   UNL     1      48.328  10.820  12.495  0.00  0.00    +0.000 OA
ATOM      9  C   UNL     1      49.228  10.060  12.830  0.00  0.00    +0.000 C 
ATOM     10  N   UNL     1      49.056   9.058  13.748  0.00  0.00    +0.000 N 
ATOM     11  H   UNL     1      49.827   8.454  13.996  0.00  0.00    +0.000 HD
BRANCH   9  12
ATOM     12  C   UNL     1      50.592  10.189  12.304  0.00  0.00    +0.000 A 
ATOM     13  C   UNL     1      51.290  11.383  12.408  0.00  0.00    +0.000 A 
ATOM     14  S   UNL     1      52.880  11.290  11.786  0.00  0.00    +0.000 S 
ATOM     15  C   UNL     1      52.661   9.669  11.308  0.00  0.00    +0.000 A 
ATOM     16  N   UNL     1      53.658   8.970  10.700  0.00  0.00    +0.000 NA
ATOM     17  C   UNL     1      53.336   7.764  10.369  0.00  0.00    +0.000 A 
ATOM     18  N   UNL     1      52.104   7.197  10.577  0.00  0.00    +0.000 N 
ATOM     19  C   UNL     1      51.063   7.865  11.177  0.00  0.00    +0.000 A 
ATOM     20  O   UNL     1      49.970   7.332  11.322  0.00  0.00    +0.000 OA
ATOM     21  C   UNL     1      51.391   9.212  11.607  0.00  0.00    +0.000 A 
ATOM     22  H   UNL     1      51.911   6.253  10.277  0.00  0.00    +0.000 HD
ENDBRANCH   9  12
ENDBRANCH   7  10
ENDBRANCH   1   7
BRANCH   4  23
ATOM     23  C   UNL     1      44.914   5.847  10.146  0.00  0.00    +0.000 C 
BRANCH  23  24
ATOM     24  N   UNL     1      44.651   4.397  10.309  0.00  0.00    +0.000 NA
BRANCH  24  25
ATOM     25  C   UNL     1      43.555   4.187  11.292  0.00  0.00    +0.000 C 
BRANCH  25  26
ATOM     26  C   UNL     1      43.684   2.929  12.172  0.00  0.00    +0.000 C 
BRANCH  26  27
ATOM     27  O   UNL     1      45.042   2.724  12.552  0.00  0.00    +0.000 OA
ATOM     28  H   UNL     1      45.582   2.795  11.746  0.00  0.00    +0.000 HD
ENDBRANCH  26  27
ENDBRANCH  25  26
ENDBRANCH  24  25
BRANCH  24  29
ATOM     29  C   UNL     1      44.262   3.819   8.997  0.00  0.00    +0.000 C 
BRANCH  29  30
ATOM     30  C   UNL     1      45.320   2.990   8.314  0.00  0.00    +0.000 A 
ATOM     31  C   UNL     1      46.216   3.543   7.395  0.00  0.00    +0.000 A 
ATOM     32  C   UNL     1      47.228   2.752   6.856  0.00  0.00    +0.000 A 
ATOM     33  C   UNL     1      47.307   1.426   7.251  0.00  0.00    +0.000 A 
ATOM     34  N   UNL     1      46.454   0.851   8.123  0.00  0.00    +0.000 NA
ATOM     35  C   UNL     1      45.486   1.645   8.636  0.00  0.00    +0.000 A 
ENDBRANCH  29  30
ENDBRANCH  24  29
ENDBRANCH  23  24
ENDBRANCH   4  23
TORSDOF 10
ENDMDL
MODEL 8
REMARK VINA RESULT:    -6.252      2.889      8.286
REMARK INTER + INTRA:         -11.423
REMARK INTER:                  -9.746
REMARK INTRA:                  -1.677
REMARK UNBOUND:                -1.698
REMARK  Name = 
REMARK  10 active torsions:
REMARK  status: ('A' for Active; 'I' for Inactive)
REMARK    1  A    between atoms: C_2  and  C_23
REMARK    2  A    between atoms: N_3  and  C_4
REMARK    3  A    between atoms: C_4  and  C_5
REMARK    4  A    between atoms: C_8  and  C_9
REMARK    5  A    between atoms: C_9  and  N_10
REMARK    6  A    between atoms: N_10  and  C_11
REMARK    7  A    between atoms: N_10  and  C_14
REMARK    8  A    between atoms: C_11  and  C_12
REMARK    9  A    between atoms: C_12  and  O_13
REMARK   10  A    between atoms: C_14  and  C_15
REMARK                            x       y       z     vdW  Elec       q    Type
REMARK                         _______ _______ _______ _____ _____    ______ ____
ROOT
ATOM      1  C   UNL     1      48.178   7.918  13.361  0.00  0.00    +0.000 A 
ATOM      2  C   UNL     1      49.297   7.167  13.710  0.00  0.00    +0.000 A 
ATOM      3  C   UNL     1      49.828   7.297  14.993  0.00  0.00    +0.000 A 
ATOM      4  C   UNL     1      49.250   8.186  15.904  0.00  0.00    +0.000 A 
ATOM      5  C   UNL     1      48.130   8.886  15.472  0.00  0.00    +0.000 A 
ATOM      6  N   UNL     1      47.590   8.778  14.233  0.00  0.00    +0.000 NA
ENDROOT
BRANCH   1   7
ATOM      7  C   UNL     1      47.635   7.873  11.948  0.00  0.00    +0.000 C 
BRANCH   7  10
ATOM      8  O   UNL     1      44.831   7.624  11.745  0.00  0.00    +0.000 OA
ATOM      9  C   UNL     1      45.526   6.619  11.685  0.00  0.00    +0.000 C 
ATOM     10  N   UNL     1      46.895   6.654  11.703  0.00  0.00    +0.000 N 
ATOM     11  H   UNL     1      47.430   5.799  11.651  0.00  0.00    +0.000 HD
BRANCH   9  12
ATOM     12  C   UNL     1      44.944   5.279  11.542  0.00  0.00    +0.000 A 
ATOM     13  C   UNL     1      44.306   4.657  12.605  0.00  0.00    +0.000 A 
ATOM     14  S   UNL     1      43.651   3.132  12.199  0.00  0.00    +0.000 S 
ATOM     15  C   UNL     1      44.249   3.233  10.607  0.00  0.00    +0.000 A 
ATOM     16  N   UNL     1      44.035   2.235   9.706  0.00  0.00    +0.000 NA
ATOM     17  C   UNL     1      44.573   2.438   8.550  0.00  0.00    +0.000 A 
ATOM     18  N   UNL     1      45.319   3.541   8.216  0.00  0.00    +0.000 N 
ATOM     19  C   UNL     1      45.572   4.568   9.093  0.00  0.00    +0.000 A 
ATOM     20  O   UNL     1      46.264   5.524   8.765  0.00  0.00    +0.000 OA
ATOM     21  C   UNL     1      44.949   4.406  10.394  0.00  0.00    +0.000 A 
ATOM     22  H   UNL     1      45.729   3.630   7.299  0.00  0.00    +0.000 HD
ENDBRANCH   9  12
ENDBRANCH   7  10
ENDBRANCH   1   7
BRANCH   4  23
ATOM     23  C   UNL     1      49.896   8.468  17.239  0.00  0.00    +0.000 C 
BRANCH  23  24
ATOM     24  N   UNL     1      50.130   7.294  18.114  0.00  0.00    +0.000 NA
BRANCH  24  25
ATOM     25  C   UNL     1      50.814   7.720  19.365  0.00  0.00    +0.000 C 
BRANCH  25  26
ATOM     26  C   UNL     1      49.885   8.166  20.511  0.00  0.00    +0.000 C 
BRANCH  26  27
ATOM     27  O   UNL     1      49.858   9.587  20.605  0.00  0.00    +0.000 OA
ATOM     28  H   UNL     1      48.996   9.883  20.264  0.00  0.00    +0.000 HD
ENDBRANCH  26  27
ENDBRANCH  25  26
ENDBRANCH  24  25
BRANCH  24  29
ATOM     29  C   UNL     1      48.827   6.665  18.449  0.00  0.00    +0.000 C 
BRANCH  29  30
ATOM     30  C   UNL     1      48.640   5.255  17.948  0.00  0.00    +0.000 A 
ATOM     31  C   UNL     1      47.374   4.675  17.823  0.00  0.00    +0.000 A 
ATOM     32  C   UNL     1      47.250   3.400  17.277  0.00  0.00    +0.000 A 
ATOM     33  C   UNL     1      48.401   2.742  16.875  0.00  0.00    +0.000 A 
ATOM     34  N   UNL     1      49.641   3.261  16.991  0.00  0.00    +0.000 NA
ATOM     35  C   UNL     1      49.731   4.502  17.519  0.00  0.00    +0.000 A 
ENDBRANCH  29  30
ENDBRANCH  24  29
ENDBRANCH  23  24
ENDBRANCH   4  23
TORSDOF 10
ENDMDL
MODEL 9
REMARK VINA RESULT:    -6.185      3.312      7.978
REMARK INTER + INTRA:         -11.318
REMARK INTER:                  -9.444
REMARK INTRA:                  -1.874
REMARK UNBOUND:                -1.698
REMARK  Name = 
REMARK  10 active torsions:
REMARK  status: ('A' for Active; 'I' for Inactive)
REMARK    1  A    between atoms: C_2  and  C_23
REMARK    2  A    between atoms: N_3  and  C_4
REMARK    3  A    between atoms: C_4  and  C_5
REMARK    4  A    between atoms: C_8  and  C_9
REMARK    5  A    between atoms: C_9  and  N_10
REMARK    6  A    between atoms: N_10  and  C_11
REMARK    7  A    between atoms: N_10  and  C_14
REMARK    8  A    between atoms: C_11  and  C_12
REMARK    9  A    between atoms: C_12  and  O_13
REMARK   10  A    between atoms: C_14  and  C_15
REMARK                            x       y       z     vdW  Elec       q    Type
REMARK                         _______ _______ _______ _____ _____    ______ ____
ROOT
ATOM      1  C   UNL     1      48.774   8.179  15.247  0.00  0.00    +0.000 A 
ATOM      2  C   UNL     1      49.830   7.336  14.911  0.00  0.00    +0.000 A 
ATOM      3  C   UNL     1      50.607   6.784  15.930  0.00  0.00    +0.000 A 
ATOM      4  C   UNL     1      50.334   7.094  17.266  0.00  0.00    +0.000 A 
ATOM      5  C   UNL     1      49.255   7.935  17.507  0.00  0.00    +0.000 A 
ATOM      6  N   UNL     1      48.480   8.483  16.538  0.00  0.00    +0.000 NA
ENDROOT
BRANCH   1   7
ATOM      7  C   UNL     1      47.971   8.870  14.165  0.00  0.00    +0.000 C 
BRANCH   7  10
ATOM      8  O   UNL     1      47.904   7.266  11.844  0.00  0.00    +0.000 OA
ATOM      9  C   UNL     1      46.901   7.352  12.540  0.00  0.00    +0.000 C 
ATOM     10  N   UNL     1      46.867   8.050  13.718  0.00  0.00    +0.000 N 
ATOM     11  H   UNL     1      46.017   8.094  14.262  0.00  0.00    +0.000 HD
BRANCH   9  12
ATOM     12  C   UNL     1      45.649   6.671  12.188  0.00  0.00    +0.000 A 
ATOM     13  C   UNL     1      44.571   7.374  11.673  0.00  0.00    +0.000 A 
ATOM     14  S   UNL     1      43.242   6.375  11.277  0.00  0.00    +0.000 S 
ATOM     15  C   UNL     1      44.048   4.981  11.835  0.00  0.00    +0.000 A 
ATOM     16  N   UNL     1      43.460   3.755  11.781  0.00  0.00    +0.000 NA
ATOM     17  C   UNL     1      44.180   2.799  12.268  0.00  0.00    +0.000 A 
ATOM     18  N   UNL     1      45.427   2.959  12.816  0.00  0.00    +0.000 N 
ATOM     19  C   UNL     1      46.058   4.177  12.902  0.00  0.00    +0.000 A 
ATOM     20  O   UNL     1      47.162   4.282  13.422  0.00  0.00    +0.000 OA
ATOM     21  C   UNL     1      45.305   5.278  12.327  0.00  0.00    +0.000 A 
ATOM     22  H   UNL     1      45.930   2.171  13.196  0.00  0.00    +0.000 HD
ENDBRANCH   9  12
ENDBRANCH   7  10
ENDBRANCH   1   7
BRANCH   4  23
ATOM     23  C   UNL     1      51.254   6.645  18.376  0.00  0.00    +0.000 C 
BRANCH  23  24
ATOM     24  N   UNL     1      51.620   5.208  18.381  0.00  0.00    +0.000 NA
BRANCH  24  25
ATOM     25  C   UNL     1      52.870   5.005  19.162  0.00  0.00    +0.000 C 
BRANCH  25  26
ATOM     26  C   UNL     1      52.692   4.336  20.539  0.00  0.00    +0.000 C 
BRANCH  26  27
ATOM     27  O   UNL     1      53.399   3.100  20.587  0.00  0.00    +0.000 OA
ATOM     28  H   UNL     1      53.905   3.088  21.417  0.00  0.00    +0.000 HD
ENDBRANCH  26  27
ENDBRANCH  25  26
ENDBRANCH  24  25
BRANCH  24  29
ATOM     29  C   UNL     1      50.518   4.423  18.994  0.00  0.00    +0.000 C 
BRANCH  29  30
ATOM     30  C   UNL     1      49.658   3.649  18.026  0.00  0.00    +0.000 A 
ATOM     31  C   UNL     1      48.319   3.979  17.797  0.00  0.00    +0.000 A 
ATOM     32  C   UNL     1      47.593   3.286  16.832  0.00  0.00    +0.000 A 
ATOM     33  C   UNL     1      48.230   2.276  16.129  0.00  0.00    +0.000 A 
ATOM     34  N   UNL     1      49.515   1.917  16.331  0.00  0.00    +0.000 NA
ATOM     35  C   UNL     1      50.197   2.612  17.269  0.00  0.00    +0.000 A 
ENDBRANCH  29  30
ENDBRANCH  24  29
ENDBRANCH  23  24
ENDBRANCH   4  23
TORSDOF 10
ENDMDL
