MODEL 1
REMARK VINA RESULT:    -8.712      0.000      0.000
REMARK INTER + INTRA:         -13.297
REMARK INTER:                 -12.277
REMARK INTRA:                  -1.020
REMARK UNBOUND:                -1.020
REMARK  Name = 
REMARK  8 active torsions:
REMARK  status: ('A' for Active; 'I' for Inactive)
REMARK    1  A    between atoms: C_1  and  C_2
REMARK    2  A    between atoms: C_2  and  O_3
REMARK    3  A    between atoms: O_3  and  C_4
REMARK    4  A    between atoms: C_6  and  C_7
REMARK    5  A    between atoms: C_7  and  C_8
REMARK    6  A    between atoms: C_8  and  N_9
REMARK    7  A    between atoms: C_13  and  C_14
REMARK    8  A    between atoms: C_20  and  C_21
REMARK                            x       y       z     vdW  Elec       q    Type
REMARK                         _______ _______ _______ _____ _____    ______ ____
ROOT
ATOM      1  C   UNL     1      46.660   4.581  13.960  0.00  0.00    +0.000 A 
ATOM      2  C   UNL     1      45.340   4.557  13.512  0.00  0.00    +0.000 A 
ATOM      3  C   UNL     1      44.886   5.512  12.594  0.00  0.00    +0.000 A 
ATOM      4  C   UNL     1      45.777   6.497  12.138  0.00  0.00    +0.000 A 
ATOM      5  C   UNL     1      47.102   6.578  12.606  0.00  0.00    +0.000 A 
ATOM      6  C   UNL     1      47.527   5.579  13.499  0.00  0.00    +0.000 A 
ENDROOT
BRANCH   5   7
ATOM      7  C   UNL     1      47.973   7.728  12.261  0.00  0.00    +0.000 A 
ATOM      8  C   UNL     1      49.328   7.527  11.931  0.00  0.00    +0.000 A 
ATOM      9  C   UNL     1      50.147   8.577  11.509  0.00  0.00    +0.000 A 
ATOM     10  C   UNL     1      49.628   9.862  11.399  0.00  0.00    +0.000 A 
ATOM     11  C   UNL     1      48.297  10.097  11.735  0.00  0.00    +0.000 A 
ATOM     12  C   UNL     1      47.483   9.044  12.170  0.00  0.00    +0.000 A 
ENDBRANCH   5   7
BRANCH   1  13
ATOM     13  O   UNL     1      47.215   3.716  14.867  0.00  0.00    +0.000 OA
BRANCH  13  15
ATOM     14  C   UNL     1      47.210   3.283  17.217  0.00  0.00    +0.000 C 
ATOM     15  C   UNL     1      47.595   4.266  16.127  0.00  0.00    +0.000 C 
ENDBRANCH  13  15
ENDBRANCH   1  13
BRANCH   3  16
ATOM     16  C   UNL     1      43.430   5.559  12.185  0.00  0.00    +0.000 C 
BRANCH  16  17
ATOM     17  C   UNL     1      43.189   4.673  10.957  0.00  0.00    +0.000 C 
BRANCH  17  18
ATOM     18  N   UNL     1      43.977   5.129   9.803  0.00  0.00    +0.000 N 
ATOM     19  C   UNL     1      44.721   4.086   9.217  0.00  0.00    +0.000 A 
ATOM     20  C   UNL     1      45.523   4.362   8.114  0.00  0.00    +0.000 A 
ATOM     21  C   UNL     1      46.260   3.331   7.521  0.00  0.00    +0.000 A 
ATOM     22  C   UNL     1      46.183   2.038   8.041  0.00  0.00    +0.000 A 
ATOM     23  C   UNL     1      45.352   1.849   9.127  0.00  0.00    +0.000 A 
ATOM     24  N   UNL     1      44.627   2.836   9.713  0.00  0.00    +0.000 NA
ATOM     25  H   UNL     1      44.612   5.885  10.041  0.00  0.00    +0.000 HD
BRANCH  22  26
ATOM     26  C   UNL     1      46.973   0.943   7.426  0.00  0.00    +0.000 C 
ATOM     27  N   UNL     1      47.910   1.248   6.479  0.00  0.00    +0.000 N 
ATOM     28  O   UNL     1      46.791  -0.225   7.751  0.00  0.00    +0.000 OA
ATOM     29  H   UNL     1      48.129   2.168   6.128  0.00  0.00    +0.000 HD
ATOM     30  H   UNL     1      48.417   0.469   6.078  0.00  0.00    +0.000 HD
ENDBRANCH  22  26
ENDBRANCH  17  18
ENDBRANCH  16  17
ENDBRANCH   3  16
TORSDOF 7
ENDMDL
MODEL 2
REMARK VINA RESULT:    -7.841      1.262      1.861
REMARK INTER + INTRA:         -12.069
REMARK INTER:                 -11.126
REMARK INTRA:                  -0.943
REMARK UNBOUND:                -1.020
REMARK  Name = 
REMARK  8 active torsions:
REMARK  status: ('A' for Active; 'I' for Inactive)
REMARK    1  A    between atoms: C_1  and  C_2
REMARK    2  A    between atoms: C_2  and  O_3
REMARK    3  A    between atoms: O_3  and  C_4
REMARK    4  A    between atoms: C_6  and  C_7
REMARK    5  A    between atoms: C_7  and  C_8
REMARK    6  A    between atoms: C_8  and  N_9
REMARK    7  A    between atoms: C_13  and  C_14
REMARK    8  A    between atoms: C_20  and  C_21
REMARK                            x       y       z     vdW  Elec       q    Type
REMARK                         _______ _______ _______ _____ _____    ______ ____
ROOT
ATOM      1  C   UNL     1      46.659   5.564  13.658  0.00  0.00    +0.000 A 
ATOM      2  C   UNL     1      45.437   4.983  13.320  0.00  0.00    +0.000 A 
ATOM      3  C   UNL     1      44.516   5.683  12.529  0.00  0.00    +0.000 A 
ATOM      4  C   UNL     1      44.839   6.976  12.088  0.00  0.00    +0.000 A 
ATOM      5  C   UNL     1      46.043   7.608  12.452  0.00  0.00    +0.000 A 
ATOM      6  C   UNL     1      46.954   6.859  13.217  0.00  0.00    +0.000 A 
ENDROOT
BRANCH   5   7
ATOM      7  C   UNL     1      46.290   9.038  12.139  0.00  0.00    +0.000 A 
ATOM      8  C   UNL     1      45.214   9.915  11.901  0.00  0.00    +0.000 A 
ATOM      9  C   UNL     1      45.410  11.284  11.700  0.00  0.00    +0.000 A 
ATOM     10  C   UNL     1      46.694  11.814  11.738  0.00  0.00    +0.000 A 
ATOM     11  C   UNL     1      47.781  10.970  11.955  0.00  0.00    +0.000 A 
ATOM     12  C   UNL     1      47.581   9.597  12.142  0.00  0.00    +0.000 A 
ENDBRANCH   5   7
BRANCH   1  13
ATOM     13  O   UNL     1      47.630   4.990  14.437  0.00  0.00    +0.000 OA
BRANCH  13  15
ATOM     14  C   UNL     1      47.542   4.162  16.677  0.00  0.00    +0.000 C 
ATOM     15  C   UNL     1      47.240   3.864  15.221  0.00  0.00    +0.000 C 
ENDBRANCH  13  15
ENDBRANCH   1  13
BRANCH   3  16
ATOM     16  C   UNL     1      43.147   5.105  12.246  0.00  0.00    +0.000 C 
BRANCH  16  17
ATOM     17  C   UNL     1      43.193   4.191  11.016  0.00  0.00    +0.000 C 
BRANCH  17  18
ATOM     18  N   UNL     1      43.886   4.837   9.893  0.00  0.00    +0.000 N 
ATOM     19  C   UNL     1      44.745   3.951   9.211  0.00  0.00    +0.000 A 
ATOM     20  C   UNL     1      45.476   4.418   8.124  0.00  0.00    +0.000 A 
ATOM     21  C   UNL     1      46.325   3.543   7.437  0.00  0.00    +0.000 A 
ATOM     22  C   UNL     1      46.429   2.214   7.849  0.00  0.00    +0.000 A 
ATOM     23  C   UNL     1      45.657   1.831   8.928  0.00  0.00    +0.000 A 
ATOM     24  N   UNL     1      44.825   2.664   9.604  0.00  0.00    +0.000 NA
ATOM     25  H   UNL     1      44.424   5.649  10.183  0.00  0.00    +0.000 HD
BRANCH  22  26
ATOM     26  C   UNL     1      47.339   1.285   7.134  0.00  0.00    +0.000 C 
ATOM     27  N   UNL     1      46.973  -0.023   6.985  0.00  0.00    +0.000 N 
ATOM     28  O   UNL     1      48.412   1.675   6.686  0.00  0.00    +0.000 OA
ATOM     29  H   UNL     1      46.126  -0.451   7.326  0.00  0.00    +0.000 HD
ATOM     30  H   UNL     1      47.630  -0.623   6.501  0.00  0.00    +0.000 HD
ENDBRANCH  22  26
ENDBRANCH  17  18
ENDBRANCH  16  17
ENDBRANCH   3  16
TORSDOF 7
ENDMDL
MODEL 3
REMARK VINA RESULT:    -7.168      2.810      3.930
REMARK INTER + INTRA:         -11.121
REMARK INTER:                 -10.095
REMARK INTRA:                  -1.026
REMARK UNBOUND:                -1.020
REMARK  Name = 
REMARK  8 active torsions:
REMARK  status: ('A' for Active; 'I' for Inactive)
REMARK    1  A    between atoms: C_1  and  C_2
REMARK    2  A    between atoms: C_2  and  O_3
REMARK    3  A    between atoms: O_3  and  C_4
REMARK    4  A    between atoms: C_6  and  C_7
REMARK    5  A    between atoms: C_7  and  C_8
REMARK    6  A    between atoms: C_8  and  N_9
REMARK    7  A    between atoms: C_13  and  C_14
REMARK    8  A    between atoms: C_20  and  C_21
REMARK                            x       y       z     vdW  Elec       q    Type
REMARK                         _______ _______ _______ _____ _____    ______ ____
ROOT
ATOM      1  C   UNL     1      46.645   7.915  12.813  0.00  0.00    +0.000 A 
ATOM      2  C   UNL     1      45.936   6.716  12.764  0.00  0.00    +0.000 A 
ATOM      3  C   UNL     1      44.719   6.641  12.073  0.00  0.00    +0.000 A 
ATOM      4  C   UNL     1      44.223   7.791  11.439  0.00  0.00    +0.000 A 
ATOM      5  C   UNL     1      44.890   9.028  11.511  0.00  0.00    +0.000 A 
ATOM      6  C   UNL     1      46.125   9.052  12.183  0.00  0.00    +0.000 A 
ENDROOT
BRANCH   5   7
ATOM      7  C   UNL     1      44.266  10.273  10.999  0.00  0.00    +0.000 A 
ATOM      8  C   UNL     1      44.688  11.532  11.469  0.00  0.00    +0.000 A 
ATOM      9  C   UNL     1      44.188  12.723  10.937  0.00  0.00    +0.000 A 
ATOM     10  C   UNL     1      43.251  12.685   9.910  0.00  0.00    +0.000 A 
ATOM     11  C   UNL     1      42.801  11.456   9.435  0.00  0.00    +0.000 A 
ATOM     12  C   UNL     1      43.295  10.265   9.981  0.00  0.00    +0.000 A 
ENDBRANCH   5   7
BRANCH   1  13
ATOM     13  O   UNL     1      47.831   8.118  13.469  0.00  0.00    +0.000 OA
BRANCH  13  15
ATOM     14  C   UNL     1      49.433   7.667  11.753  0.00  0.00    +0.000 C 
ATOM     15  C   UNL     1      48.913   7.257  13.118  0.00  0.00    +0.000 C 
ENDBRANCH  13  15
ENDBRANCH   1  13
BRANCH   3  16
ATOM     16  C   UNL     1      43.891   5.374  12.104  0.00  0.00    +0.000 C 
BRANCH  16  17
ATOM     17  C   UNL     1      43.573   4.907  10.678  0.00  0.00    +0.000 C 
BRANCH  17  18
ATOM     18  N   UNL     1      43.851   3.474  10.509  0.00  0.00    +0.000 N 
ATOM     19  C   UNL     1      44.742   3.222   9.446  0.00  0.00    +0.000 A 
ATOM     20  C   UNL     1      45.100   1.910   9.157  0.00  0.00    +0.000 A 
ATOM     21  C   UNL     1      45.990   1.651   8.109  0.00  0.00    +0.000 A 
ATOM     22  C   UNL     1      46.508   2.712   7.365  0.00  0.00    +0.000 A 
ATOM     23  C   UNL     1      46.112   3.984   7.729  0.00  0.00    +0.000 A 
ATOM     24  N   UNL     1      45.253   4.254   8.745  0.00  0.00    +0.000 NA
ATOM     25  H   UNL     1      43.007   2.929  10.357  0.00  0.00    +0.000 HD
BRANCH  22  26
ATOM     26  C   UNL     1      47.441   2.444   6.242  0.00  0.00    +0.000 C 
ATOM     27  N   UNL     1      48.770   2.719   6.400  0.00  0.00    +0.000 N 
ATOM     28  O   UNL     1      47.033   1.989   5.179  0.00  0.00    +0.000 OA
ATOM     29  H   UNL     1      49.208   3.108   7.221  0.00  0.00    +0.000 HD
ATOM     30  H   UNL     1      49.367   2.532   5.604  0.00  0.00    +0.000 HD
ENDBRANCH  22  26
ENDBRANCH  17  18
ENDBRANCH  16  17
ENDBRANCH   3  16
TORSDOF 7
ENDMDL
MODEL 4
REMARK VINA RESULT:    -6.952      3.051      7.142
REMARK INTER + INTRA:         -10.818
REMARK INTER:                 -10.647
REMARK INTRA:                  -0.170
REMARK UNBOUND:                -1.020
REMARK  Name = 
REMARK  8 active torsions:
REMARK  status: ('A' for Active; 'I' for Inactive)
REMARK    1  A    between atoms: C_1  and  C_2
REMARK    2  A    between atoms: C_2  and  O_3
REMARK    3  A    between atoms: O_3  and  C_4
REMARK    4  A    between atoms: C_6  and  C_7
REMARK    5  A    between atoms: C_7  and  C_8
REMARK    6  A    between atoms: C_8  and  N_9
REMARK    7  A    between atoms: C_13  and  C_14
REMARK    8  A    between atoms: C_20  and  C_21
REMARK                            x       y       z     vdW  Elec       q    Type
REMARK                         _______ _______ _______ _____ _____    ______ ____
ROOT
ATOM      1  C   UNL     1      44.226   3.498  10.557  0.00  0.00    +0.000 A 
ATOM      2  C   UNL     1      44.705   4.775  10.846  0.00  0.00    +0.000 A 
ATOM      3  C   UNL     1      45.608   5.406   9.980  0.00  0.00    +0.000 A 
ATOM      4  C   UNL     1      46.028   4.731   8.823  0.00  0.00    +0.000 A 
ATOM      5  C   UNL     1      45.600   3.423   8.527  0.00  0.00    +0.000 A 
ATOM      6  C   UNL     1      44.667   2.840   9.403  0.00  0.00    +0.000 A 
ENDROOT
BRANCH   5   7
ATOM      7  C   UNL     1      46.193   2.652   7.406  0.00  0.00    +0.000 A 
ATOM      8  C   UNL     1      46.435   3.267   6.162  0.00  0.00    +0.000 A 
ATOM      9  C   UNL     1      47.079   2.595   5.121  0.00  0.00    +0.000 A 
ATOM     10  C   UNL     1      47.507   1.285   5.300  0.00  0.00    +0.000 A 
ATOM     11  C   UNL     1      47.268   0.642   6.512  0.00  0.00    +0.000 A 
ATOM     12  C   UNL     1      46.609   1.315   7.548  0.00  0.00    +0.000 A 
ENDBRANCH   5   7
BRANCH   1  13
ATOM     13  O   UNL     1      43.358   2.773  11.332  0.00  0.00    +0.000 OA
BRANCH  13  15
ATOM     14  C   UNL     1      43.063   4.514  12.943  0.00  0.00    +0.000 C 
ATOM     15  C   UNL     1      43.371   3.043  12.733  0.00  0.00    +0.000 C 
ENDBRANCH  13  15
ENDBRANCH   1  13
BRANCH   3  16
ATOM     16  C   UNL     1      46.214   6.744  10.340  0.00  0.00    +0.000 C 
BRANCH  16  17
ATOM     17  C   UNL     1      45.778   7.171  11.747  0.00  0.00    +0.000 C 
BRANCH  17  18
ATOM     18  N   UNL     1      46.931   7.550  12.575  0.00  0.00    +0.000 N 
ATOM     19  C   UNL     1      47.201   6.602  13.583  0.00  0.00    +0.000 A 
ATOM     20  C   UNL     1      48.264   6.822  14.453  0.00  0.00    +0.000 A 
ATOM     21  C   UNL     1      48.544   5.883  15.452  0.00  0.00    +0.000 A 
ATOM     22  C   UNL     1      47.756   4.737  15.563  0.00  0.00    +0.000 A 
ATOM     23  C   UNL     1      46.731   4.590  14.649  0.00  0.00    +0.000 A 
ATOM     24  N   UNL     1      46.447   5.488  13.672  0.00  0.00    +0.000 NA
ATOM     25  H   UNL     1      46.815   8.460  13.011  0.00  0.00    +0.000 HD
BRANCH  22  26
ATOM     26  C   UNL     1      48.038   3.744  16.630  0.00  0.00    +0.000 C 
ATOM     27  N   UNL     1      46.995   3.121  17.254  0.00  0.00    +0.000 N 
ATOM     28  O   UNL     1      49.191   3.484  16.959  0.00  0.00    +0.000 OA
ATOM     29  H   UNL     1      46.014   3.270  17.074  0.00  0.00    +0.000 HD
ATOM     30  H   UNL     1      47.234   2.460  17.983  0.00  0.00    +0.000 HD
ENDBRANCH  22  26
ENDBRANCH  17  18
ENDBRANCH  16  17
ENDBRANCH   3  16
TORSDOF 7
ENDMDL
MODEL 5
REMARK VINA RESULT:    -6.818      2.568      4.013
REMARK INTER + INTRA:         -10.628
REMARK INTER:                  -9.675
REMARK INTRA:                  -0.953
REMARK UNBOUND:                -1.020
REMARK  Name = 
REMARK  8 active torsions:
REMARK  status: ('A' for Active; 'I' for Inactive)
REMARK    1  A    between atoms: C_1  and  C_2
REMARK    2  A    between atoms: C_2  and  O_3
REMARK    3  A    between atoms: O_3  and  C_4
REMARK    4  A    between atoms: C_6  and  C_7
REMARK    5  A    between atoms: C_7  and  C_8
REMARK    6  A    between atoms: C_8  and  N_9
REMARK    7  A    between atoms: C_13  and  C_14
REMARK    8  A    between atoms: C_20  and  C_21
REMARK                            x       y       z     vdW  Elec       q    Type
REMARK                         _______ _______ _______ _____ _____    ______ ____
ROOT
ATOM      1  C   UNL     1      44.751   9.203  11.576  0.00  0.00    +0.000 A 
ATOM      2  C   UNL     1      44.322   7.889  11.762  0.00  0.00    +0.000 A 
ATOM      3  C   UNL     1      45.248   6.874  12.036  0.00  0.00    +0.000 A 
ATOM      4  C   UNL     1      46.612   7.198  12.112  0.00  0.00    +0.000 A 
ATOM      5  C   UNL     1      47.082   8.505  11.881  0.00  0.00    +0.000 A 
ATOM      6  C   UNL     1      46.117   9.500  11.645  0.00  0.00    +0.000 A 
ENDROOT
BRANCH   5   7
ATOM      7  C   UNL     1      48.533   8.797  11.779  0.00  0.00    +0.000 A 
ATOM      8  C   UNL     1      49.008  10.118  11.896  0.00  0.00    +0.000 A 
ATOM      9  C   UNL     1      50.374  10.412  11.900  0.00  0.00    +0.000 A 
ATOM     10  C   UNL     1      51.305   9.386  11.796  0.00  0.00    +0.000 A 
ATOM     11  C   UNL     1      50.868   8.070  11.662  0.00  0.00    +0.000 A 
ATOM     12  C   UNL     1      49.498   7.782  11.644  0.00  0.00    +0.000 A 
ENDBRANCH   5   7
BRANCH   1  13
ATOM     13  O   UNL     1      43.947  10.274  11.286  0.00  0.00    +0.000 OA
BRANCH  13  15
ATOM     14  C   UNL     1      41.609  10.284  10.788  0.00  0.00    +0.000 C 
ATOM     15  C   UNL     1      43.007  10.103  10.227  0.00  0.00    +0.000 C 
ENDBRANCH  13  15
ENDBRANCH   1  13
BRANCH   3  16
ATOM     16  C   UNL     1      44.805   5.431  12.133  0.00  0.00    +0.000 C 
BRANCH  16  17
ATOM     17  C   UNL     1      43.984   5.037  10.898  0.00  0.00    +0.000 C 
BRANCH  17  18
ATOM     18  N   UNL     1      44.108   3.602  10.606  0.00  0.00    +0.000 N 
ATOM     19  C   UNL     1      44.918   3.353   9.480  0.00  0.00    +0.000 A 
ATOM     20  C   UNL     1      45.128   2.039   9.074  0.00  0.00    +0.000 A 
ATOM     21  C   UNL     1      45.936   1.781   7.961  0.00  0.00    +0.000 A 
ATOM     22  C   UNL     1      46.522   2.844   7.272  0.00  0.00    +0.000 A 
ATOM     23  C   UNL     1      46.274   4.114   7.751  0.00  0.00    +0.000 A 
ATOM     24  N   UNL     1      45.496   4.383   8.831  0.00  0.00    +0.000 NA
ATOM     25  H   UNL     1      43.207   3.156  10.462  0.00  0.00    +0.000 HD
BRANCH  22  26
ATOM     26  C   UNL     1      47.369   2.578   6.082  0.00  0.00    +0.000 C 
ATOM     27  N   UNL     1      48.724   2.493   6.234  0.00  0.00    +0.000 N 
ATOM     28  O   UNL     1      46.868   2.443   4.971  0.00  0.00    +0.000 OA
ATOM     29  H   UNL     1      49.239   2.604   7.094  0.00  0.00    +0.000 HD
ATOM     30  H   UNL     1      49.263   2.323   5.393  0.00  0.00    +0.000 HD
ENDBRANCH  22  26
ENDBRANCH  17  18
ENDBRANCH  16  17
ENDBRANCH   3  16
TORSDOF 7
ENDMDL
MODEL 6
REMARK VINA RESULT:    -6.797      3.837      7.868
REMARK INTER + INTRA:         -10.599
REMARK INTER:                  -9.421
REMARK INTRA:                  -1.178
REMARK UNBOUND:                -1.020
REMARK  Name = 
REMARK  8 active torsions:
REMARK  status: ('A' for Active; 'I' for Inactive)
REMARK    1  A    between atoms: C_1  and  C_2
REMARK    2  A    between atoms: C_2  and  O_3
REMARK    3  A    between atoms: O_3  and  C_4
REMARK    4  A    between atoms: C_6  and  C_7
REMARK    5  A    between atoms: C_7  and  C_8
REMARK    6  A    between atoms: C_8  and  N_9
REMARK    7  A    between atoms: C_13  and  C_14
REMARK    8  A    between atoms: C_20  and  C_21
REMARK                            x       y       z     vdW  Elec       q    Type
REMARK                         _______ _______ _______ _____ _____    ______ ____
ROOT
ATOM      1  C   UNL     1      44.862   9.549  11.673  0.00  0.00    +0.000 A 
ATOM      2  C   UNL     1      46.175   9.762  12.092  0.00  0.00    +0.000 A 
ATOM      3  C   UNL     1      47.034   8.676  12.307  0.00  0.00    +0.000 A 
ATOM      4  C   UNL     1      46.551   7.373  12.103  0.00  0.00    +0.000 A 
ATOM      5  C   UNL     1      45.218   7.123  11.727  0.00  0.00    +0.000 A 
ATOM      6  C   UNL     1      44.400   8.241  11.487  0.00  0.00    +0.000 A 
ENDROOT
BRANCH   5   7
ATOM      7  C   UNL     1      44.670   5.744  11.697  0.00  0.00    +0.000 A 
ATOM      8  C   UNL     1      44.089   5.179  12.850  0.00  0.00    +0.000 A 
ATOM      9  C   UNL     1      43.480   3.922  12.826  0.00  0.00    +0.000 A 
ATOM     10  C   UNL     1      43.429   3.197  11.641  0.00  0.00    +0.000 A 
ATOM     11  C   UNL     1      44.009   3.721  10.488  0.00  0.00    +0.000 A 
ATOM     12  C   UNL     1      44.631   4.975  10.520  0.00  0.00    +0.000 A 
ENDBRANCH   5   7
BRANCH   1  13
ATOM     13  O   UNL     1      43.925  10.524  11.448  0.00  0.00    +0.000 OA
BRANCH  13  15
ATOM     14  C   UNL     1      43.140  10.756   9.202  0.00  0.00    +0.000 C 
ATOM     15  C   UNL     1      42.846  10.187  10.578  0.00  0.00    +0.000 C 
ENDBRANCH  13  15
ENDBRANCH   1  13
BRANCH   3  16
ATOM     16  C   UNL     1      48.425   8.891  12.863  0.00  0.00    +0.000 C 
BRANCH  16  17
ATOM     17  C   UNL     1      49.104   7.545  13.143  0.00  0.00    +0.000 C 
BRANCH  17  18
ATOM     18  N   UNL     1      49.730   7.526  14.472  0.00  0.00    +0.000 N 
ATOM     19  C   UNL     1      49.198   6.518  15.301  0.00  0.00    +0.000 A 
ATOM     20  C   UNL     1      49.687   6.376  16.596  0.00  0.00    +0.000 A 
ATOM     21  C   UNL     1      49.170   5.373  17.423  0.00  0.00    +0.000 A 
ATOM     22  C   UNL     1      48.170   4.527  16.941  0.00  0.00    +0.000 A 
ATOM     23  C   UNL     1      47.753   4.728  15.640  0.00  0.00    +0.000 A 
ATOM     24  N   UNL     1      48.246   5.693  14.822  0.00  0.00    +0.000 NA
ATOM     25  H   UNL     1      49.648   8.417  14.954  0.00  0.00    +0.000 HD
BRANCH  22  26
ATOM     26  C   UNL     1      47.606   3.471  17.819  0.00  0.00    +0.000 C 
ATOM     27  N   UNL     1      48.245   3.164  18.987  0.00  0.00    +0.000 N 
ATOM     28  O   UNL     1      46.584   2.871  17.504  0.00  0.00    +0.000 OA
ATOM     29  H   UNL     1      49.096   3.581  19.332  0.00  0.00    +0.000 HD
ATOM     30  H   UNL     1      47.832   2.429  19.547  0.00  0.00    +0.000 HD
ENDBRANCH  22  26
ENDBRANCH  17  18
ENDBRANCH  16  17
ENDBRANCH   3  16
TORSDOF 7
ENDMDL
MODEL 7
REMARK VINA RESULT:    -6.286      4.330      7.421
REMARK INTER + INTRA:          -9.878
REMARK INTER:                  -9.127
REMARK INTRA:                  -0.752
REMARK UNBOUND:                -1.020
REMARK  Name = 
REMARK  8 active torsions:
REMARK  status: ('A' for Active; 'I' for Inactive)
REMARK    1  A    between atoms: C_1  and  C_2
REMARK    2  A    between atoms: C_2  and  O_3
REMARK    3  A    between atoms: O_3  and  C_4
REMARK    4  A    between atoms: C_6  and  C_7
REMARK    5  A    between atoms: C_7  and  C_8
REMARK    6  A    between atoms: C_8  and  N_9
REMARK    7  A    between atoms: C_13  and  C_14
REMARK    8  A    between atoms: C_20  and  C_21
REMARK                            x       y       z     vdW  Elec       q    Type
REMARK                         _______ _______ _______ _____ _____    ______ ____
ROOT
ATOM      1  C   UNL     1      44.405   5.037  11.520  0.00  0.00    +0.000 A 
ATOM      2  C   UNL     1      45.430   4.628  12.373  0.00  0.00    +0.000 A 
ATOM      3  C   UNL     1      46.199   5.574  13.061  0.00  0.00    +0.000 A 
ATOM      4  C   UNL     1      45.928   6.939  12.875  0.00  0.00    +0.000 A 
ATOM      5  C   UNL     1      44.933   7.387  11.985  0.00  0.00    +0.000 A 
ATOM      6  C   UNL     1      44.161   6.404  11.340  0.00  0.00    +0.000 A 
ENDROOT
BRANCH   5   7
ATOM      7  C   UNL     1      44.783   8.826  11.655  0.00  0.00    +0.000 A 
ATOM      8  C   UNL     1      45.725   9.768  12.112  0.00  0.00    +0.000 A 
ATOM      9  C   UNL     1      45.664  11.112  11.738  0.00  0.00    +0.000 A 
ATOM     10  C   UNL     1      44.656  11.551  10.887  0.00  0.00    +0.000 A 
ATOM     11  C   UNL     1      43.699  10.648  10.431  0.00  0.00    +0.000 A 
ATOM     12  C   UNL     1      43.757   9.304  10.819  0.00  0.00    +0.000 A 
ENDBRANCH   5   7
BRANCH   1  13
ATOM     13  O   UNL     1      43.600   4.211  10.780  0.00  0.00    +0.000 OA
BRANCH  13  15
ATOM     14  C   UNL     1      44.507   2.601   9.264  0.00  0.00    +0.000 C 
ATOM     15  C   UNL     1      44.005   2.847  10.674  0.00  0.00    +0.000 C 
ENDBRANCH  13  15
ENDBRANCH   1  13
BRANCH   3  16
ATOM     16  C   UNL     1      47.379   5.144  13.904  0.00  0.00    +0.000 C 
BRANCH  16  17
ATOM     17  C   UNL     1      46.906   4.659  15.281  0.00  0.00    +0.000 C 
BRANCH  17  18
ATOM     18  N   UNL     1      47.413   3.312  15.578  0.00  0.00    +0.000 N 
ATOM     19  C   UNL     1      48.623   3.342  16.301  0.00  0.00    +0.000 A 
ATOM     20  C   UNL     1      49.232   2.143  16.655  0.00  0.00    +0.000 A 
ATOM     21  C   UNL     1      50.430   2.164  17.378  0.00  0.00    +0.000 A 
ATOM     22  C   UNL     1      51.000   3.386  17.736  0.00  0.00    +0.000 A 
ATOM     23  C   UNL     1      50.322   4.528  17.357  0.00  0.00    +0.000 A 
ATOM     24  N   UNL     1      49.158   4.527  16.659  0.00  0.00    +0.000 NA
ATOM     25  H   UNL     1      47.551   2.754  14.741  0.00  0.00    +0.000 HD
BRANCH  22  26
ATOM     26  C   UNL     1      52.278   3.415  18.490  0.00  0.00    +0.000 C 
ATOM     27  N   UNL     1      52.291   3.921  19.759  0.00  0.00    +0.000 N 
ATOM     28  O   UNL     1      53.316   3.000  17.986  0.00  0.00    +0.000 OA
ATOM     29  H   UNL     1      51.503   4.301  20.261  0.00  0.00    +0.000 HD
ATOM     30  H   UNL     1      53.187   3.932  20.231  0.00  0.00    +0.000 HD
ENDBRANCH  22  26
ENDBRANCH  17  18
ENDBRANCH  16  17
ENDBRANCH   3  16
TORSDOF 7
ENDMDL
MODEL 8
REMARK VINA RESULT:    -6.124      3.874      6.731
REMARK INTER + INTRA:          -9.650
REMARK INTER:                  -8.763
REMARK INTRA:                  -0.887
REMARK UNBOUND:                -1.020
REMARK  Name = 
REMARK  8 active torsions:
REMARK  status: ('A' for Active; 'I' for Inactive)
REMARK    1  A    between atoms: C_1  and  C_2
REMARK    2  A    between atoms: C_2  and  O_3
REMARK    3  A    between atoms: O_3  and  C_4
REMARK    4  A    between atoms: C_6  and  C_7
REMARK    5  A    between atoms: C_7  and  C_8
REMARK    6  A    between atoms: C_8  and  N_9
REMARK    7  A    between atoms: C_13  and  C_14
REMARK    8  A    between atoms: C_20  and  C_21
REMARK                            x       y       z     vdW  Elec       q    Type
REMARK                         _______ _______ _______ _____ _____    ______ ____
ROOT
ATOM      1  C   UNL     1      48.770   6.729  19.183  0.00  0.00    +0.000 A 
ATOM      2  C   UNL     1      48.570   7.489  18.031  0.00  0.00    +0.000 A 
ATOM      3  C   UNL     1      48.962   6.996  16.780  0.00  0.00    +0.000 A 
ATOM      4  C   UNL     1      49.565   5.731  16.704  0.00  0.00    +0.000 A 
ATOM      5  C   UNL     1      49.825   4.959  17.852  0.00  0.00    +0.000 A 
ATOM      6  C   UNL     1      49.384   5.475  19.084  0.00  0.00    +0.000 A 
ENDROOT
BRANCH   5   7
ATOM      7  C   UNL     1      50.628   3.713  17.780  0.00  0.00    +0.000 A 
ATOM      8  C   UNL     1      50.049   2.513  17.323  0.00  0.00    +0.000 A 
ATOM      9  C   UNL     1      50.803   1.350  17.153  0.00  0.00    +0.000 A 
ATOM     10  C   UNL     1      52.166   1.358  17.429  0.00  0.00    +0.000 A 
ATOM     11  C   UNL     1      52.765   2.525  17.898  0.00  0.00    +0.000 A 
ATOM     12  C   UNL     1      52.002   3.685  18.080  0.00  0.00    +0.000 A 
ENDBRANCH   5   7
BRANCH   1  13
ATOM     13  O   UNL     1      48.448   7.108  20.460  0.00  0.00    +0.000 OA
BRANCH  13  15
ATOM     14  C   UNL     1      47.797   5.709  22.285  0.00  0.00    +0.000 C 
ATOM     15  C   UNL     1      47.324   6.462  21.056  0.00  0.00    +0.000 C 
ENDBRANCH  13  15
ENDBRANCH   1  13
BRANCH   3  16
ATOM     16  C   UNL     1      48.847   7.857  15.541  0.00  0.00    +0.000 C 
BRANCH  16  17
ATOM     17  C   UNL     1      48.460   7.002  14.328  0.00  0.00    +0.000 C 
BRANCH  17  18
ATOM     18  N   UNL     1      47.230   7.494  13.693  0.00  0.00    +0.000 N 
ATOM     19  C   UNL     1      46.424   6.448  13.202  0.00  0.00    +0.000 A 
ATOM     20  C   UNL     1      45.224   6.755  12.569  0.00  0.00    +0.000 A 
ATOM     21  C   UNL     1      44.414   5.722  12.084  0.00  0.00    +0.000 A 
ATOM     22  C   UNL     1      44.819   4.396  12.241  0.00  0.00    +0.000 A 
ATOM     23  C   UNL     1      46.016   4.179  12.894  0.00  0.00    +0.000 A 
ATOM     24  N   UNL     1      46.812   5.168  13.374  0.00  0.00    +0.000 NA
ATOM     25  H   UNL     1      47.416   8.142  12.934  0.00  0.00    +0.000 HD
BRANCH  22  26
ATOM     26  C   UNL     1      43.972   3.296  11.716  0.00  0.00    +0.000 C 
ATOM     27  N   UNL     1      43.577   2.297  12.561  0.00  0.00    +0.000 N 
ATOM     28  O   UNL     1      43.631   3.270  10.539  0.00  0.00    +0.000 OA
ATOM     29  H   UNL     1      43.812   2.211  13.538  0.00  0.00    +0.000 HD
ATOM     30  H   UNL     1      43.011   1.561  12.157  0.00  0.00    +0.000 HD
ENDBRANCH  22  26
ENDBRANCH  17  18
ENDBRANCH  16  17
ENDBRANCH   3  16
TORSDOF 7
ENDMDL
MODEL 9
REMARK VINA RESULT:    -6.123      4.433      7.267
REMARK INTER + INTRA:          -9.649
REMARK INTER:                  -8.819
REMARK INTRA:                  -0.830
REMARK UNBOUND:                -1.020
REMARK  Name = 
REMARK  8 active torsions:
REMARK  status: ('A' for Active; 'I' for Inactive)
REMARK    1  A    between atoms: C_1  and  C_2
REMARK    2  A    between atoms: C_2  and  O_3
REMARK    3  A    between atoms: O_3  and  C_4
REMARK    4  A    between atoms: C_6  and  C_7
REMARK    5  A    between atoms: C_7  and  C_8
REMARK    6  A    between atoms: C_8  and  N_9
REMARK    7  A    between atoms: C_13  and  C_14
REMARK    8  A    between atoms: C_20  and  C_21
REMARK                            x       y       z     vdW  Elec       q    Type
REMARK                         _______ _______ _______ _____ _____    ______ ____
ROOT
ATOM      1  C   UNL     1      49.944   5.520  19.171  0.00  0.00    +0.000 A 
ATOM      2  C   UNL     1      48.709   5.169  18.626  0.00  0.00    +0.000 A 
ATOM      3  C   UNL     1      48.570   3.982  17.896  0.00  0.00    +0.000 A 
ATOM      4  C   UNL     1      49.691   3.156  17.716  0.00  0.00    +0.000 A 
ATOM      5  C   UNL     1      50.961   3.506  18.211  0.00  0.00    +0.000 A 
ATOM      6  C   UNL     1      51.050   4.687  18.968  0.00  0.00    +0.000 A 
ENDROOT
BRANCH   5   7
ATOM      7  C   UNL     1      52.171   2.724  17.855  0.00  0.00    +0.000 A 
ATOM      8  C   UNL     1      53.444   3.327  17.870  0.00  0.00    +0.000 A 
ATOM      9  C   UNL     1      54.609   2.593  17.634  0.00  0.00    +0.000 A 
ATOM     10  C   UNL     1      54.532   1.228  17.384  0.00  0.00    +0.000 A 
ATOM     11  C   UNL     1      53.287   0.605  17.346  0.00  0.00    +0.000 A 
ATOM     12  C   UNL     1      52.120   1.347  17.569  0.00  0.00    +0.000 A 
ENDBRANCH   5   7
BRANCH   1  13
ATOM     13  O   UNL     1      50.209   6.659  19.885  0.00  0.00    +0.000 OA
BRANCH  13  15
ATOM     14  C   UNL     1      49.794   5.640  22.007  0.00  0.00    +0.000 C 
ATOM     15  C   UNL     1      49.499   6.828  21.111  0.00  0.00    +0.000 C 
ENDBRANCH  13  15
ENDBRANCH   1  13
BRANCH   3  16
ATOM     16  C   UNL     1      47.263   3.646  17.212  0.00  0.00    +0.000 C 
BRANCH  16  17
ATOM     17  C   UNL     1      47.454   3.582  15.691  0.00  0.00    +0.000 C 
BRANCH  17  18
ATOM     18  N   UNL     1      47.386   4.919  15.085  0.00  0.00    +0.000 N 
ATOM     19  C   UNL     1      46.494   4.969  13.995  0.00  0.00    +0.000 A 
ATOM     20  C   UNL     1      46.324   6.169  13.313  0.00  0.00    +0.000 A 
ATOM     21  C   UNL     1      45.434   6.229  12.234  0.00  0.00    +0.000 A 
ATOM     22  C   UNL     1      44.729   5.086  11.855  0.00  0.00    +0.000 A 
ATOM     23  C   UNL     1      44.947   3.942  12.596  0.00  0.00    +0.000 A 
ATOM     24  N   UNL     1      45.802   3.865  13.648  0.00  0.00    +0.000 NA
ATOM     25  H   UNL     1      48.294   5.251  14.775  0.00  0.00    +0.000 HD
BRANCH  22  26
ATOM     26  C   UNL     1      43.796   5.140  10.703  0.00  0.00    +0.000 C 
ATOM     27  N   UNL     1      44.202   4.651   9.493  0.00  0.00    +0.000 N 
ATOM     28  O   UNL     1      42.674   5.622  10.822  0.00  0.00    +0.000 OA
ATOM     29  H   UNL     1      45.102   4.250   9.281  0.00  0.00    +0.000 HD
ATOM     30  H   UNL     1      43.536   4.720   8.732  0.00  0.00    +0.000 HD
ENDBRANCH  22  26
ENDBRANCH  17  18
ENDBRANCH  16  17
ENDBRANCH   3  16
TORSDOF 7
ENDMDL
