MODEL 1
REMARK VINA RESULT:    -7.784      0.000      0.000
REMARK INTER + INTRA:         -10.717
REMARK INTER:                 -10.287
REMARK INTRA:                  -0.430
REMARK UNBOUND:                -0.430
REMARK  Name = 
REMARK  6 active torsions:
REMARK  status: ('A' for Active; 'I' for Inactive)
REMARK    1  A    between atoms: N_1  and  C_2
REMARK    2  A    between atoms: C_2  and  C_3
REMARK    3  A    between atoms: C_7  and  C_8
REMARK    4  A    between atoms: C_8  and  C_9
REMARK    5  A    between atoms: C_9  and  N_10
REMARK    6  A    between atoms: C_14  and  C_15
REMARK                            x       y       z     vdW  Elec       q    Type
REMARK                         _______ _______ _______ _____ _____    ______ ____
ROOT
ATOM      1  N   UNL     1      43.826   4.648   9.610  0.00  0.00    +0.000 N 
ATOM      2  C   UNL     1      44.775   3.893   8.927  0.00  0.00    +0.000 A 
ATOM      3  C   UNL     1      44.945   2.509   9.099  0.00  0.00    +0.000 A 
ATOM      4  N   UNL     1      45.850   1.750   8.429  0.00  0.00    +0.000 NA
ATOM      5  C   UNL     1      46.582   2.437   7.519  0.00  0.00    +0.000 A 
ATOM      6  C   UNL     1      46.419   3.798   7.310  0.00  0.00    +0.000 A 
ATOM      7  N   UNL     1      45.522   4.548   8.012  0.00  0.00    +0.000 NA
ATOM      8  H   UNL     1      44.041   5.634   9.459  0.00  0.00    +0.000 HD
ENDROOT
BRANCH   5   9
ATOM      9  C   UNL     1      47.584   1.668   6.733  0.00  0.00    +0.000 C 
ATOM     10  N   UNL     1      48.741   2.329   6.410  0.00  0.00    +0.000 N 
ATOM     11  O   UNL     1      47.392   0.509   6.392  0.00  0.00    +0.000 OA
ATOM     12  H   UNL     1      48.882   3.287   6.711  0.00  0.00    +0.000 HD
ATOM     13  H   UNL     1      49.461   1.844   5.894  0.00  0.00    +0.000 HD
ENDBRANCH   5   9
BRANCH   1  14
ATOM     14  C   UNL     1      43.489   4.241  10.968  0.00  0.00    +0.000 C 
BRANCH  14  15
ATOM     15  C   UNL     1      43.517   5.420  11.947  0.00  0.00    +0.000 C 
BRANCH  15  20
ATOM     16  C   UNL     1      46.764   5.188  13.963  0.00  0.00    +0.000 A 
ATOM     17  C   UNL     1      47.597   6.040  13.228  0.00  0.00    +0.000 A 
ATOM     18  C   UNL     1      47.102   6.720  12.114  0.00  0.00    +0.000 A 
ATOM     19  C   UNL     1      45.777   6.546  11.711  0.00  0.00    +0.000 A 
ATOM     20  C   UNL     1      44.930   5.685  12.421  0.00  0.00    +0.000 A 
ATOM     21  C   UNL     1      45.435   5.010  13.544  0.00  0.00    +0.000 A 
BRANCH  16  22
ATOM     22  C   UNL     1      47.293   4.443  15.162  0.00  0.00    +0.000 C 
BRANCH  22  23
ATOM     23  N   UNL     1      47.617   3.062  14.828  0.00  0.00    +0.000 NA
ATOM     24  H   UNL     1      48.441   2.778  15.355  0.00  0.00    +0.000 HD
ATOM     25  H   UNL     1      47.876   3.014  13.844  0.00  0.00    +0.000 HD
ENDBRANCH  22  23
ENDBRANCH  16  22
ENDBRANCH  15  20
ENDBRANCH  14  15
ENDBRANCH   1  14
TORSDOF 6
ENDMDL
MODEL 2
REMARK VINA RESULT:    -7.293      2.880      6.591
REMARK INTER + INTRA:         -10.068
REMARK INTER:                  -9.540
REMARK INTRA:                  -0.528
REMARK UNBOUND:                -0.430
REMARK  Name = 
REMARK  6 active torsions:
REMARK  status: ('A' for Active; 'I' for Inactive)
REMARK    1  A    between atoms: N_1  and  C_2
REMARK    2  A    between atoms: C_2  and  C_3
REMARK    3  A    between atoms: C_7  and  C_8
REMARK    4  A    between atoms: C_8  and  C_9
REMARK    5  A    between atoms: C_9  and  N_10
REMARK    6  A    between atoms: C_14  and  C_15
REMARK                            x       y       z     vdW  Elec       q    Type
REMARK                         _______ _______ _______ _____ _____    ______ ____
ROOT
ATOM      1  N   UNL     1      44.389   2.919  12.477  0.00  0.00    +0.000 N 
ATOM      2  C   UNL     1      45.321   3.875  12.871  0.00  0.00    +0.000 A 
ATOM      3  C   UNL     1      45.206   5.245  12.582  0.00  0.00    +0.000 A 
ATOM      4  N   UNL     1      46.092   6.197  12.974  0.00  0.00    +0.000 NA
ATOM      5  C   UNL     1      47.116   5.724  13.725  0.00  0.00    +0.000 A 
ATOM      6  C   UNL     1      47.242   4.381  14.047  0.00  0.00    +0.000 A 
ATOM      7  N   UNL     1      46.355   3.436  13.622  0.00  0.00    +0.000 NA
ATOM      8  H   UNL     1      44.800   1.998  12.631  0.00  0.00    +0.000 HD
ENDROOT
BRANCH   5   9
ATOM      9  C   UNL     1      48.119   6.712  14.206  0.00  0.00    +0.000 C 
ATOM     10  N   UNL     1      48.435   6.657  15.539  0.00  0.00    +0.000 N 
ATOM     11  O   UNL     1      48.638   7.528  13.458  0.00  0.00    +0.000 OA
ATOM     12  H   UNL     1      47.998   5.966  16.139  0.00  0.00    +0.000 HD
ATOM     13  H   UNL     1      49.125   7.295  15.911  0.00  0.00    +0.000 HD
ENDBRANCH   5   9
BRANCH   1  14
ATOM     14  C   UNL     1      43.694   3.135  11.215  0.00  0.00    +0.000 C 
BRANCH  14  15
ATOM     15  C   UNL     1      44.066   2.082  10.164  0.00  0.00    +0.000 C 
BRANCH  15  20
ATOM     16  C   UNL     1      46.752   2.268   7.442  0.00  0.00    +0.000 A 
ATOM     17  C   UNL     1      46.844   3.651   7.250  0.00  0.00    +0.000 A 
ATOM     18  C   UNL     1      46.076   4.523   8.024  0.00  0.00    +0.000 A 
ATOM     19  C   UNL     1      45.197   4.023   8.987  0.00  0.00    +0.000 A 
ATOM     20  C   UNL     1      45.076   2.642   9.185  0.00  0.00    +0.000 A 
ATOM     21  C   UNL     1      45.857   1.774   8.406  0.00  0.00    +0.000 A 
BRANCH  16  22
ATOM     22  C   UNL     1      47.572   1.320   6.604  0.00  0.00    +0.000 C 
BRANCH  22  23
ATOM     23  N   UNL     1      48.647   2.018   5.911  0.00  0.00    +0.000 NA
ATOM     24  H   UNL     1      48.993   2.769   6.506  0.00  0.00    +0.000 HD
ATOM     25  H   UNL     1      48.265   2.466   5.079  0.00  0.00    +0.000 HD
ENDBRANCH  22  23
ENDBRANCH  16  22
ENDBRANCH  15  20
ENDBRANCH  14  15
ENDBRANCH   1  14
TORSDOF 6
ENDMDL
MODEL 3
REMARK VINA RESULT:    -7.277      1.659      2.127
REMARK INTER + INTRA:         -10.046
REMARK INTER:                  -9.571
REMARK INTRA:                  -0.475
REMARK UNBOUND:                -0.430
REMARK  Name = 
REMARK  6 active torsions:
REMARK  status: ('A' for Active; 'I' for Inactive)
REMARK    1  A    between atoms: N_1  and  C_2
REMARK    2  A    between atoms: C_2  and  C_3
REMARK    3  A    between atoms: C_7  and  C_8
REMARK    4  A    between atoms: C_8  and  C_9
REMARK    5  A    between atoms: C_9  and  N_10
REMARK    6  A    between atoms: C_14  and  C_15
REMARK                            x       y       z     vdW  Elec       q    Type
REMARK                         _______ _______ _______ _____ _____    ______ ____
ROOT
ATOM      1  N   UNL     1      43.734   3.961  10.019  0.00  0.00    +0.000 N 
ATOM      2  C   UNL     1      44.717   3.425   9.191  0.00  0.00    +0.000 A 
ATOM      3  C   UNL     1      45.028   2.057   9.131  0.00  0.00    +0.000 A 
ATOM      4  N   UNL     1      45.968   1.510   8.317  0.00  0.00    +0.000 NA
ATOM      5  C   UNL     1      46.585   2.404   7.507  0.00  0.00    +0.000 A 
ATOM      6  C   UNL     1      46.281   3.757   7.527  0.00  0.00    +0.000 A 
ATOM      7  N   UNL     1      45.351   4.291   8.371  0.00  0.00    +0.000 NA
ATOM      8  H   UNL     1      43.845   4.975  10.023  0.00  0.00    +0.000 HD
ENDROOT
BRANCH   5   9
ATOM      9  C   UNL     1      47.617   1.877   6.575  0.00  0.00    +0.000 C 
ATOM     10  N   UNL     1      48.747   2.639   6.424  0.00  0.00    +0.000 N 
ATOM     11  O   UNL     1      47.472   0.822   5.974  0.00  0.00    +0.000 OA
ATOM     12  H   UNL     1      48.849   3.507   6.939  0.00  0.00    +0.000 HD
ATOM     13  H   UNL     1      49.486   2.315   5.816  0.00  0.00    +0.000 HD
ENDBRANCH   5   9
BRANCH   1  14
ATOM     14  C   UNL     1      43.505   3.311  11.303  0.00  0.00    +0.000 C 
BRANCH  14  15
ATOM     15  C   UNL     1      43.343   4.325  12.441  0.00  0.00    +0.000 C 
BRANCH  15  20
ATOM     16  C   UNL     1      45.849   7.178  12.929  0.00  0.00    +0.000 A 
ATOM     17  C   UNL     1      47.000   6.465  13.287  0.00  0.00    +0.000 A 
ATOM     18  C   UNL     1      46.981   5.070  13.328  0.00  0.00    +0.000 A 
ATOM     19  C   UNL     1      45.809   4.371  13.029  0.00  0.00    +0.000 A 
ATOM     20  C   UNL     1      44.642   5.064  12.685  0.00  0.00    +0.000 A 
ATOM     21  C   UNL     1      44.673   6.467  12.639  0.00  0.00    +0.000 A 
BRANCH  16  22
ATOM     22  C   UNL     1      45.860   8.685  12.890  0.00  0.00    +0.000 C 
BRANCH  22  23
ATOM     23  N   UNL     1      46.872   9.231  13.786  0.00  0.00    +0.000 NA
ATOM     24  H   UNL     1      47.028   8.576  14.550  0.00  0.00    +0.000 HD
ATOM     25  H   UNL     1      46.509  10.084  14.211  0.00  0.00    +0.000 HD
ENDBRANCH  22  23
ENDBRANCH  16  22
ENDBRANCH  15  20
ENDBRANCH  14  15
ENDBRANCH   1  14
TORSDOF 6
ENDMDL
MODEL 4
REMARK VINA RESULT:    -7.047      2.948      6.986
REMARK INTER + INTRA:          -9.743
REMARK INTER:                  -9.334
REMARK INTRA:                  -0.408
REMARK UNBOUND:                -0.430
REMARK  Name = 
REMARK  6 active torsions:
REMARK  status: ('A' for Active; 'I' for Inactive)
REMARK    1  A    between atoms: N_1  and  C_2
REMARK    2  A    between atoms: C_2  and  C_3
REMARK    3  A    between atoms: C_7  and  C_8
REMARK    4  A    between atoms: C_8  and  C_9
REMARK    5  A    between atoms: C_9  and  N_10
REMARK    6  A    between atoms: C_14  and  C_15
REMARK                            x       y       z     vdW  Elec       q    Type
REMARK                         _______ _______ _______ _____ _____    ______ ____
ROOT
ATOM      1  N   UNL     1      45.467   5.311  10.915  0.00  0.00    +0.000 N 
ATOM      2  C   UNL     1      45.975   5.028  12.180  0.00  0.00    +0.000 A 
ATOM      3  C   UNL     1      46.034   3.736  12.728  0.00  0.00    +0.000 A 
ATOM      4  N   UNL     1      46.543   3.434  13.950  0.00  0.00    +0.000 NA
ATOM      5  C   UNL     1      47.046   4.501  14.618  0.00  0.00    +0.000 A 
ATOM      6  C   UNL     1      47.023   5.784  14.092  0.00  0.00    +0.000 A 
ATOM      7  N   UNL     1      46.483   6.071  12.872  0.00  0.00    +0.000 NA
ATOM      8  H   UNL     1      45.353   6.322  10.842  0.00  0.00    +0.000 HD
ENDROOT
BRANCH   5   9
ATOM      9  C   UNL     1      47.637   4.246  15.959  0.00  0.00    +0.000 C 
ATOM     10  N   UNL     1      46.925   3.419  16.790  0.00  0.00    +0.000 N 
ATOM     11  O   UNL     1      48.699   4.743  16.306  0.00  0.00    +0.000 OA
ATOM     12  H   UNL     1      46.051   3.012  16.477  0.00  0.00    +0.000 HD
ATOM     13  H   UNL     1      47.294   3.199  17.704  0.00  0.00    +0.000 HD
ENDBRANCH   5   9
BRANCH   1  14
ATOM     14  C   UNL     1      44.375   4.480  10.425  0.00  0.00    +0.000 C 
BRANCH  14  15
ATOM     15  C   UNL     1      44.326   4.438   8.893  0.00  0.00    +0.000 C 
BRANCH  15  20
ATOM     16  C   UNL     1      46.958   2.496   6.904  0.00  0.00    +0.000 A 
ATOM     17  C   UNL     1      46.843   1.224   7.478  0.00  0.00    +0.000 A 
ATOM     18  C   UNL     1      45.893   0.982   8.471  0.00  0.00    +0.000 A 
ATOM     19  C   UNL     1      45.057   2.010   8.913  0.00  0.00    +0.000 A 
ATOM     20  C   UNL     1      45.165   3.294   8.365  0.00  0.00    +0.000 A 
ATOM     21  C   UNL     1      46.120   3.526   7.362  0.00  0.00    +0.000 A 
BRANCH  16  22
ATOM     22  C   UNL     1      47.988   2.767   5.837  0.00  0.00    +0.000 C 
BRANCH  22  23
ATOM     23  N   UNL     1      48.258   1.574   5.044  0.00  0.00    +0.000 NA
ATOM     24  H   UNL     1      47.703   1.611   4.191  0.00  0.00    +0.000 HD
ATOM     25  H   UNL     1      47.935   0.757   5.560  0.00  0.00    +0.000 HD
ENDBRANCH  22  23
ENDBRANCH  16  22
ENDBRANCH  15  20
ENDBRANCH  14  15
ENDBRANCH   1  14
TORSDOF 6
ENDMDL
MODEL 5
REMARK VINA RESULT:    -6.763      3.873      6.344
REMARK INTER + INTRA:          -9.367
REMARK INTER:                  -9.051
REMARK INTRA:                  -0.316
REMARK UNBOUND:                -0.430
REMARK  Name = 
REMARK  6 active torsions:
REMARK  status: ('A' for Active; 'I' for Inactive)
REMARK    1  A    between atoms: N_1  and  C_2
REMARK    2  A    between atoms: C_2  and  C_3
REMARK    3  A    between atoms: C_7  and  C_8
REMARK    4  A    between atoms: C_8  and  C_9
REMARK    5  A    between atoms: C_9  and  N_10
REMARK    6  A    between atoms: C_14  and  C_15
REMARK                            x       y       z     vdW  Elec       q    Type
REMARK                         _______ _______ _______ _____ _____    ______ ____
ROOT
ATOM      1  N   UNL     1      47.275   3.466  14.634  0.00  0.00    +0.000 N 
ATOM      2  C   UNL     1      46.351   3.902  13.689  0.00  0.00    +0.000 A 
ATOM      3  C   UNL     1      45.948   5.240  13.547  0.00  0.00    +0.000 A 
ATOM      4  N   UNL     1      45.063   5.690  12.620  0.00  0.00    +0.000 NA
ATOM      5  C   UNL     1      44.604   4.729  11.782  0.00  0.00    +0.000 A 
ATOM      6  C   UNL     1      45.003   3.405  11.882  0.00  0.00    +0.000 A 
ATOM      7  N   UNL     1      45.874   2.968  12.837  0.00  0.00    +0.000 NA
ATOM      8  H   UNL     1      47.239   2.447  14.662  0.00  0.00    +0.000 HD
ENDROOT
BRANCH   5   9
ATOM      9  C   UNL     1      43.643   5.150  10.727  0.00  0.00    +0.000 C 
ATOM     10  N   UNL     1      43.908   4.713   9.455  0.00  0.00    +0.000 N 
ATOM     11  O   UNL     1      42.669   5.844  10.976  0.00  0.00    +0.000 OA
ATOM     12  H   UNL     1      44.718   4.130   9.273  0.00  0.00    +0.000 HD
ATOM     13  H   UNL     1      43.275   4.956   8.706  0.00  0.00    +0.000 HD
ENDBRANCH   5   9
BRANCH   1  14
ATOM     14  C   UNL     1      47.316   4.166  15.911  0.00  0.00    +0.000 C 
BRANCH  14  15
ATOM     15  C   UNL     1      47.758   3.250  17.057  0.00  0.00    +0.000 C 
BRANCH  15  20
ATOM     16  C   UNL     1      51.469   2.465  17.579  0.00  0.00    +0.000 A 
ATOM     17  C   UNL     1      51.997   3.754  17.722  0.00  0.00    +0.000 A 
ATOM     18  C   UNL     1      51.157   4.868  17.694  0.00  0.00    +0.000 A 
ATOM     19  C   UNL     1      49.782   4.710  17.508  0.00  0.00    +0.000 A 
ATOM     20  C   UNL     1      49.233   3.432  17.345  0.00  0.00    +0.000 A 
ATOM     21  C   UNL     1      50.087   2.317  17.381  0.00  0.00    +0.000 A 
BRANCH  16  22
ATOM     22  C   UNL     1      52.372   1.258  17.599  0.00  0.00    +0.000 C 
BRANCH  22  23
ATOM     23  N   UNL     1      51.697   0.100  18.171  0.00  0.00    +0.000 NA
ATOM     24  H   UNL     1      52.336  -0.377  18.804  0.00  0.00    +0.000 HD
ATOM     25  H   UNL     1      51.489  -0.561  17.423  0.00  0.00    +0.000 HD
ENDBRANCH  22  23
ENDBRANCH  16  22
ENDBRANCH  15  20
ENDBRANCH  14  15
ENDBRANCH   1  14
TORSDOF 6
ENDMDL
MODEL 6
REMARK VINA RESULT:    -6.495      3.371      7.431
REMARK INTER + INTRA:          -9.013
REMARK INTER:                  -8.622
REMARK INTRA:                  -0.391
REMARK UNBOUND:                -0.430
REMARK  Name = 
REMARK  6 active torsions:
REMARK  status: ('A' for Active; 'I' for Inactive)
REMARK    1  A    between atoms: N_1  and  C_2
REMARK    2  A    between atoms: C_2  and  C_3
REMARK    3  A    between atoms: C_7  and  C_8
REMARK    4  A    between atoms: C_8  and  C_9
REMARK    5  A    between atoms: C_9  and  N_10
REMARK    6  A    between atoms: C_14  and  C_15
REMARK                            x       y       z     vdW  Elec       q    Type
REMARK                         _______ _______ _______ _____ _____    ______ ____
ROOT
ATOM      1  N   UNL     1      47.187   6.378  13.127  0.00  0.00    +0.000 N 
ATOM      2  C   UNL     1      47.410   5.653  14.294  0.00  0.00    +0.000 A 
ATOM      3  C   UNL     1      46.758   4.448  14.602  0.00  0.00    +0.000 A 
ATOM      4  N   UNL     1      46.974   3.715  15.725  0.00  0.00    +0.000 NA
ATOM      5  C   UNL     1      47.927   4.225  16.544  0.00  0.00    +0.000 A 
ATOM      6  C   UNL     1      48.604   5.399  16.253  0.00  0.00    +0.000 A 
ATOM      7  N   UNL     1      48.353   6.136  15.132  0.00  0.00    +0.000 NA
ATOM      8  H   UNL     1      47.622   7.295  13.238  0.00  0.00    +0.000 HD
ENDROOT
BRANCH   5   9
ATOM      9  C   UNL     1      48.231   3.466  17.787  0.00  0.00    +0.000 C 
ATOM     10  N   UNL     1      47.313   2.519  18.161  0.00  0.00    +0.000 N 
ATOM     11  O   UNL     1      49.244   3.670  18.440  0.00  0.00    +0.000 OA
ATOM     12  H   UNL     1      46.484   2.362  17.598  0.00  0.00    +0.000 HD
ATOM     13  H   UNL     1      47.483   1.964  18.988  0.00  0.00    +0.000 HD
ENDBRANCH   5   9
BRANCH   1  14
ATOM     14  C   UNL     1      45.847   6.342  12.555  0.00  0.00    +0.000 C 
BRANCH  14  15
ATOM     15  C   UNL     1      45.868   6.479  11.028  0.00  0.00    +0.000 C 
BRANCH  15  20
ATOM     16  C   UNL     1      45.300   3.684   8.474  0.00  0.00    +0.000 A 
ATOM     17  C   UNL     1      44.464   2.825   9.198  0.00  0.00    +0.000 A 
ATOM     18  C   UNL     1      44.050   3.166  10.486  0.00  0.00    +0.000 A 
ATOM     19  C   UNL     1      44.477   4.358  11.073  0.00  0.00    +0.000 A 
ATOM     20  C   UNL     1      45.328   5.225  10.374  0.00  0.00    +0.000 A 
ATOM     21  C   UNL     1      45.734   4.876   9.076  0.00  0.00    +0.000 A 
BRANCH  16  22
ATOM     22  C   UNL     1      45.759   3.318   7.085  0.00  0.00    +0.000 C 
BRANCH  22  23
ATOM     23  N   UNL     1      46.925   4.098   6.689  0.00  0.00    +0.000 NA
ATOM     24  H   UNL     1      46.988   4.107   5.672  0.00  0.00    +0.000 HD
ATOM     25  H   UNL     1      47.764   3.626   7.023  0.00  0.00    +0.000 HD
ENDBRANCH  22  23
ENDBRANCH  16  22
ENDBRANCH  15  20
ENDBRANCH  14  15
ENDBRANCH   1  14
TORSDOF 6
ENDMDL
MODEL 7
REMARK VINA RESULT:    -6.474      4.267      7.095
REMARK INTER + INTRA:          -8.985
REMARK INTER:                  -8.459
REMARK INTRA:                  -0.526
REMARK UNBOUND:                -0.430
REMARK  Name = 
REMARK  6 active torsions:
REMARK  status: ('A' for Active; 'I' for Inactive)
REMARK    1  A    between atoms: N_1  and  C_2
REMARK    2  A    between atoms: C_2  and  C_3
REMARK    3  A    between atoms: C_7  and  C_8
REMARK    4  A    between atoms: C_8  and  C_9
REMARK    5  A    between atoms: C_9  and  N_10
REMARK    6  A    between atoms: C_14  and  C_15
REMARK                            x       y       z     vdW  Elec       q    Type
REMARK                         _______ _______ _______ _____ _____    ______ ____
ROOT
ATOM      1  N   UNL     1      48.102   7.035  13.539  0.00  0.00    +0.000 N 
ATOM      2  C   UNL     1      47.946   6.075  14.535  0.00  0.00    +0.000 A 
ATOM      3  C   UNL     1      47.077   4.977  14.435  0.00  0.00    +0.000 A 
ATOM      4  N   UNL     1      46.924   4.019  15.385  0.00  0.00    +0.000 NA
ATOM      5  C   UNL     1      47.728   4.178  16.465  0.00  0.00    +0.000 A 
ATOM      6  C   UNL     1      48.614   5.238  16.580  0.00  0.00    +0.000 A 
ATOM      7  N   UNL     1      48.733   6.206  15.626  0.00  0.00    +0.000 NA
ATOM      8  H   UNL     1      48.626   7.816  13.934  0.00  0.00    +0.000 HD
ENDROOT
BRANCH   5   9
ATOM      9  C   UNL     1      47.630   3.157  17.542  0.00  0.00    +0.000 C 
ATOM     10  N   UNL     1      48.750   2.976  18.312  0.00  0.00    +0.000 N 
ATOM     11  O   UNL     1      46.609   2.513  17.736  0.00  0.00    +0.000 OA
ATOM     12  H   UNL     1      49.583   3.528  18.138  0.00  0.00    +0.000 HD
ATOM     13  H   UNL     1      48.728   2.307  19.069  0.00  0.00    +0.000 HD
ENDBRANCH   5   9
BRANCH   1  14
ATOM     14  C   UNL     1      46.936   7.358  12.726  0.00  0.00    +0.000 C 
BRANCH  14  15
ATOM     15  C   UNL     1      47.113   6.924  11.267  0.00  0.00    +0.000 C 
BRANCH  15  20
ATOM     16  C   UNL     1      43.672   5.246  11.165  0.00  0.00    +0.000 A 
ATOM     17  C   UNL     1      43.758   4.532   9.964  0.00  0.00    +0.000 A 
ATOM     18  C   UNL     1      44.934   4.556   9.212  0.00  0.00    +0.000 A 
ATOM     19  C   UNL     1      46.031   5.304   9.642  0.00  0.00    +0.000 A 
ATOM     20  C   UNL     1      45.963   6.040  10.832  0.00  0.00    +0.000 A 
ATOM     21  C   UNL     1      44.778   6.005  11.584  0.00  0.00    +0.000 A 
BRANCH  16  22
ATOM     22  C   UNL     1      42.403   5.233  11.978  0.00  0.00    +0.000 C 
BRANCH  22  23
ATOM     23  N   UNL     1      42.680   5.401  13.399  0.00  0.00    +0.000 NA
ATOM     24  H   UNL     1      42.112   6.166  13.760  0.00  0.00    +0.000 HD
ATOM     25  H   UNL     1      43.652   5.688  13.512  0.00  0.00    +0.000 HD
ENDBRANCH  22  23
ENDBRANCH  16  22
ENDBRANCH  15  20
ENDBRANCH  14  15
ENDBRANCH   1  14
TORSDOF 6
ENDMDL
MODEL 8
REMARK VINA RESULT:    -6.353      3.713      5.648
REMARK INTER + INTRA:          -8.825
REMARK INTER:                  -8.311
REMARK INTRA:                  -0.514
REMARK UNBOUND:                -0.430
REMARK  Name = 
REMARK  6 active torsions:
REMARK  status: ('A' for Active; 'I' for Inactive)
REMARK    1  A    between atoms: N_1  and  C_2
REMARK    2  A    between atoms: C_2  and  C_3
REMARK    3  A    between atoms: C_7  and  C_8
REMARK    4  A    between atoms: C_8  and  C_9
REMARK    5  A    between atoms: C_9  and  N_10
REMARK    6  A    between atoms: C_14  and  C_15
REMARK                            x       y       z     vdW  Elec       q    Type
REMARK                         _______ _______ _______ _____ _____    ______ ____
ROOT
ATOM      1  N   UNL     1      47.192   7.231  13.700  0.00  0.00    +0.000 N 
ATOM      2  C   UNL     1      46.423   6.197  13.173  0.00  0.00    +0.000 A 
ATOM      3  C   UNL     1      46.528   4.858  13.582  0.00  0.00    +0.000 A 
ATOM      4  N   UNL     1      45.775   3.838  13.096  0.00  0.00    +0.000 NA
ATOM      5  C   UNL     1      44.852   4.219  12.179  0.00  0.00    +0.000 A 
ATOM      6  C   UNL     1      44.709   5.538  11.775  0.00  0.00    +0.000 A 
ATOM      7  N   UNL     1      45.494   6.545  12.256  0.00  0.00    +0.000 NA
ATOM      8  H   UNL     1      47.070   8.050  13.103  0.00  0.00    +0.000 HD
ENDROOT
BRANCH   5   9
ATOM      9  C   UNL     1      43.977   3.158  11.614  0.00  0.00    +0.000 C 
ATOM     10  N   UNL     1      43.622   2.144  12.466  0.00  0.00    +0.000 N 
ATOM     11  O   UNL     1      43.590   3.184  10.454  0.00  0.00    +0.000 OA
ATOM     12  H   UNL     1      43.947   2.148  13.427  0.00  0.00    +0.000 HD
ATOM     13  H   UNL     1      43.013   1.409  12.136  0.00  0.00    +0.000 HD
ENDBRANCH   5   9
BRANCH   1  14
ATOM     14  C   UNL     1      48.550   6.914  14.124  0.00  0.00    +0.000 C 
BRANCH  14  15
ATOM     15  C   UNL     1      48.813   7.332  15.575  0.00  0.00    +0.000 C 
BRANCH  15  20
ATOM     16  C   UNL     1      48.926   3.961  17.388  0.00  0.00    +0.000 A 
ATOM     17  C   UNL     1      50.278   3.894  17.744  0.00  0.00    +0.000 A 
ATOM     18  C   UNL     1      51.140   4.949  17.440  0.00  0.00    +0.000 A 
ATOM     19  C   UNL     1      50.667   6.075  16.764  0.00  0.00    +0.000 A 
ATOM     20  C   UNL     1      49.322   6.157  16.383  0.00  0.00    +0.000 A 
ATOM     21  C   UNL     1      48.461   5.093  16.699  0.00  0.00    +0.000 A 
BRANCH  16  22
ATOM     22  C   UNL     1      47.991   2.822  17.705  0.00  0.00    +0.000 C 
BRANCH  22  23
ATOM     23  N   UNL     1      46.601   3.196  17.473  0.00  0.00    +0.000 NA
ATOM     24  H   UNL     1      46.024   2.803  18.214  0.00  0.00    +0.000 HD
ATOM     25  H   UNL     1      46.285   2.765  16.606  0.00  0.00    +0.000 HD
ENDBRANCH  22  23
ENDBRANCH  16  22
ENDBRANCH  15  20
ENDBRANCH  14  15
ENDBRANCH   1  14
TORSDOF 6
ENDMDL
MODEL 9
REMARK VINA RESULT:    -5.794      3.725      6.070
REMARK INTER + INTRA:          -8.087
REMARK INTER:                  -7.307
REMARK INTRA:                  -0.779
REMARK UNBOUND:                -0.430
REMARK  Name = 
REMARK  6 active torsions:
REMARK  status: ('A' for Active; 'I' for Inactive)
REMARK    1  A    between atoms: N_1  and  C_2
REMARK    2  A    between atoms: C_2  and  C_3
REMARK    3  A    between atoms: C_7  and  C_8
REMARK    4  A    between atoms: C_8  and  C_9
REMARK    5  A    between atoms: C_9  and  N_10
REMARK    6  A    between atoms: C_14  and  C_15
REMARK                            x       y       z     vdW  Elec       q    Type
REMARK                         _______ _______ _______ _____ _____    ______ ____
ROOT
ATOM      1  N   UNL     1      48.095   6.422  13.193  0.00  0.00    +0.000 N 
ATOM      2  C   UNL     1      46.860   5.927  12.785  0.00  0.00    +0.000 A 
ATOM      3  C   UNL     1      46.299   6.169  11.521  0.00  0.00    +0.000 A 
ATOM      4  N   UNL     1      45.105   5.680  11.096  0.00  0.00    +0.000 NA
ATOM      5  C   UNL     1      44.483   4.880  11.996  0.00  0.00    +0.000 A 
ATOM      6  C   UNL     1      45.024   4.604  13.242  0.00  0.00    +0.000 A 
ATOM      7  N   UNL     1      46.213   5.126  13.660  0.00  0.00    +0.000 NA
ATOM      8  H   UNL     1      48.176   6.277  14.200  0.00  0.00    +0.000 HD
ENDROOT
BRANCH   5   9
ATOM      9  C   UNL     1      43.176   4.293  11.594  0.00  0.00    +0.000 C 
ATOM     10  N   UNL     1      42.080   5.106  11.722  0.00  0.00    +0.000 N 
ATOM     11  O   UNL     1      43.081   3.150  11.171  0.00  0.00    +0.000 OA
ATOM     12  H   UNL     1      42.184   6.053  12.067  0.00  0.00    +0.000 HD
ATOM     13  H   UNL     1      41.172   4.760  11.444  0.00  0.00    +0.000 HD
ENDBRANCH   5   9
BRANCH   1  14
ATOM     14  C   UNL     1      48.507   7.720  12.673  0.00  0.00    +0.000 C 
BRANCH  14  15
ATOM     15  C   UNL     1      47.819   8.878  13.402  0.00  0.00    +0.000 C 
BRANCH  15  20
ATOM     16  C   UNL     1      44.877  10.117  11.288  0.00  0.00    +0.000 A 
ATOM     17  C   UNL     1      45.404  11.305  10.766  0.00  0.00    +0.000 A 
ATOM     18  C   UNL     1      46.715  11.682  11.058  0.00  0.00    +0.000 A 
ATOM     19  C   UNL     1      47.511  10.888  11.887  0.00  0.00    +0.000 A 
ATOM     20  C   UNL     1      47.000   9.705  12.434  0.00  0.00    +0.000 A 
ATOM     21  C   UNL     1      45.681   9.330  12.129  0.00  0.00    +0.000 A 
BRANCH  16  22
ATOM     22  C   UNL     1      43.459   9.707  10.984  0.00  0.00    +0.000 C 
BRANCH  22  23
ATOM     23  N   UNL     1      43.317   8.256  10.971  0.00  0.00    +0.000 NA
ATOM     24  H   UNL     1      43.157   7.930  11.922  0.00  0.00    +0.000 HD
ATOM     25  H   UNL     1      44.199   7.843  10.671  0.00  0.00    +0.000 HD
ENDBRANCH  22  23
ENDBRANCH  16  22
ENDBRANCH  15  20
ENDBRANCH  14  15
ENDBRANCH   1  14
TORSDOF 6
ENDMDL
