MODEL 1
REMARK VINA RESULT:    -8.468      0.000      0.000
REMARK INTER + INTRA:         -11.510
REMARK INTER:                 -10.944
REMARK INTRA:                  -0.566
REMARK UNBOUND:                -0.566
REMARK  Name = 
REMARK  5 active torsions:
REMARK  status: ('A' for Active; 'I' for Inactive)
REMARK    1  A    between atoms: C_2  and  C_4
REMARK    2  A    between atoms: C_7  and  O_8
REMARK    3  A    between atoms: O_8  and  C_9
REMARK    4  A    between atoms: C_9  and  C_10
REMARK    5  A    between atoms: C_15  and  C_16
REMARK                            x       y       z     vdW  Elec       q    Type
REMARK                         _______ _______ _______ _____ _____    ______ ____
ROOT
ATOM      1  C   UNL     1      44.962   4.376  12.025  0.00  0.00    +0.000 A 
ATOM      2  C   UNL     1      45.658   3.524  12.891  0.00  0.00    +0.000 A 
ATOM      3  C   UNL     1      46.758   3.994  13.586  0.00  0.00    +0.000 A 
ATOM      4  F   UNL     1      47.409   3.174  14.422  0.00  0.00    +0.000 F 
ATOM      5  C   UNL     1      47.205   5.300  13.422  0.00  0.00    +0.000 A 
ATOM      6  C   UNL     1      46.568   6.168  12.525  0.00  0.00    +0.000 A 
ATOM      7  C   UNL     1      45.416   5.694  11.862  0.00  0.00    +0.000 A 
ENDROOT
BRANCH   6   8
ATOM      8  C   UNL     1      47.057   7.589  12.246  0.00  0.00    +0.000 C 
ATOM      9  C   UNL     1      48.502   7.615  11.703  0.00  0.00    +0.000 C 
ATOM     10  C   UNL     1      49.536   7.392  12.808  0.00  0.00    +0.000 C 
ATOM     11  N   UNL     1      49.416   8.393  13.870  0.00  0.00    +0.000 NA
ATOM     12  C   UNL     1      48.080   8.376  14.464  0.00  0.00    +0.000 C 
ATOM     13  C   UNL     1      46.975   8.586  13.422  0.00  0.00    +0.000 C 
ATOM     14  H   UNL     1      49.598   9.318  13.481  0.00  0.00    +0.000 HD
ENDBRANCH   6   8
BRANCH   1  15
ATOM     15  C   UNL     1      43.770   3.809  11.293  0.00  0.00    +0.000 C 
BRANCH  15  16
ATOM     16  O   UNL     1      43.741   4.133   9.903  0.00  0.00    +0.000 OA
BRANCH  16  20
ATOM     17  C   UNL     1      46.604   2.364   7.428  0.00  0.00    +0.000 A 
ATOM     18  C   UNL     1      45.922   1.557   8.344  0.00  0.00    +0.000 A 
ATOM     19  C   UNL     1      44.960   2.117   9.188  0.00  0.00    +0.000 A 
ATOM     20  C   UNL     1      44.674   3.485   9.133  0.00  0.00    +0.000 A 
ATOM     21  C   UNL     1      45.377   4.293   8.236  0.00  0.00    +0.000 A 
ATOM     22  C   UNL     1      46.343   3.737   7.389  0.00  0.00    +0.000 A 
BRANCH  17  24
ATOM     23  N   UNL     1      48.782   2.486   6.355  0.00  0.00    +0.000 N 
ATOM     24  C   UNL     1      47.614   1.790   6.506  0.00  0.00    +0.000 C 
ATOM     25  O   UNL     1      47.431   0.722   5.934  0.00  0.00    +0.000 OA
ATOM     26  H   UNL     1      49.506   2.030   5.811  0.00  0.00    +0.000 HD
ATOM     27  H   UNL     1      49.067   3.205   7.001  0.00  0.00    +0.000 HD
ENDBRANCH  17  24
ENDBRANCH  16  20
ENDBRANCH  15  16
ENDBRANCH   1  15
TORSDOF 5
ENDMDL
MODEL 2
REMARK VINA RESULT:    -7.947      1.753      2.536
REMARK INTER + INTRA:         -10.835
REMARK INTER:                 -10.299
REMARK INTRA:                  -0.536
REMARK UNBOUND:                -0.566
REMARK  Name = 
REMARK  5 active torsions:
REMARK  status: ('A' for Active; 'I' for Inactive)
REMARK    1  A    between atoms: C_2  and  C_4
REMARK    2  A    between atoms: C_7  and  O_8
REMARK    3  A    between atoms: O_8  and  C_9
REMARK    4  A    between atoms: C_9  and  C_10
REMARK    5  A    between atoms: C_15  and  C_16
REMARK                            x       y       z     vdW  Elec       q    Type
REMARK                         _______ _______ _______ _____ _____    ______ ____
ROOT
ATOM      1  C   UNL     1      44.832   5.307  11.688  0.00  0.00    +0.000 A 
ATOM      2  C   UNL     1      44.128   6.491  11.437  0.00  0.00    +0.000 A 
ATOM      3  C   UNL     1      44.772   7.712  11.536  0.00  0.00    +0.000 A 
ATOM      4  F   UNL     1      44.092   8.837  11.282  0.00  0.00    +0.000 F 
ATOM      5  C   UNL     1      46.109   7.789  11.907  0.00  0.00    +0.000 A 
ATOM      6  C   UNL     1      46.834   6.631  12.217  0.00  0.00    +0.000 A 
ATOM      7  C   UNL     1      46.183   5.389  12.061  0.00  0.00    +0.000 A 
ENDROOT
BRANCH   6   8
ATOM      8  C   UNL     1      48.284   6.657  12.702  0.00  0.00    +0.000 C 
ATOM      9  C   UNL     1      48.390   6.958  14.213  0.00  0.00    +0.000 C 
ATOM     10  C   UNL     1      48.179   8.442  14.519  0.00  0.00    +0.000 C 
ATOM     11  N   UNL     1      49.140   9.283  13.804  0.00  0.00    +0.000 NA
ATOM     12  C   UNL     1      49.045   9.082  12.358  0.00  0.00    +0.000 C 
ATOM     13  C   UNL     1      49.239   7.616  11.959  0.00  0.00    +0.000 C 
ATOM     14  H   UNL     1      50.084   9.052  14.114  0.00  0.00    +0.000 HD
ENDBRANCH   6   8
BRANCH   1  15
ATOM     15  C   UNL     1      44.079   4.005  11.564  0.00  0.00    +0.000 C 
BRANCH  15  16
ATOM     16  O   UNL     1      43.590   3.747  10.247  0.00  0.00    +0.000 OA
BRANCH  16  20
ATOM     17  C   UNL     1      46.492   2.395   7.564  0.00  0.00    +0.000 A 
ATOM     18  C   UNL     1      46.183   3.759   7.583  0.00  0.00    +0.000 A 
ATOM     19  C   UNL     1      45.216   4.244   8.467  0.00  0.00    +0.000 A 
ATOM     20  C   UNL     1      44.543   3.375   9.333  0.00  0.00    +0.000 A 
ATOM     21  C   UNL     1      44.835   2.010   9.292  0.00  0.00    +0.000 A 
ATOM     22  C   UNL     1      45.802   1.519   8.407  0.00  0.00    +0.000 A 
BRANCH  17  24
ATOM     23  N   UNL     1      48.614   2.659   6.406  0.00  0.00    +0.000 N 
ATOM     24  C   UNL     1      47.531   1.859   6.651  0.00  0.00    +0.000 C 
ATOM     25  O   UNL     1      47.448   0.736   6.169  0.00  0.00    +0.000 OA
ATOM     26  H   UNL     1      49.367   2.240   5.873  0.00  0.00    +0.000 HD
ATOM     27  H   UNL     1      48.838   3.452   6.986  0.00  0.00    +0.000 HD
ENDBRANCH  17  24
ENDBRANCH  16  20
ENDBRANCH  15  16
ENDBRANCH   1  15
TORSDOF 5
ENDMDL
MODEL 3
REMARK VINA RESULT:    -7.352      3.240      3.859
REMARK INTER + INTRA:         -10.067
REMARK INTER:                  -9.662
REMARK INTRA:                  -0.405
REMARK UNBOUND:                -0.566
REMARK  Name = 
REMARK  5 active torsions:
REMARK  status: ('A' for Active; 'I' for Inactive)
REMARK    1  A    between atoms: C_2  and  C_4
REMARK    2  A    between atoms: C_7  and  O_8
REMARK    3  A    between atoms: O_8  and  C_9
REMARK    4  A    between atoms: C_9  and  C_10
REMARK    5  A    between atoms: C_15  and  C_16
REMARK                            x       y       z     vdW  Elec       q    Type
REMARK                         _______ _______ _______ _____ _____    ______ ____
ROOT
ATOM      1  C   UNL     1      44.700   6.482  11.762  0.00  0.00    +0.000 A 
ATOM      2  C   UNL     1      45.612   6.852  12.759  0.00  0.00    +0.000 A 
ATOM      3  C   UNL     1      45.878   8.191  12.988  0.00  0.00    +0.000 A 
ATOM      4  F   UNL     1      46.743   8.534  13.952  0.00  0.00    +0.000 F 
ATOM      5  C   UNL     1      45.273   9.183  12.226  0.00  0.00    +0.000 A 
ATOM      6  C   UNL     1      44.395   8.852  11.186  0.00  0.00    +0.000 A 
ATOM      7  C   UNL     1      44.089   7.487  10.995  0.00  0.00    +0.000 A 
ENDROOT
BRANCH   6   8
ATOM      8  C   UNL     1      43.756   9.893  10.267  0.00  0.00    +0.000 C 
ATOM      9  C   UNL     1      44.544  11.221  10.250  0.00  0.00    +0.000 C 
ATOM     10  C   UNL     1      44.288  12.057  11.505  0.00  0.00    +0.000 C 
ATOM     11  N   UNL     1      42.866  12.358  11.673  0.00  0.00    +0.000 NA
ATOM     12  C   UNL     1      42.072  11.132  11.753  0.00  0.00    +0.000 C 
ATOM     13  C   UNL     1      42.272  10.226  10.534  0.00  0.00    +0.000 C 
ATOM     14  H   UNL     1      42.544  12.914  10.881  0.00  0.00    +0.000 HD
ENDBRANCH   6   8
BRANCH   1  15
ATOM     15  C   UNL     1      44.448   5.008  11.557  0.00  0.00    +0.000 C 
BRANCH  15  16
ATOM     16  O   UNL     1      43.928   4.688  10.266  0.00  0.00    +0.000 OA
BRANCH  16  20
ATOM     17  C   UNL     1      46.478   2.545   7.745  0.00  0.00    +0.000 A 
ATOM     18  C   UNL     1      45.697   1.837   8.664  0.00  0.00    +0.000 A 
ATOM     19  C   UNL     1      44.836   2.523   9.523  0.00  0.00    +0.000 A 
ATOM     20  C   UNL     1      44.750   3.919   9.480  0.00  0.00    +0.000 A 
ATOM     21  C   UNL     1      45.551   4.624   8.579  0.00  0.00    +0.000 A 
ATOM     22  C   UNL     1      46.417   3.942   7.717  0.00  0.00    +0.000 A 
BRANCH  17  24
ATOM     23  N   UNL     1      48.512   2.506   6.413  0.00  0.00    +0.000 N 
ATOM     24  C   UNL     1      47.384   1.839   6.806  0.00  0.00    +0.000 C 
ATOM     25  O   UNL     1      47.157   0.696   6.429  0.00  0.00    +0.000 OA
ATOM     26  H   UNL     1      49.176   1.974   5.862  0.00  0.00    +0.000 HD
ATOM     27  H   UNL     1      48.856   3.316   6.905  0.00  0.00    +0.000 HD
ENDBRANCH  17  24
ENDBRANCH  16  20
ENDBRANCH  15  16
ENDBRANCH   1  15
TORSDOF 5
ENDMDL
MODEL 4
REMARK VINA RESULT:    -7.237      4.973      7.921
REMARK INTER + INTRA:          -9.919
REMARK INTER:                  -9.508
REMARK INTRA:                  -0.411
REMARK UNBOUND:                -0.566
REMARK  Name = 
REMARK  5 active torsions:
REMARK  status: ('A' for Active; 'I' for Inactive)
REMARK    1  A    between atoms: C_2  and  C_4
REMARK    2  A    between atoms: C_7  and  O_8
REMARK    3  A    between atoms: O_8  and  C_9
REMARK    4  A    between atoms: C_9  and  C_10
REMARK    5  A    between atoms: C_15  and  C_16
REMARK                            x       y       z     vdW  Elec       q    Type
REMARK                         _______ _______ _______ _____ _____    ______ ____
ROOT
ATOM      1  C   UNL     1      46.703   4.987  14.212  0.00  0.00    +0.000 A 
ATOM      2  C   UNL     1      47.746   5.801  13.752  0.00  0.00    +0.000 A 
ATOM      3  C   UNL     1      47.629   6.452  12.537  0.00  0.00    +0.000 A 
ATOM      4  F   UNL     1      48.627   7.238  12.113  0.00  0.00    +0.000 F 
ATOM      5  C   UNL     1      46.498   6.295  11.745  0.00  0.00    +0.000 A 
ATOM      6  C   UNL     1      45.455   5.449  12.145  0.00  0.00    +0.000 A 
ATOM      7  C   UNL     1      45.561   4.831  13.410  0.00  0.00    +0.000 A 
ENDROOT
BRANCH   6   8
ATOM      8  C   UNL     1      44.221   5.177  11.285  0.00  0.00    +0.000 C 
ATOM      9  C   UNL     1      43.141   4.378  12.046  0.00  0.00    +0.000 C 
ATOM     10  C   UNL     1      43.492   2.893  12.150  0.00  0.00    +0.000 C 
ATOM     11  N   UNL     1      43.680   2.288  10.830  0.00  0.00    +0.000 NA
ATOM     12  C   UNL     1      44.735   2.970  10.082  0.00  0.00    +0.000 C 
ATOM     13  C   UNL     1      44.468   4.472   9.934  0.00  0.00    +0.000 C 
ATOM     14  H   UNL     1      42.806   2.346  10.307  0.00  0.00    +0.000 HD
ENDBRANCH   6   8
BRANCH   1  15
ATOM     15  C   UNL     1      46.885   4.302  15.544  0.00  0.00    +0.000 C 
BRANCH  15  16
ATOM     16  O   UNL     1      47.832   4.946  16.397  0.00  0.00    +0.000 OA
BRANCH  16  20
ATOM     17  C   UNL     1      51.005   2.427  17.413  0.00  0.00    +0.000 A 
ATOM     18  C   UNL     1      51.142   3.799  17.644  0.00  0.00    +0.000 A 
ATOM     19  C   UNL     1      50.101   4.670  17.314  0.00  0.00    +0.000 A 
ATOM     20  C   UNL     1      48.919   4.183  16.745  0.00  0.00    +0.000 A 
ATOM     21  C   UNL     1      48.797   2.815  16.491  0.00  0.00    +0.000 A 
ATOM     22  C   UNL     1      49.838   1.939  16.819  0.00  0.00    +0.000 A 
BRANCH  17  24
ATOM     23  N   UNL     1      51.708   0.211  18.127  0.00  0.00    +0.000 N 
ATOM     24  C   UNL     1      52.087   1.479  17.776  0.00  0.00    +0.000 C 
ATOM     25  O   UNL     1      53.268   1.799  17.726  0.00  0.00    +0.000 OA
ATOM     26  H   UNL     1      52.459  -0.457  18.264  0.00  0.00    +0.000 HD
ATOM     27  H   UNL     1      50.792  -0.153  17.920  0.00  0.00    +0.000 HD
ENDBRANCH  17  24
ENDBRANCH  16  20
ENDBRANCH  15  16
ENDBRANCH   1  15
TORSDOF 5
ENDMDL
MODEL 5
REMARK VINA RESULT:    -7.024      4.926      8.810
REMARK INTER + INTRA:          -9.643
REMARK INTER:                  -9.421
REMARK INTRA:                  -0.222
REMARK UNBOUND:                -0.566
REMARK  Name = 
REMARK  5 active torsions:
REMARK  status: ('A' for Active; 'I' for Inactive)
REMARK    1  A    between atoms: C_2  and  C_4
REMARK    2  A    between atoms: C_7  and  O_8
REMARK    3  A    between atoms: O_8  and  C_9
REMARK    4  A    between atoms: C_9  and  C_10
REMARK    5  A    between atoms: C_15  and  C_16
REMARK                            x       y       z     vdW  Elec       q    Type
REMARK                         _______ _______ _______ _____ _____    ______ ____
ROOT
ATOM      1  C   UNL     1      46.655   5.177  13.670  0.00  0.00    +0.000 A 
ATOM      2  C   UNL     1      47.584   6.100  13.172  0.00  0.00    +0.000 A 
ATOM      3  C   UNL     1      47.351   6.729  11.961  0.00  0.00    +0.000 A 
ATOM      4  F   UNL     1      48.240   7.619  11.501  0.00  0.00    +0.000 F 
ATOM      5  C   UNL     1      46.217   6.443  11.212  0.00  0.00    +0.000 A 
ATOM      6  C   UNL     1      45.290   5.488  11.650  0.00  0.00    +0.000 A 
ATOM      7  C   UNL     1      45.510   4.892  12.910  0.00  0.00    +0.000 A 
ENDROOT
BRANCH   6   8
ATOM      8  C   UNL     1      44.063   5.077  10.836  0.00  0.00    +0.000 C 
ATOM      9  C   UNL     1      43.039   4.287  11.679  0.00  0.00    +0.000 C 
ATOM     10  C   UNL     1      43.474   2.838  11.901  0.00  0.00    +0.000 C 
ATOM     11  N   UNL     1      43.680   2.135  10.634  0.00  0.00    +0.000 NA
ATOM     12  C   UNL     1      44.686   2.808   9.814  0.00  0.00    +0.000 C 
ATOM     13  C   UNL     1      44.333   4.275   9.545  0.00  0.00    +0.000 C 
ATOM     14  H   UNL     1      42.799   2.100  10.122  0.00  0.00    +0.000 HD
ENDBRANCH   6   8
BRANCH   1  15
ATOM     15  C   UNL     1      46.961   4.523  14.995  0.00  0.00    +0.000 C 
BRANCH  15  16
ATOM     16  O   UNL     1      48.277   4.793  15.480  0.00  0.00    +0.000 OA
BRANCH  16  20
ATOM     17  C   UNL     1      48.776   4.657  19.625  0.00  0.00    +0.000 A 
ATOM     18  C   UNL     1      48.814   3.457  18.907  0.00  0.00    +0.000 A 
ATOM     19  C   UNL     1      48.648   3.467  17.521  0.00  0.00    +0.000 A 
ATOM     20  C   UNL     1      48.437   4.669  16.837  0.00  0.00    +0.000 A 
ATOM     21  C   UNL     1      48.373   5.863  17.560  0.00  0.00    +0.000 A 
ATOM     22  C   UNL     1      48.537   5.858  18.950  0.00  0.00    +0.000 A 
BRANCH  17  24
ATOM     23  N   UNL     1      50.263   4.662  21.549  0.00  0.00    +0.000 N 
ATOM     24  C   UNL     1      48.972   4.676  21.095  0.00  0.00    +0.000 C 
ATOM     25  O   UNL     1      48.026   4.744  21.870  0.00  0.00    +0.000 OA
ATOM     26  H   UNL     1      50.387   4.787  22.547  0.00  0.00    +0.000 HD
ATOM     27  H   UNL     1      51.045   4.877  20.951  0.00  0.00    +0.000 HD
ENDBRANCH  17  24
ENDBRANCH  16  20
ENDBRANCH  15  16
ENDBRANCH   1  15
TORSDOF 5
ENDMDL
MODEL 6
REMARK VINA RESULT:    -6.804      5.579      8.153
REMARK INTER + INTRA:          -9.358
REMARK INTER:                  -8.684
REMARK INTRA:                  -0.674
REMARK UNBOUND:                -0.566
REMARK  Name = 
REMARK  5 active torsions:
REMARK  status: ('A' for Active; 'I' for Inactive)
REMARK    1  A    between atoms: C_2  and  C_4
REMARK    2  A    between atoms: C_7  and  O_8
REMARK    3  A    between atoms: O_8  and  C_9
REMARK    4  A    between atoms: C_9  and  C_10
REMARK    5  A    between atoms: C_15  and  C_16
REMARK                            x       y       z     vdW  Elec       q    Type
REMARK                         _______ _______ _______ _____ _____    ______ ____
ROOT
ATOM      1  C   UNL     1      47.353   4.824  15.129  0.00  0.00    +0.000 A 
ATOM      2  C   UNL     1      48.109   5.967  14.840  0.00  0.00    +0.000 A 
ATOM      3  C   UNL     1      47.890   6.660  13.663  0.00  0.00    +0.000 A 
ATOM      4  F   UNL     1      48.610   7.759  13.403  0.00  0.00    +0.000 F 
ATOM      5  C   UNL     1      46.944   6.228  12.741  0.00  0.00    +0.000 A 
ATOM      6  C   UNL     1      46.205   5.059  12.969  0.00  0.00    +0.000 A 
ATOM      7  C   UNL     1      46.398   4.390  14.196  0.00  0.00    +0.000 A 
ENDROOT
BRANCH   6   8
ATOM      8  C   UNL     1      45.205   4.493  11.961  0.00  0.00    +0.000 C 
ATOM      9  C   UNL     1      44.807   5.528  10.886  0.00  0.00    +0.000 C 
ATOM     10  C   UNL     1      43.807   6.554  11.420  0.00  0.00    +0.000 C 
ATOM     11  N   UNL     1      42.592   5.913  11.925  0.00  0.00    +0.000 NA
ATOM     12  C   UNL     1      42.902   4.960  12.991  0.00  0.00    +0.000 C 
ATOM     13  C   UNL     1      43.907   3.893  12.544  0.00  0.00    +0.000 C 
ATOM     14  H   UNL     1      42.128   5.423  11.161  0.00  0.00    +0.000 HD
ENDBRANCH   6   8
BRANCH   1  15
ATOM     15  C   UNL     1      47.635   4.109  16.428  0.00  0.00    +0.000 C 
BRANCH  15  16
ATOM     16  O   UNL     1      48.681   4.704  17.197  0.00  0.00    +0.000 OA
BRANCH  16  20
ATOM     17  C   UNL     1      51.920   2.120  17.724  0.00  0.00    +0.000 A 
ATOM     18  C   UNL     1      52.108   3.485  17.962  0.00  0.00    +0.000 A 
ATOM     19  C   UNL     1      51.047   4.377  17.793  0.00  0.00    +0.000 A 
ATOM     20  C   UNL     1      49.792   3.919  17.379  0.00  0.00    +0.000 A 
ATOM     21  C   UNL     1      49.614   2.558  17.116  0.00  0.00    +0.000 A 
ATOM     22  C   UNL     1      50.675   1.661  17.282  0.00  0.00    +0.000 A 
BRANCH  17  24
ATOM     23  N   UNL     1      53.164   0.171  16.971  0.00  0.00    +0.000 N 
ATOM     24  C   UNL     1      53.025   1.149  17.917  0.00  0.00    +0.000 C 
ATOM     25  O   UNL     1      53.805   1.240  18.857  0.00  0.00    +0.000 OA
ATOM     26  H   UNL     1      53.986  -0.417  17.053  0.00  0.00    +0.000 HD
ATOM     27  H   UNL     1      52.722   0.230  16.067  0.00  0.00    +0.000 HD
ENDBRANCH  17  24
ENDBRANCH  16  20
ENDBRANCH  15  16
ENDBRANCH   1  15
TORSDOF 5
ENDMDL
MODEL 7
REMARK VINA RESULT:    -6.628      4.386      6.656
REMARK INTER + INTRA:          -9.131
REMARK INTER:                  -8.342
REMARK INTRA:                  -0.789
REMARK UNBOUND:                -0.566
REMARK  Name = 
REMARK  5 active torsions:
REMARK  status: ('A' for Active; 'I' for Inactive)
REMARK    1  A    between atoms: C_2  and  C_4
REMARK    2  A    between atoms: C_7  and  O_8
REMARK    3  A    between atoms: O_8  and  C_9
REMARK    4  A    between atoms: C_9  and  C_10
REMARK    5  A    between atoms: C_15  and  C_16
REMARK                            x       y       z     vdW  Elec       q    Type
REMARK                         _______ _______ _______ _____ _____    ______ ____
ROOT
ATOM      1  C   UNL     1      48.920   7.268  15.424  0.00  0.00    +0.000 A 
ATOM      2  C   UNL     1      48.376   8.342  16.139  0.00  0.00    +0.000 A 
ATOM      3  C   UNL     1      48.514   8.397  17.515  0.00  0.00    +0.000 A 
ATOM      4  F   UNL     1      48.002   9.436  18.187  0.00  0.00    +0.000 F 
ATOM      5  C   UNL     1      49.166   7.386  18.211  0.00  0.00    +0.000 A 
ATOM      6  C   UNL     1      49.678   6.268  17.538  0.00  0.00    +0.000 A 
ATOM      7  C   UNL     1      49.578   6.248  16.130  0.00  0.00    +0.000 A 
ENDROOT
BRANCH   6   8
ATOM      8  C   UNL     1      50.338   5.090  18.255  0.00  0.00    +0.000 C 
ATOM      9  C   UNL     1      49.917   3.731  17.656  0.00  0.00    +0.000 C 
ATOM     10  C   UNL     1      48.514   3.317  18.101  0.00  0.00    +0.000 C 
ATOM     11  N   UNL     1      48.410   3.239  19.560  0.00  0.00    +0.000 NA
ATOM     12  C   UNL     1      48.743   4.520  20.182  0.00  0.00    +0.000 C 
ATOM     13  C   UNL     1      50.137   5.017  19.784  0.00  0.00    +0.000 C 
ATOM     14  H   UNL     1      49.049   2.523  19.904  0.00  0.00    +0.000 HD
ENDBRANCH   6   8
BRANCH   1  15
ATOM     15  C   UNL     1      48.739   7.261  13.926  0.00  0.00    +0.000 C 
BRANCH  15  16
ATOM     16  O   UNL     1      48.432   5.973  13.390  0.00  0.00    +0.000 OA
BRANCH  16  20
ATOM     17  C   UNL     1      44.517   5.355  12.071  0.00  0.00    +0.000 A 
ATOM     18  C   UNL     1      45.325   6.254  11.368  0.00  0.00    +0.000 A 
ATOM     19  C   UNL     1      46.638   6.486  11.784  0.00  0.00    +0.000 A 
ATOM     20  C   UNL     1      47.156   5.830  12.906  0.00  0.00    +0.000 A 
ATOM     21  C   UNL     1      46.337   4.953  13.622  0.00  0.00    +0.000 A 
ATOM     22  C   UNL     1      45.020   4.719  13.210  0.00  0.00    +0.000 A 
BRANCH  17  24
ATOM     23  N   UNL     1      42.243   6.119  11.675  0.00  0.00    +0.000 N 
ATOM     24  C   UNL     1      43.127   5.074  11.637  0.00  0.00    +0.000 C 
ATOM     25  O   UNL     1      42.791   3.972  11.224  0.00  0.00    +0.000 OA
ATOM     26  H   UNL     1      41.329   5.944  11.272  0.00  0.00    +0.000 HD
ATOM     27  H   UNL     1      42.546   7.077  11.747  0.00  0.00    +0.000 HD
ENDBRANCH  17  24
ENDBRANCH  16  20
ENDBRANCH  15  16
ENDBRANCH   1  15
TORSDOF 5
ENDMDL
MODEL 8
REMARK VINA RESULT:    -6.490      3.728      5.826
REMARK INTER + INTRA:          -8.953
REMARK INTER:                  -8.216
REMARK INTRA:                  -0.737
REMARK UNBOUND:                -0.566
REMARK  Name = 
REMARK  5 active torsions:
REMARK  status: ('A' for Active; 'I' for Inactive)
REMARK    1  A    between atoms: C_2  and  C_4
REMARK    2  A    between atoms: C_7  and  O_8
REMARK    3  A    between atoms: O_8  and  C_9
REMARK    4  A    between atoms: C_9  and  C_10
REMARK    5  A    between atoms: C_15  and  C_16
REMARK                            x       y       z     vdW  Elec       q    Type
REMARK                         _______ _______ _______ _____ _____    ______ ____
ROOT
ATOM      1  C   UNL     1      48.760   7.777  14.324  0.00  0.00    +0.000 A 
ATOM      2  C   UNL     1      48.520   9.094  14.735  0.00  0.00    +0.000 A 
ATOM      3  C   UNL     1      48.573   9.419  16.079  0.00  0.00    +0.000 A 
ATOM      4  F   UNL     1      48.354  10.685  16.458  0.00  0.00    +0.000 F 
ATOM      5  C   UNL     1      48.838   8.452  17.040  0.00  0.00    +0.000 A 
ATOM      6  C   UNL     1      49.031   7.113  16.675  0.00  0.00    +0.000 A 
ATOM      7  C   UNL     1      49.028   6.802  15.298  0.00  0.00    +0.000 A 
ENDROOT
BRANCH   6   8
ATOM      8  C   UNL     1      49.253   5.992  17.691  0.00  0.00    +0.000 C 
ATOM      9  C   UNL     1      48.910   4.602  17.113  0.00  0.00    +0.000 C 
ATOM     10  C   UNL     1      47.402   4.359  17.056  0.00  0.00    +0.000 C 
ATOM     11  N   UNL     1      46.784   4.483  18.377  0.00  0.00    +0.000 NA
ATOM     12  C   UNL     1      47.027   5.805  18.953  0.00  0.00    +0.000 C 
ATOM     13  C   UNL     1      48.520   6.137  19.043  0.00  0.00    +0.000 C 
ATOM     14  H   UNL     1      47.171   3.771  18.997  0.00  0.00    +0.000 HD
ENDBRANCH   6   8
BRANCH   1  15
ATOM     15  C   UNL     1      48.688   7.480  12.846  0.00  0.00    +0.000 C 
BRANCH  15  16
ATOM     16  O   UNL     1      47.390   7.671  12.283  0.00  0.00    +0.000 OA
BRANCH  16  20
ATOM     17  C   UNL     1      44.992   4.295  11.736  0.00  0.00    +0.000 A 
ATOM     18  C   UNL     1      45.613   4.480  12.975  0.00  0.00    +0.000 A 
ATOM     19  C   UNL     1      46.424   5.597  13.191  0.00  0.00    +0.000 A 
ATOM     20  C   UNL     1      46.628   6.535  12.173  0.00  0.00    +0.000 A 
ATOM     21  C   UNL     1      46.028   6.334  10.928  0.00  0.00    +0.000 A 
ATOM     22  C   UNL     1      45.216   5.215  10.707  0.00  0.00    +0.000 A 
BRANCH  17  24
ATOM     23  N   UNL     1      43.736   2.391  12.579  0.00  0.00    +0.000 N 
ATOM     24  C   UNL     1      44.109   3.129  11.488  0.00  0.00    +0.000 C 
ATOM     25  O   UNL     1      43.696   2.860  10.367  0.00  0.00    +0.000 OA
ATOM     26  H   UNL     1      43.046   1.667  12.414  0.00  0.00    +0.000 HD
ATOM     27  H   UNL     1      43.833   2.738  13.521  0.00  0.00    +0.000 HD
ENDBRANCH  17  24
ENDBRANCH  16  20
ENDBRANCH  15  16
ENDBRANCH   1  15
TORSDOF 5
ENDMDL
MODEL 9
REMARK VINA RESULT:    -6.337      4.495      7.972
REMARK INTER + INTRA:          -8.755
REMARK INTER:                  -8.033
REMARK INTRA:                  -0.721
REMARK UNBOUND:                -0.566
REMARK  Name = 
REMARK  5 active torsions:
REMARK  status: ('A' for Active; 'I' for Inactive)
REMARK    1  A    between atoms: C_2  and  C_4
REMARK    2  A    between atoms: C_7  and  O_8
REMARK    3  A    between atoms: O_8  and  C_9
REMARK    4  A    between atoms: C_9  and  C_10
REMARK    5  A    between atoms: C_15  and  C_16
REMARK                            x       y       z     vdW  Elec       q    Type
REMARK                         _______ _______ _______ _____ _____    ______ ____
ROOT
ATOM      1  C   UNL     1      47.459   7.362  12.382  0.00  0.00    +0.000 A 
ATOM      2  C   UNL     1      46.921   8.650  12.493  0.00  0.00    +0.000 A 
ATOM      3  C   UNL     1      45.602   8.880  12.143  0.00  0.00    +0.000 A 
ATOM      4  F   UNL     1      45.094  10.113  12.265  0.00  0.00    +0.000 F 
ATOM      5  C   UNL     1      44.800   7.854  11.658  0.00  0.00    +0.000 A 
ATOM      6  C   UNL     1      45.316   6.563  11.483  0.00  0.00    +0.000 A 
ATOM      7  C   UNL     1      46.646   6.328  11.892  0.00  0.00    +0.000 A 
ENDROOT
BRANCH   6   8
ATOM      8  C   UNL     1      44.506   5.412  10.884  0.00  0.00    +0.000 C 
ATOM      9  C   UNL     1      43.078   5.337  11.466  0.00  0.00    +0.000 C 
ATOM     10  C   UNL     1      43.061   4.724  12.867  0.00  0.00    +0.000 C 
ATOM     11  N   UNL     1      43.643   3.381  12.877  0.00  0.00    +0.000 NA
ATOM     12  C   UNL     1      45.021   3.399  12.388  0.00  0.00    +0.000 C 
ATOM     13  C   UNL     1      45.134   4.006  10.985  0.00  0.00    +0.000 C 
ATOM     14  H   UNL     1      43.084   2.768  12.283  0.00  0.00    +0.000 HD
ENDBRANCH   6   8
BRANCH   1  15
ATOM     15  C   UNL     1      48.903   7.170  12.778  0.00  0.00    +0.000 C 
BRANCH  15  16
ATOM     16  O   UNL     1      49.245   7.784  14.021  0.00  0.00    +0.000 OA
BRANCH  16  20
ATOM     17  C   UNL     1      49.726   5.231  17.291  0.00  0.00    +0.000 A 
ATOM     18  C   UNL     1      48.495   5.241  16.627  0.00  0.00    +0.000 A 
ATOM     19  C   UNL     1      48.300   6.085  15.531  0.00  0.00    +0.000 A 
ATOM     20  C   UNL     1      49.325   6.930  15.092  0.00  0.00    +0.000 A 
ATOM     21  C   UNL     1      50.544   6.936  15.774  0.00  0.00    +0.000 A 
ATOM     22  C   UNL     1      50.744   6.094  16.874  0.00  0.00    +0.000 A 
BRANCH  17  24
ATOM     23  N   UNL     1      50.323   3.039  18.157  0.00  0.00    +0.000 N 
ATOM     24  C   UNL     1      49.966   4.328  18.444  0.00  0.00    +0.000 C 
ATOM     25  O   UNL     1      49.889   4.724  19.600  0.00  0.00    +0.000 OA
ATOM     26  H   UNL     1      50.592   2.463  18.947  0.00  0.00    +0.000 HD
ATOM     27  H   UNL     1      50.653   2.762  17.245  0.00  0.00    +0.000 HD
ENDBRANCH  17  24
ENDBRANCH  16  20
ENDBRANCH  15  16
ENDBRANCH   1  15
TORSDOF 5
ENDMDL
