MODEL 1
REMARK VINA RESULT:    -8.288      0.000      0.000
REMARK INTER + INTRA:         -11.007
REMARK INTER:                 -10.711
REMARK INTRA:                  -0.296
REMARK UNBOUND:                -0.296
REMARK  Name = 
REMARK  6 active torsions:
REMARK  status: ('A' for Active; 'I' for Inactive)
REMARK    1  A    between atoms: C_1  and  C_2
REMARK    2  A    between atoms: C_2  and  N_3
REMARK    3  A    between atoms: C_2  and  C_16
REMARK    4  A    between atoms: C_4  and  C_6
REMARK    5  A    between atoms: C_19  and  C_20
REMARK    6  A    between atoms: C_20  and  N_21
REMARK                            x       y       z     vdW  Elec       q    Type
REMARK                         _______ _______ _______ _____ _____    ______ ____
ROOT
ATOM      1  C   UNL     1      43.294   4.274  13.417  0.00  0.00    +0.000 C 
ATOM      2  C   UNL     1      44.122   5.288  12.618  0.00  0.00    +0.000 C 
ENDROOT
BRANCH   2   3
ATOM      3  C   UNL     1      44.502   4.681  11.272  0.00  0.00    +0.000 A 
ATOM      4  C   UNL     1      45.315   5.426  10.405  0.00  0.00    +0.000 A 
ATOM      5  C   UNL     1      45.634   4.951   9.131  0.00  0.00    +0.000 A 
ATOM      6  C   UNL     1      45.165   3.710   8.686  0.00  0.00    +0.000 A 
ATOM      7  C   UNL     1      44.352   2.959   9.549  0.00  0.00    +0.000 A 
ATOM      8  C   UNL     1      44.017   3.445  10.824  0.00  0.00    +0.000 A 
BRANCH   6   9
ATOM      9  C   UNL     1      45.450   3.255   7.271  0.00  0.00    +0.000 C 
BRANCH   9  10
ATOM     10  N   UNL     1      46.819   2.923   6.885  0.00  0.00    +0.000 NA
ATOM     11  C   UNL     1      47.182   3.156   5.485  0.00  0.00    +0.000 C 
ATOM     12  C   UNL     1      46.971   1.943   4.567  0.00  0.00    +0.000 C 
ATOM     13  O   UNL     1      47.642   0.780   5.071  0.00  0.00    +0.000 OA
ATOM     14  C   UNL     1      47.198   0.462   6.395  0.00  0.00    +0.000 C 
ATOM     15  C   UNL     1      47.361   1.647   7.362  0.00  0.00    +0.000 C 
ENDBRANCH   9  10
ENDBRANCH   6   9
ENDBRANCH   2   3
BRANCH   2  16
ATOM     16  N   UNL     1      45.286   5.764  13.346  0.00  0.00    +0.000 N 
ATOM     17  C   UNL     1      46.241   4.898  13.825  0.00  0.00    +0.000 C 
ATOM     18  O   UNL     1      46.211   3.691  13.605  0.00  0.00    +0.000 OA
ATOM     19  H   UNL     1      45.164   6.636  13.854  0.00  0.00    +0.000 HD
BRANCH  17  20
ATOM     20  C   UNL     1      47.350   5.495  14.575  0.00  0.00    +0.000 A 
ATOM     21  C   UNL     1      48.091   6.517  13.997  0.00  0.00    +0.000 A 
ATOM     22  S   UNL     1      49.335   7.109  15.001  0.00  0.00    +0.000 S 
ATOM     23  C   UNL     1      48.956   5.988  16.223  0.00  0.00    +0.000 A 
ATOM     24  N   UNL     1      49.686   5.927  17.368  0.00  0.00    +0.000 NA
ATOM     25  C   UNL     1      49.311   5.007  18.191  0.00  0.00    +0.000 A 
ATOM     26  N   UNL     1      48.260   4.150  17.982  0.00  0.00    +0.000 N 
ATOM     27  C   UNL     1      47.468   4.203  16.858  0.00  0.00    +0.000 A 
ATOM     28  O   UNL     1      46.492   3.472  16.726  0.00  0.00    +0.000 OA
ATOM     29  C   UNL     1      47.872   5.197  15.885  0.00  0.00    +0.000 A 
ATOM     30  H   UNL     1      48.007   3.463  18.675  0.00  0.00    +0.000 HD
ENDBRANCH  17  20
ENDBRANCH   2  16
TORSDOF 5
ENDMDL
MODEL 2
REMARK VINA RESULT:    -7.939      1.442      2.226
REMARK INTER + INTRA:         -10.555
REMARK INTER:                  -9.966
REMARK INTRA:                  -0.588
REMARK UNBOUND:                -0.296
REMARK  Name = 
REMARK  6 active torsions:
REMARK  status: ('A' for Active; 'I' for Inactive)
REMARK    1  A    between atoms: C_1  and  C_2
REMARK    2  A    between atoms: C_2  and  N_3
REMARK    3  A    between atoms: C_2  and  C_16
REMARK    4  A    between atoms: C_4  and  C_6
REMARK    5  A    between atoms: C_19  and  C_20
REMARK    6  A    between atoms: C_20  and  N_21
REMARK                            x       y       z     vdW  Elec       q    Type
REMARK                         _______ _______ _______ _____ _____    ______ ____
ROOT
ATOM      1  C   UNL     1      43.098   4.889  13.192  0.00  0.00    +0.000 C 
ATOM      2  C   UNL     1      44.185   5.697  12.473  0.00  0.00    +0.000 C 
ENDROOT
BRANCH   2   3
ATOM      3  C   UNL     1      44.549   5.004  11.165  0.00  0.00    +0.000 A 
ATOM      4  C   UNL     1      45.445   5.641  10.293  0.00  0.00    +0.000 A 
ATOM      5  C   UNL     1      45.756   5.086   9.050  0.00  0.00    +0.000 A 
ATOM      6  C   UNL     1      45.197   3.871   8.641  0.00  0.00    +0.000 A 
ATOM      7  C   UNL     1      44.300   3.228   9.510  0.00  0.00    +0.000 A 
ATOM      8  C   UNL     1      43.973   3.794  10.753  0.00  0.00    +0.000 A 
BRANCH   6   9
ATOM      9  C   UNL     1      45.480   3.333   7.256  0.00  0.00    +0.000 C 
BRANCH   9  10
ATOM     10  N   UNL     1      46.849   2.977   6.889  0.00  0.00    +0.000 NA
ATOM     11  C   UNL     1      47.208   3.117   5.477  0.00  0.00    +0.000 C 
ATOM     12  C   UNL     1      46.996   1.846   4.641  0.00  0.00    +0.000 C 
ATOM     13  O   UNL     1      47.668   0.720   5.219  0.00  0.00    +0.000 OA
ATOM     14  C   UNL     1      47.227   0.489   6.562  0.00  0.00    +0.000 C 
ATOM     15  C   UNL     1      47.392   1.736   7.448  0.00  0.00    +0.000 C 
ENDBRANCH   9  10
ENDBRANCH   6   9
ENDBRANCH   2   3
BRANCH   2  16
ATOM     16  N   UNL     1      45.353   5.934  13.305  0.00  0.00    +0.000 N 
ATOM     17  C   UNL     1      46.082   4.896  13.837  0.00  0.00    +0.000 C 
ATOM     18  O   UNL     1      45.840   3.719  13.586  0.00  0.00    +0.000 OA
ATOM     19  H   UNL     1      45.358   6.809  13.822  0.00  0.00    +0.000 HD
BRANCH  17  20
ATOM     20  C   UNL     1      47.218   5.263  14.688  0.00  0.00    +0.000 A 
ATOM     21  C   UNL     1      47.346   4.680  15.941  0.00  0.00    +0.000 A 
ATOM     22  S   UNL     1      48.723   5.204  16.799  0.00  0.00    +0.000 S 
ATOM     23  C   UNL     1      49.169   6.262  15.544  0.00  0.00    +0.000 A 
ATOM     24  N   UNL     1      50.260   7.065  15.660  0.00  0.00    +0.000 NA
ATOM     25  C   UNL     1      50.459   7.843  14.649  0.00  0.00    +0.000 A 
ATOM     26  N   UNL     1      49.675   7.881  13.524  0.00  0.00    +0.000 N 
ATOM     27  C   UNL     1      48.587   7.058  13.346  0.00  0.00    +0.000 A 
ATOM     28  O   UNL     1      47.943   7.063  12.302  0.00  0.00    +0.000 OA
ATOM     29  C   UNL     1      48.299   6.191  14.470  0.00  0.00    +0.000 A 
ATOM     30  H   UNL     1      49.896   8.502  12.760  0.00  0.00    +0.000 HD
ENDBRANCH  17  20
ENDBRANCH   2  16
TORSDOF 5
ENDMDL
MODEL 3
REMARK VINA RESULT:    -7.512      3.841      6.625
REMARK INTER + INTRA:         -10.003
REMARK INTER:                  -8.828
REMARK INTRA:                  -1.175
REMARK UNBOUND:                -0.296
REMARK  Name = 
REMARK  6 active torsions:
REMARK  status: ('A' for Active; 'I' for Inactive)
REMARK    1  A    between atoms: C_1  and  C_2
REMARK    2  A    between atoms: C_2  and  N_3
REMARK    3  A    between atoms: C_2  and  C_16
REMARK    4  A    between atoms: C_4  and  C_6
REMARK    5  A    between atoms: C_19  and  C_20
REMARK    6  A    between atoms: C_20  and  N_21
REMARK                            x       y       z     vdW  Elec       q    Type
REMARK                         _______ _______ _______ _____ _____    ______ ____
ROOT
ATOM      1  C   UNL     1      48.355   6.798  18.700  0.00  0.00    +0.000 C 
ATOM      2  C   UNL     1      49.280   6.360  17.558  0.00  0.00    +0.000 C 
ENDROOT
BRANCH   2   3
ATOM      3  C   UNL     1      48.441   5.829  16.402  0.00  0.00    +0.000 A 
ATOM      4  C   UNL     1      47.717   4.641  16.587  0.00  0.00    +0.000 A 
ATOM      5  C   UNL     1      46.991   4.071  15.540  0.00  0.00    +0.000 A 
ATOM      6  C   UNL     1      46.949   4.673  14.278  0.00  0.00    +0.000 A 
ATOM      7  C   UNL     1      47.670   5.863  14.087  0.00  0.00    +0.000 A 
ATOM      8  C   UNL     1      48.415   6.428  15.135  0.00  0.00    +0.000 A 
BRANCH   6   9
ATOM      9  C   UNL     1      46.228   3.993  13.136  0.00  0.00    +0.000 C 
BRANCH   9  10
ATOM     10  N   UNL     1      44.772   4.075  13.053  0.00  0.00    +0.000 NA
ATOM     11  C   UNL     1      44.111   3.142  12.139  0.00  0.00    +0.000 C 
ATOM     12  C   UNL     1      43.900   3.690  10.720  0.00  0.00    +0.000 C 
ATOM     13  O   UNL     1      43.208   4.946  10.739  0.00  0.00    +0.000 OA
ATOM     14  C   UNL     1      43.915   5.912  11.526  0.00  0.00    +0.000 C 
ATOM     15  C   UNL     1      44.179   5.413  12.957  0.00  0.00    +0.000 C 
ENDBRANCH   9  10
ENDBRANCH   6   9
ENDBRANCH   2   3
BRANCH   2  16
ATOM     16  N   UNL     1      50.286   5.401  17.985  0.00  0.00    +0.000 N 
ATOM     17  C   UNL     1      51.530   5.353  17.400  0.00  0.00    +0.000 C 
ATOM     18  O   UNL     1      51.892   6.156  16.545  0.00  0.00    +0.000 OA
ATOM     19  H   UNL     1      49.931   4.534  18.377  0.00  0.00    +0.000 HD
BRANCH  17  20
ATOM     20  C   UNL     1      52.445   4.319  17.892  0.00  0.00    +0.000 A 
ATOM     21  C   UNL     1      53.647   4.694  18.477  0.00  0.00    +0.000 A 
ATOM     22  S   UNL     1      54.589   3.376  19.005  0.00  0.00    +0.000 S 
ATOM     23  C   UNL     1      53.445   2.257  18.428  0.00  0.00    +0.000 A 
ATOM     24  N   UNL     1      53.664   0.919  18.525  0.00  0.00    +0.000 NA
ATOM     25  C   UNL     1      52.731   0.188  18.014  0.00  0.00    +0.000 A 
ATOM     26  N   UNL     1      51.589   0.672  17.428  0.00  0.00    +0.000 N 
ATOM     27  C   UNL     1      51.306   2.016  17.345  0.00  0.00    +0.000 A 
ATOM     28  O   UNL     1      50.247   2.422  16.878  0.00  0.00    +0.000 OA
ATOM     29  C   UNL     1      52.342   2.881  17.872  0.00  0.00    +0.000 A 
ATOM     30  H   UNL     1      50.889   0.045  17.062  0.00  0.00    +0.000 HD
ENDBRANCH  17  20
ENDBRANCH   2  16
TORSDOF 5
ENDMDL
MODEL 4
REMARK VINA RESULT:    -7.281      4.074     10.502
REMARK INTER + INTRA:          -9.705
REMARK INTER:                  -8.633
REMARK INTRA:                  -1.073
REMARK UNBOUND:                -0.296
REMARK  Name = 
REMARK  6 active torsions:
REMARK  status: ('A' for Active; 'I' for Inactive)
REMARK    1  A    between atoms: C_1  and  C_2
REMARK    2  A    between atoms: C_2  and  N_3
REMARK    3  A    between atoms: C_2  and  C_16
REMARK    4  A    between atoms: C_4  and  C_6
REMARK    5  A    between atoms: C_19  and  C_20
REMARK    6  A    between atoms: C_20  and  N_21
REMARK                            x       y       z     vdW  Elec       q    Type
REMARK                         _______ _______ _______ _____ _____    ______ ____
ROOT
ATOM      1  C   UNL     1      47.972   3.151  16.846  0.00  0.00    +0.000 C 
ATOM      2  C   UNL     1      48.079   4.577  16.293  0.00  0.00    +0.000 C 
ENDROOT
BRANCH   2   3
ATOM      3  C   UNL     1      47.969   5.574  17.441  0.00  0.00    +0.000 A 
ATOM      4  C   UNL     1      48.780   6.719  17.416  0.00  0.00    +0.000 A 
ATOM      5  C   UNL     1      48.773   7.628  18.476  0.00  0.00    +0.000 A 
ATOM      6  C   UNL     1      47.947   7.434  19.588  0.00  0.00    +0.000 A 
ATOM      7  C   UNL     1      47.132   6.291  19.618  0.00  0.00    +0.000 A 
ATOM      8  C   UNL     1      47.151   5.367  18.560  0.00  0.00    +0.000 A 
BRANCH   6   9
ATOM      9  C   UNL     1      48.021   8.385  20.763  0.00  0.00    +0.000 C 
BRANCH   9  10
ATOM     10  N   UNL     1      46.917   9.310  21.009  0.00  0.00    +0.000 NA
ATOM     11  C   UNL     1      46.536  10.188  19.901  0.00  0.00    +0.000 C 
ATOM     12  C   UNL     1      47.250  11.548  19.897  0.00  0.00    +0.000 C 
ATOM     13  O   UNL     1      47.094  12.227  21.150  0.00  0.00    +0.000 OA
ATOM     14  C   UNL     1      47.587  11.430  22.234  0.00  0.00    +0.000 C 
ATOM     15  C   UNL     1      46.926  10.042  22.280  0.00  0.00    +0.000 C 
ENDBRANCH   9  10
ENDBRANCH   6   9
ENDBRANCH   2   3
BRANCH   2  16
ATOM     16  N   UNL     1      47.110   4.848  15.244  0.00  0.00    +0.000 N 
ATOM     17  C   UNL     1      47.435   5.603  14.141  0.00  0.00    +0.000 C 
ATOM     18  O   UNL     1      48.568   6.028  13.938  0.00  0.00    +0.000 OA
ATOM     19  H   UNL     1      46.136   4.855  15.533  0.00  0.00    +0.000 HD
BRANCH  17  20
ATOM     20  C   UNL     1      46.362   5.837  13.169  0.00  0.00    +0.000 A 
ATOM     21  C   UNL     1      46.040   7.138  12.809  0.00  0.00    +0.000 A 
ATOM     22  S   UNL     1      44.782   7.238  11.664  0.00  0.00    +0.000 S 
ATOM     23  C   UNL     1      44.592   5.547  11.646  0.00  0.00    +0.000 A 
ATOM     24  N   UNL     1      43.629   4.959  10.888  0.00  0.00    +0.000 NA
ATOM     25  C   UNL     1      43.574   3.674  10.999  0.00  0.00    +0.000 A 
ATOM     26  N   UNL     1      44.406   2.920  11.786  0.00  0.00    +0.000 N 
ATOM     27  C   UNL     1      45.421   3.468  12.537  0.00  0.00    +0.000 A 
ATOM     28  O   UNL     1      46.196   2.766  13.178  0.00  0.00    +0.000 OA
ATOM     29  C   UNL     1      45.501   4.913  12.475  0.00  0.00    +0.000 A 
ATOM     30  H   UNL     1      44.322   1.915  11.814  0.00  0.00    +0.000 HD
ENDBRANCH  17  20
ENDBRANCH   2  16
TORSDOF 5
ENDMDL
MODEL 5
REMARK VINA RESULT:    -7.169      3.837     10.314
REMARK INTER + INTRA:          -9.560
REMARK INTER:                  -8.528
REMARK INTRA:                  -1.033
REMARK UNBOUND:                -0.296
REMARK  Name = 
REMARK  6 active torsions:
REMARK  status: ('A' for Active; 'I' for Inactive)
REMARK    1  A    between atoms: C_1  and  C_2
REMARK    2  A    between atoms: C_2  and  N_3
REMARK    3  A    between atoms: C_2  and  C_16
REMARK    4  A    between atoms: C_4  and  C_6
REMARK    5  A    between atoms: C_19  and  C_20
REMARK    6  A    between atoms: C_20  and  N_21
REMARK                            x       y       z     vdW  Elec       q    Type
REMARK                         _______ _______ _______ _____ _____    ______ ____
ROOT
ATOM      1  C   UNL     1      47.889   3.116  16.782  0.00  0.00    +0.000 C 
ATOM      2  C   UNL     1      48.053   4.532  16.216  0.00  0.00    +0.000 C 
ENDROOT
BRANCH   2   3
ATOM      3  C   UNL     1      48.019   5.541  17.358  0.00  0.00    +0.000 A 
ATOM      4  C   UNL     1      47.236   5.253  18.486  0.00  0.00    +0.000 A 
ATOM      5  C   UNL     1      47.111   6.173  19.529  0.00  0.00    +0.000 A 
ATOM      6  C   UNL     1      47.773   7.404  19.489  0.00  0.00    +0.000 A 
ATOM      7  C   UNL     1      48.559   7.698  18.363  0.00  0.00    +0.000 A 
ATOM      8  C   UNL     1      48.672   6.780  17.306  0.00  0.00    +0.000 A 
BRANCH   6   9
ATOM      9  C   UNL     1      47.553   8.420  20.588  0.00  0.00    +0.000 C 
BRANCH   9  10
ATOM     10  N   UNL     1      48.527   8.530  21.671  0.00  0.00    +0.000 NA
ATOM     11  C   UNL     1      49.498   9.622  21.574  0.00  0.00    +0.000 C 
ATOM     12  C   UNL     1      50.808   9.242  20.868  0.00  0.00    +0.000 C 
ATOM     13  O   UNL     1      51.411   8.088  21.467  0.00  0.00    +0.000 OA
ATOM     14  C   UNL     1      50.516   6.969  21.449  0.00  0.00    +0.000 C 
ATOM     15  C   UNL     1      49.171   7.293  22.123  0.00  0.00    +0.000 C 
ENDBRANCH   9  10
ENDBRANCH   6   9
ENDBRANCH   2   3
BRANCH   2  16
ATOM     16  N   UNL     1      47.076   4.844  15.186  0.00  0.00    +0.000 N 
ATOM     17  C   UNL     1      47.415   5.563  14.064  0.00  0.00    +0.000 C 
ATOM     18  O   UNL     1      48.567   5.917  13.827  0.00  0.00    +0.000 OA
ATOM     19  H   UNL     1      46.111   4.912  15.499  0.00  0.00    +0.000 HD
BRANCH  17  20
ATOM     20  C   UNL     1      46.334   5.844  13.115  0.00  0.00    +0.000 A 
ATOM     21  C   UNL     1      46.038   7.161  12.790  0.00  0.00    +0.000 A 
ATOM     22  S   UNL     1      44.765   7.317  11.668  0.00  0.00    +0.000 S 
ATOM     23  C   UNL     1      44.535   5.632  11.614  0.00  0.00    +0.000 A 
ATOM     24  N   UNL     1      43.546   5.085  10.858  0.00  0.00    +0.000 NA
ATOM     25  C   UNL     1      43.462   3.800  10.940  0.00  0.00    +0.000 A 
ATOM     26  N   UNL     1      44.288   3.008  11.696  0.00  0.00    +0.000 N 
ATOM     27  C   UNL     1      45.327   3.514  12.443  0.00  0.00    +0.000 A 
ATOM     28  O   UNL     1      46.094   2.779  13.055  0.00  0.00    +0.000 OA
ATOM     29  C   UNL     1      45.440   4.958  12.413  0.00  0.00    +0.000 A 
ATOM     30  H   UNL     1      44.180   2.005  11.702  0.00  0.00    +0.000 HD
ENDBRANCH  17  20
ENDBRANCH   2  16
TORSDOF 5
ENDMDL
MODEL 6
REMARK VINA RESULT:    -7.121      3.626      9.273
REMARK INTER + INTRA:          -9.499
REMARK INTER:                  -8.548
REMARK INTRA:                  -0.951
REMARK UNBOUND:                -0.296
REMARK  Name = 
REMARK  6 active torsions:
REMARK  status: ('A' for Active; 'I' for Inactive)
REMARK    1  A    between atoms: C_1  and  C_2
REMARK    2  A    between atoms: C_2  and  N_3
REMARK    3  A    between atoms: C_2  and  C_16
REMARK    4  A    between atoms: C_4  and  C_6
REMARK    5  A    between atoms: C_19  and  C_20
REMARK    6  A    between atoms: C_20  and  N_21
REMARK                            x       y       z     vdW  Elec       q    Type
REMARK                         _______ _______ _______ _____ _____    ______ ____
ROOT
ATOM      1  C   UNL     1      49.747   8.083  11.752  0.00  0.00    +0.000 C 
ATOM      2  C   UNL     1      48.466   7.670  12.487  0.00  0.00    +0.000 C 
ENDROOT
BRANCH   2   3
ATOM      3  C   UNL     1      48.813   7.245  13.909  0.00  0.00    +0.000 A 
ATOM      4  C   UNL     1      48.107   6.177  14.482  0.00  0.00    +0.000 A 
ATOM      5  C   UNL     1      48.333   5.793  15.806  0.00  0.00    +0.000 A 
ATOM      6  C   UNL     1      49.281   6.451  16.596  0.00  0.00    +0.000 A 
ATOM      7  C   UNL     1      49.992   7.520  16.028  0.00  0.00    +0.000 A 
ATOM      8  C   UNL     1      49.753   7.918  14.702  0.00  0.00    +0.000 A 
BRANCH   6   9
ATOM      9  C   UNL     1      49.447   6.075  18.052  0.00  0.00    +0.000 C 
BRANCH   9  10
ATOM     10  N   UNL     1      48.387   5.332  18.729  0.00  0.00    +0.000 NA
ATOM     11  C   UNL     1      47.290   6.119  19.294  0.00  0.00    +0.000 C 
ATOM     12  C   UNL     1      47.495   6.530  20.760  0.00  0.00    +0.000 C 
ATOM     13  O   UNL     1      47.774   5.394  21.589  0.00  0.00    +0.000 OA
ATOM     14  C   UNL     1      48.929   4.686  21.122  0.00  0.00    +0.000 C 
ATOM     15  C   UNL     1      48.796   4.266  19.648  0.00  0.00    +0.000 C 
ENDBRANCH   9  10
ENDBRANCH   6   9
ENDBRANCH   2   3
BRANCH   2  16
ATOM     16  N   UNL     1      47.717   6.644  11.781  0.00  0.00    +0.000 N 
ATOM     17  C   UNL     1      46.370   6.773  11.538  0.00  0.00    +0.000 C 
ATOM     18  O   UNL     1      45.737   7.783  11.831  0.00  0.00    +0.000 OA
ATOM     19  H   UNL     1      48.078   5.698  11.863  0.00  0.00    +0.000 HD
BRANCH  17  20
ATOM     20  C   UNL     1      45.719   5.655  10.848  0.00  0.00    +0.000 A 
ATOM     21  C   UNL     1      45.807   5.562   9.466  0.00  0.00    +0.000 A 
ATOM     22  S   UNL     1      45.006   4.202   8.821  0.00  0.00    +0.000 S 
ATOM     23  C   UNL     1      44.475   3.717  10.363  0.00  0.00    +0.000 A 
ATOM     24  N   UNL     1      43.684   2.622  10.518  0.00  0.00    +0.000 NA
ATOM     25  C   UNL     1      43.325   2.392  11.736  0.00  0.00    +0.000 A 
ATOM     26  N   UNL     1      43.698   3.148  12.818  0.00  0.00    +0.000 N 
ATOM     27  C   UNL     1      44.530   4.239  12.714  0.00  0.00    +0.000 A 
ATOM     28  O   UNL     1      44.905   4.857  13.705  0.00  0.00    +0.000 OA
ATOM     29  C   UNL     1      44.932   4.561  11.360  0.00  0.00    +0.000 A 
ATOM     30  H   UNL     1      43.396   2.903  13.749  0.00  0.00    +0.000 HD
ENDBRANCH  17  20
ENDBRANCH   2  16
TORSDOF 5
ENDMDL
MODEL 7
REMARK VINA RESULT:    -7.063      3.092      9.713
REMARK INTER + INTRA:          -9.423
REMARK INTER:                  -8.356
REMARK INTRA:                  -1.067
REMARK UNBOUND:                -0.296
REMARK  Name = 
REMARK  6 active torsions:
REMARK  status: ('A' for Active; 'I' for Inactive)
REMARK    1  A    between atoms: C_1  and  C_2
REMARK    2  A    between atoms: C_2  and  N_3
REMARK    3  A    between atoms: C_2  and  C_16
REMARK    4  A    between atoms: C_4  and  C_6
REMARK    5  A    between atoms: C_19  and  C_20
REMARK    6  A    between atoms: C_20  and  N_21
REMARK                            x       y       z     vdW  Elec       q    Type
REMARK                         _______ _______ _______ _____ _____    ______ ____
ROOT
ATOM      1  C   UNL     1      48.998   7.928  11.473  0.00  0.00    +0.000 C 
ATOM      2  C   UNL     1      47.747   7.753  12.341  0.00  0.00    +0.000 C 
ENDROOT
BRANCH   2   3
ATOM      3  C   UNL     1      48.141   7.801  13.813  0.00  0.00    +0.000 A 
ATOM      4  C   UNL     1      48.505   6.606  14.451  0.00  0.00    +0.000 A 
ATOM      5  C   UNL     1      48.805   6.581  15.815  0.00  0.00    +0.000 A 
ATOM      6  C   UNL     1      48.767   7.748  16.584  0.00  0.00    +0.000 A 
ATOM      7  C   UNL     1      48.405   8.948  15.950  0.00  0.00    +0.000 A 
ATOM      8  C   UNL     1      48.087   8.972  14.582  0.00  0.00    +0.000 A 
BRANCH   6   9
ATOM      9  C   UNL     1      49.010   7.683  18.075  0.00  0.00    +0.000 C 
BRANCH   9  10
ATOM     10  N   UNL     1      48.735   6.442  18.795  0.00  0.00    +0.000 NA
ATOM     11  C   UNL     1      47.459   6.366  19.509  0.00  0.00    +0.000 C 
ATOM     12  C   UNL     1      47.525   6.823  20.974  0.00  0.00    +0.000 C 
ATOM     13  O   UNL     1      48.545   6.122  21.697  0.00  0.00    +0.000 OA
ATOM     14  C   UNL     1      49.827   6.297  21.081  0.00  0.00    +0.000 C 
ATOM     15  C   UNL     1      49.822   5.878  19.601  0.00  0.00    +0.000 C 
ENDBRANCH   9  10
ENDBRANCH   6   9
ENDBRANCH   2   3
BRANCH   2  16
ATOM     16  N   UNL     1      47.002   6.547  12.018  0.00  0.00    +0.000 N 
ATOM     17  C   UNL     1      45.628   6.514  12.071  0.00  0.00    +0.000 C 
ATOM     18  O   UNL     1      44.949   7.507  12.316  0.00  0.00    +0.000 OA
ATOM     19  H   UNL     1      47.487   5.670  12.183  0.00  0.00    +0.000 HD
BRANCH  17  20
ATOM     20  C   UNL     1      44.992   5.231  11.758  0.00  0.00    +0.000 A 
ATOM     21  C   UNL     1      44.285   4.561  12.747  0.00  0.00    +0.000 A 
ATOM     22  S   UNL     1      43.599   3.092  12.220  0.00  0.00    +0.000 S 
ATOM     23  C   UNL     1      44.263   3.278  10.665  0.00  0.00    +0.000 A 
ATOM     24  N   UNL     1      44.089   2.325   9.711  0.00  0.00    +0.000 NA
ATOM     25  C   UNL     1      44.678   2.578   8.591  0.00  0.00    +0.000 A 
ATOM     26  N   UNL     1      45.413   3.707   8.330  0.00  0.00    +0.000 N 
ATOM     27  C   UNL     1      45.580   4.716   9.250  0.00  0.00    +0.000 A 
ATOM     28  O   UNL     1      46.184   5.746   8.970  0.00  0.00    +0.000 OA
ATOM     29  C   UNL     1      44.968   4.462  10.538  0.00  0.00    +0.000 A 
ATOM     30  H   UNL     1      45.834   3.852   7.425  0.00  0.00    +0.000 HD
ENDBRANCH  17  20
ENDBRANCH   2  16
TORSDOF 5
ENDMDL
MODEL 8
REMARK VINA RESULT:    -6.950      4.273     10.005
REMARK INTER + INTRA:          -9.277
REMARK INTER:                  -8.431
REMARK INTRA:                  -0.846
REMARK UNBOUND:                -0.296
REMARK  Name = 
REMARK  6 active torsions:
REMARK  status: ('A' for Active; 'I' for Inactive)
REMARK    1  A    between atoms: C_1  and  C_2
REMARK    2  A    between atoms: C_2  and  N_3
REMARK    3  A    between atoms: C_2  and  C_16
REMARK    4  A    between atoms: C_4  and  C_6
REMARK    5  A    between atoms: C_19  and  C_20
REMARK    6  A    between atoms: C_20  and  N_21
REMARK                            x       y       z     vdW  Elec       q    Type
REMARK                         _______ _______ _______ _____ _____    ______ ____
ROOT
ATOM      1  C   UNL     1      46.904   2.970  17.675  0.00  0.00    +0.000 C 
ATOM      2  C   UNL     1      47.728   3.447  16.474  0.00  0.00    +0.000 C 
ENDROOT
BRANCH   2   3
ATOM      3  C   UNL     1      49.039   4.051  16.966  0.00  0.00    +0.000 A 
ATOM      4  C   UNL     1      49.242   5.431  16.814  0.00  0.00    +0.000 A 
ATOM      5  C   UNL     1      50.452   6.024  17.181  0.00  0.00    +0.000 A 
ATOM      6  C   UNL     1      51.492   5.265  17.726  0.00  0.00    +0.000 A 
ATOM      7  C   UNL     1      51.294   3.884  17.882  0.00  0.00    +0.000 A 
ATOM      8  C   UNL     1      50.084   3.283  17.498  0.00  0.00    +0.000 A 
BRANCH   6   9
ATOM      9  C   UNL     1      52.824   5.914  18.034  0.00  0.00    +0.000 C 
BRANCH   9  10
ATOM     10  N   UNL     1      52.924   6.857  19.145  0.00  0.00    +0.000 NA
ATOM     11  C   UNL     1      54.219   7.514  19.335  0.00  0.00    +0.000 C 
ATOM     12  C   UNL     1      55.166   6.779  20.296  0.00  0.00    +0.000 C 
ATOM     13  O   UNL     1      54.541   6.531  21.561  0.00  0.00    +0.000 OA
ATOM     14  C   UNL     1      53.336   5.772  21.402  0.00  0.00    +0.000 C 
ATOM     15  C   UNL     1      52.351   6.444  20.430  0.00  0.00    +0.000 C 
ENDBRANCH   9  10
ENDBRANCH   6   9
ENDBRANCH   2   3
BRANCH   2  16
ATOM     16  N   UNL     1      46.996   4.365  15.617  0.00  0.00    +0.000 N 
ATOM     17  C   UNL     1      46.890   4.156  14.261  0.00  0.00    +0.000 C 
ATOM     18  O   UNL     1      47.337   3.156  13.708  0.00  0.00    +0.000 OA
ATOM     19  H   UNL     1      46.953   5.329  15.936  0.00  0.00    +0.000 HD
BRANCH  17  20
ATOM     20  C   UNL     1      46.157   5.170  13.498  0.00  0.00    +0.000 A 
ATOM     21  C   UNL     1      46.651   6.466  13.437  0.00  0.00    +0.000 A 
ATOM     22  S   UNL     1      45.688   7.519  12.503  0.00  0.00    +0.000 S 
ATOM     23  C   UNL     1      44.554   6.290  12.189  0.00  0.00    +0.000 A 
ATOM     24  N   UNL     1      43.432   6.543  11.464  0.00  0.00    +0.000 NA
ATOM     25  C   UNL     1      42.642   5.530  11.335  0.00  0.00    +0.000 A 
ATOM     26  N   UNL     1      42.879   4.281  11.850  0.00  0.00    +0.000 N 
ATOM     27  C   UNL     1      44.020   3.970  12.554  0.00  0.00    +0.000 A 
ATOM     28  O   UNL     1      44.242   2.829  12.945  0.00  0.00    +0.000 OA
ATOM     29  C   UNL     1      44.923   5.084  12.758  0.00  0.00    +0.000 A 
ATOM     30  H   UNL     1      42.228   3.526  11.698  0.00  0.00    +0.000 HD
ENDBRANCH  17  20
ENDBRANCH   2  16
TORSDOF 5
ENDMDL
MODEL 9
REMARK VINA RESULT:    -6.648      4.352     10.326
REMARK INTER + INTRA:          -8.887
REMARK INTER:                  -8.266
REMARK INTRA:                  -0.621
REMARK UNBOUND:                -0.296
REMARK  Name = 
REMARK  6 active torsions:
REMARK  status: ('A' for Active; 'I' for Inactive)
REMARK    1  A    between atoms: C_1  and  C_2
REMARK    2  A    between atoms: C_2  and  N_3
REMARK    3  A    between atoms: C_2  and  C_16
REMARK    4  A    between atoms: C_4  and  C_6
REMARK    5  A    between atoms: C_19  and  C_20
REMARK    6  A    between atoms: C_20  and  N_21
REMARK                            x       y       z     vdW  Elec       q    Type
REMARK                         _______ _______ _______ _____ _____    ______ ____
ROOT
ATOM      1  C   UNL     1      47.361   3.262  17.120  0.00  0.00    +0.000 C 
ATOM      2  C   UNL     1      48.146   4.322  16.337  0.00  0.00    +0.000 C 
ENDROOT
BRANCH   2   3
ATOM      3  C   UNL     1      48.896   5.220  17.314  0.00  0.00    +0.000 A 
ATOM      4  C   UNL     1      48.924   4.863  18.671  0.00  0.00    +0.000 A 
ATOM      5  C   UNL     1      49.533   5.686  19.619  0.00  0.00    +0.000 A 
ATOM      6  C   UNL     1      50.149   6.885  19.245  0.00  0.00    +0.000 A 
ATOM      7  C   UNL     1      50.126   7.248  17.889  0.00  0.00    +0.000 A 
ATOM      8  C   UNL     1      49.497   6.429  16.936  0.00  0.00    +0.000 A 
BRANCH   6   9
ATOM      9  C   UNL     1      50.726   7.803  20.300  0.00  0.00    +0.000 C 
BRANCH   9  10
ATOM     10  N   UNL     1      49.860   8.780  20.956  0.00  0.00    +0.000 NA
ATOM     11  C   UNL     1      49.358   8.425  22.285  0.00  0.00    +0.000 C 
ATOM     12  C   UNL     1      48.001   7.708  22.278  0.00  0.00    +0.000 C 
ATOM     13  O   UNL     1      47.015   8.455  21.554  0.00  0.00    +0.000 OA
ATOM     14  C   UNL     1      47.437   8.696  20.206  0.00  0.00    +0.000 C 
ATOM     15  C   UNL     1      48.806   9.395  20.143  0.00  0.00    +0.000 C 
ENDBRANCH   9  10
ENDBRANCH   6   9
ENDBRANCH   2   3
BRANCH   2  16
ATOM     16  N   UNL     1      47.307   5.087  15.430  0.00  0.00    +0.000 N 
ATOM     17  C   UNL     1      47.000   4.627  14.171  0.00  0.00    +0.000 C 
ATOM     18  O   UNL     1      47.347   3.521  13.766  0.00  0.00    +0.000 OA
ATOM     19  H   UNL     1      47.324   6.095  15.557  0.00  0.00    +0.000 HD
BRANCH  17  20
ATOM     20  C   UNL     1      46.176   5.505  13.336  0.00  0.00    +0.000 A 
ATOM     21  C   UNL     1      46.613   6.795  13.064  0.00  0.00    +0.000 A 
ATOM     22  S   UNL     1      45.546   7.681  12.073  0.00  0.00    +0.000 S 
ATOM     23  C   UNL     1      44.443   6.388  12.012  0.00  0.00    +0.000 A 
ATOM     24  N   UNL     1      43.263   6.506  11.346  0.00  0.00    +0.000 NA
ATOM     25  C   UNL     1      42.507   5.463  11.413  0.00  0.00    +0.000 A 
ATOM     26  N   UNL     1      42.828   4.303  12.072  0.00  0.00    +0.000 N 
ATOM     27  C   UNL     1      44.027   4.125  12.723  0.00  0.00    +0.000 A 
ATOM     28  O   UNL     1      44.320   3.055  13.246  0.00  0.00    +0.000 OA
ATOM     29  C   UNL     1      44.897   5.283  12.708  0.00  0.00    +0.000 A 
ATOM     30  H   UNL     1      42.198   3.516  12.071  0.00  0.00    +0.000 HD
ENDBRANCH  17  20
ENDBRANCH   2  16
TORSDOF 5
ENDMDL
