MODEL 1
REMARK VINA RESULT:    -8.127      0.000      0.000
REMARK INTER + INTRA:         -13.081
REMARK INTER:                 -11.690
REMARK INTRA:                  -1.391
REMARK UNBOUND:                -1.391
REMARK  Name = 
REMARK  9 active torsions:
REMARK  status: ('A' for Active; 'I' for Inactive)
REMARK    1  A    between atoms: C_1  and  N_2
REMARK    2  A    between atoms: C_4  and  C_5
REMARK    3  A    between atoms: N_7  and  C_8
REMARK    4  A    between atoms: C_8  and  C_9
REMARK    5  A    between atoms: C_12  and  C_13
REMARK    6  A    between atoms: C_13  and  C_14
REMARK    7  A    between atoms: C_14  and  O_15
REMARK    8  A    between atoms: O_15  and  C_16
REMARK    9  A    between atoms: C_25  and  O_26
REMARK                            x       y       z     vdW  Elec       q    Type
REMARK                         _______ _______ _______ _____ _____    ______ ____
ROOT
ATOM      1  C   UNL     1      48.677   6.902  14.576  0.00  0.00    +0.000 C 
ATOM      2  O   UNL     1      49.473   6.878  13.640  0.00  0.00    +0.000 OA
ATOM      3  N   UNL     1      47.424   7.449  14.472  0.00  0.00    +0.000 N 
ATOM      4  H   UNL     1      46.796   7.450  15.262  0.00  0.00    +0.000 HD
ENDROOT
BRANCH   1   8
ATOM      5  C   UNL     1      50.896   6.052  18.982  0.00  0.00    +0.000 C 
ATOM      6  N   UNL     1      50.008   5.945  17.848  0.00  0.00    +0.000 N 
ATOM      7  C   UNL     1      50.032   6.752  16.738  0.00  0.00    +0.000 A 
ATOM      8  C   UNL     1      49.027   6.338  15.874  0.00  0.00    +0.000 A 
ATOM      9  C   UNL     1      48.377   5.224  16.508  0.00  0.00    +0.000 A 
ATOM     10  C   UNL     1      47.322   4.350  16.221  0.00  0.00    +0.000 A 
ATOM     11  N   UNL     1      46.979   3.388  17.093  0.00  0.00    +0.000 NA
ATOM     12  C   UNL     1      47.682   3.303  18.235  0.00  0.00    +0.000 A 
ATOM     13  N   UNL     1      48.709   4.071  18.634  0.00  0.00    +0.000 NA
ATOM     14  C   UNL     1      49.011   5.015  17.724  0.00  0.00    +0.000 A 
BRANCH  10  15
ATOM     15  O   UNL     1      46.574   4.392  15.072  0.00  0.00    +0.000 OA
ATOM     16  H   UNL     1      46.976   3.774  14.429  0.00  0.00    +0.000 HD
ENDBRANCH  10  15
ENDBRANCH   1   8
BRANCH   3  17
ATOM     17  C   UNL     1      46.978   8.034  13.234  0.00  0.00    +0.000 C 
BRANCH  17  18
ATOM     18  C   UNL     1      46.160   7.060  12.434  0.00  0.00    +0.000 A 
ATOM     19  C   UNL     1      46.613   6.638  11.181  0.00  0.00    +0.000 A 
ATOM     20  C   UNL     1      45.867   5.731  10.428  0.00  0.00    +0.000 A 
ATOM     21  C   UNL     1      44.644   5.232  10.900  0.00  0.00    +0.000 A 
ATOM     22  C   UNL     1      44.188   5.671  12.150  0.00  0.00    +0.000 A 
ATOM     23  C   UNL     1      44.934   6.580  12.907  0.00  0.00    +0.000 A 
BRANCH  21  24
ATOM     24  C   UNL     1      43.797   4.240  10.131  0.00  0.00    +0.000 C 
BRANCH  24  25
ATOM     25  C   UNL     1      44.352   2.818  10.107  0.00  0.00    +0.000 C 
BRANCH  25  26
ATOM     26  O   UNL     1      44.262   2.270   8.793  0.00  0.00    +0.000 OA
BRANCH  26  27
ATOM     27  C   UNL     1      45.423   2.375   8.068  0.00  0.00    +0.000 A 
ATOM     28  C   UNL     1      45.831   3.521   7.375  0.00  0.00    +0.000 A 
ATOM     29  C   UNL     1      47.037   3.528   6.675  0.00  0.00    +0.000 A 
ATOM     30  C   UNL     1      47.846   2.396   6.671  0.00  0.00    +0.000 A 
ATOM     31  C   UNL     1      47.451   1.256   7.370  0.00  0.00    +0.000 A 
ATOM     32  C   UNL     1      46.243   1.249   8.072  0.00  0.00    +0.000 A 
ENDBRANCH  26  27
ENDBRANCH  25  26
ENDBRANCH  24  25
ENDBRANCH  21  24
ENDBRANCH  17  18
ENDBRANCH   3  17
TORSDOF 8
ENDMDL
MODEL 2
REMARK VINA RESULT:    -7.716      1.568      1.968
REMARK INTER + INTRA:         -12.490
REMARK INTER:                 -11.313
REMARK INTRA:                  -1.177
REMARK UNBOUND:                -1.391
REMARK  Name = 
REMARK  9 active torsions:
REMARK  status: ('A' for Active; 'I' for Inactive)
REMARK    1  A    between atoms: C_1  and  N_2
REMARK    2  A    between atoms: C_4  and  C_5
REMARK    3  A    between atoms: N_7  and  C_8
REMARK    4  A    between atoms: C_8  and  C_9
REMARK    5  A    between atoms: C_12  and  C_13
REMARK    6  A    between atoms: C_13  and  C_14
REMARK    7  A    between atoms: C_14  and  O_15
REMARK    8  A    between atoms: O_15  and  C_16
REMARK    9  A    between atoms: C_25  and  O_26
REMARK                            x       y       z     vdW  Elec       q    Type
REMARK                         _______ _______ _______ _____ _____    ______ ____
ROOT
ATOM      1  C   UNL     1      48.907   7.032  15.261  0.00  0.00    +0.000 C 
ATOM      2  O   UNL     1      50.013   6.871  14.750  0.00  0.00    +0.000 OA
ATOM      3  N   UNL     1      47.759   7.164  14.522  0.00  0.00    +0.000 N 
ATOM      4  H   UNL     1      46.867   7.293  14.976  0.00  0.00    +0.000 HD
ENDROOT
BRANCH   1   8
ATOM      5  C   UNL     1      48.344   8.699  19.946  0.00  0.00    +0.000 C 
ATOM      6  N   UNL     1      48.497   7.820  18.810  0.00  0.00    +0.000 N 
ATOM      7  C   UNL     1      48.628   8.222  17.505  0.00  0.00    +0.000 A 
ATOM      8  C   UNL     1      48.750   7.091  16.708  0.00  0.00    +0.000 A 
ATOM      9  C   UNL     1      48.692   5.961  17.594  0.00  0.00    +0.000 A 
ATOM     10  C   UNL     1      48.750   4.566  17.486  0.00  0.00    +0.000 A 
ATOM     11  N   UNL     1      48.653   3.795  18.582  0.00  0.00    +0.000 NA
ATOM     12  C   UNL     1      48.501   4.411  19.766  0.00  0.00    +0.000 A 
ATOM     13  N   UNL     1      48.431   5.729  20.010  0.00  0.00    +0.000 NA
ATOM     14  C   UNL     1      48.534   6.454  18.881  0.00  0.00    +0.000 A 
BRANCH  10  15
ATOM     15  O   UNL     1      48.904   3.888  16.304  0.00  0.00    +0.000 OA
ATOM     16  H   UNL     1      49.845   3.631  16.226  0.00  0.00    +0.000 HD
ENDBRANCH  10  15
ENDBRANCH   1   8
BRANCH   3  17
ATOM     17  C   UNL     1      47.803   7.120  13.083  0.00  0.00    +0.000 C 
BRANCH  17  18
ATOM     18  C   UNL     1      46.819   6.123  12.537  0.00  0.00    +0.000 A 
ATOM     19  C   UNL     1      46.626   4.906  13.197  0.00  0.00    +0.000 A 
ATOM     20  C   UNL     1      45.714   3.972  12.706  0.00  0.00    +0.000 A 
ATOM     21  C   UNL     1      44.981   4.223  11.536  0.00  0.00    +0.000 A 
ATOM     22  C   UNL     1      45.190   5.439  10.871  0.00  0.00    +0.000 A 
ATOM     23  C   UNL     1      46.104   6.376  11.362  0.00  0.00    +0.000 A 
BRANCH  21  24
ATOM     24  C   UNL     1      43.971   3.251  10.962  0.00  0.00    +0.000 C 
BRANCH  24  25
ATOM     25  C   UNL     1      44.255   2.817   9.527  0.00  0.00    +0.000 C 
BRANCH  25  26
ATOM     26  O   UNL     1      45.442   2.027   9.471  0.00  0.00    +0.000 OA
BRANCH  26  27
ATOM     27  C   UNL     1      46.074   2.064   8.253  0.00  0.00    +0.000 A 
ATOM     28  C   UNL     1      46.752   0.987   7.670  0.00  0.00    +0.000 A 
ATOM     29  C   UNL     1      47.354   1.126   6.420  0.00  0.00    +0.000 A 
ATOM     30  C   UNL     1      47.275   2.338   5.742  0.00  0.00    +0.000 A 
ATOM     31  C   UNL     1      46.591   3.411   6.310  0.00  0.00    +0.000 A 
ATOM     32  C   UNL     1      45.986   3.272   7.562  0.00  0.00    +0.000 A 
ENDBRANCH  26  27
ENDBRANCH  25  26
ENDBRANCH  24  25
ENDBRANCH  21  24
ENDBRANCH  17  18
ENDBRANCH   3  17
TORSDOF 8
ENDMDL
MODEL 3
REMARK VINA RESULT:    -7.469      2.175      2.643
REMARK INTER + INTRA:         -12.134
REMARK INTER:                 -11.066
REMARK INTRA:                  -1.068
REMARK UNBOUND:                -1.391
REMARK  Name = 
REMARK  9 active torsions:
REMARK  status: ('A' for Active; 'I' for Inactive)
REMARK    1  A    between atoms: C_1  and  N_2
REMARK    2  A    between atoms: C_4  and  C_5
REMARK    3  A    between atoms: N_7  and  C_8
REMARK    4  A    between atoms: C_8  and  C_9
REMARK    5  A    between atoms: C_12  and  C_13
REMARK    6  A    between atoms: C_13  and  C_14
REMARK    7  A    between atoms: C_14  and  O_15
REMARK    8  A    between atoms: O_15  and  C_16
REMARK    9  A    between atoms: C_25  and  O_26
REMARK                            x       y       z     vdW  Elec       q    Type
REMARK                         _______ _______ _______ _____ _____    ______ ____
ROOT
ATOM      1  C   UNL     1      49.148   6.501  15.957  0.00  0.00    +0.000 C 
ATOM      2  O   UNL     1      50.296   6.534  15.522  0.00  0.00    +0.000 OA
ATOM      3  N   UNL     1      48.044   6.601  15.148  0.00  0.00    +0.000 N 
ATOM      4  H   UNL     1      47.115   6.569  15.540  0.00  0.00    +0.000 HD
ENDROOT
BRANCH   1   8
ATOM      5  C   UNL     1      48.876   4.654  20.600  0.00  0.00    +0.000 C 
ATOM      6  N   UNL     1      48.760   5.540  19.466  0.00  0.00    +0.000 N 
ATOM      7  C   UNL     1      49.164   5.252  18.186  0.00  0.00    +0.000 A 
ATOM      8  C   UNL     1      48.888   6.351  17.383  0.00  0.00    +0.000 A 
ATOM      9  C   UNL     1      48.285   7.339  18.236  0.00  0.00    +0.000 A 
ATOM     10  C   UNL     1      47.774   8.635  18.105  0.00  0.00    +0.000 A 
ATOM     11  N   UNL     1      47.271   9.279  19.171  0.00  0.00    +0.000 NA
ATOM     12  C   UNL     1      47.279   8.632  20.350  0.00  0.00    +0.000 A 
ATOM     13  N   UNL     1      47.735   7.398  20.613  0.00  0.00    +0.000 NA
ATOM     14  C   UNL     1      48.226   6.799  19.512  0.00  0.00    +0.000 A 
BRANCH  10  15
ATOM     15  O   UNL     1      47.741   9.339  16.928  0.00  0.00    +0.000 OA
ATOM     16  H   UNL     1      46.922   9.873  16.920  0.00  0.00    +0.000 HD
ENDBRANCH  10  15
ENDBRANCH   1   8
BRANCH   3  17
ATOM     17  C   UNL     1      48.188   6.753  13.724  0.00  0.00    +0.000 C 
BRANCH  17  18
ATOM     18  C   UNL     1      47.071   6.070  12.986  0.00  0.00    +0.000 A 
ATOM     19  C   UNL     1      46.472   6.702  11.894  0.00  0.00    +0.000 A 
ATOM     20  C   UNL     1      45.437   6.079  11.196  0.00  0.00    +0.000 A 
ATOM     21  C   UNL     1      44.965   4.815  11.579  0.00  0.00    +0.000 A 
ATOM     22  C   UNL     1      45.560   4.192  12.684  0.00  0.00    +0.000 A 
ATOM     23  C   UNL     1      46.597   4.815  13.385  0.00  0.00    +0.000 A 
BRANCH  21  24
ATOM     24  C   UNL     1      43.852   4.087  10.854  0.00  0.00    +0.000 C 
BRANCH  24  25
ATOM     25  C   UNL     1      44.327   3.118   9.774  0.00  0.00    +0.000 C 
BRANCH  25  26
ATOM     26  O   UNL     1      44.999   3.823   8.732  0.00  0.00    +0.000 OA
BRANCH  26  27
ATOM     27  C   UNL     1      45.820   3.031   7.969  0.00  0.00    +0.000 A 
ATOM     28  C   UNL     1      46.519   3.463   6.835  0.00  0.00    +0.000 A 
ATOM     29  C   UNL     1      47.338   2.579   6.133  0.00  0.00    +0.000 A 
ATOM     30  C   UNL     1      47.470   1.262   6.564  0.00  0.00    +0.000 A 
ATOM     31  C   UNL     1      46.786   0.830   7.699  0.00  0.00    +0.000 A 
ATOM     32  C   UNL     1      45.967   1.715   8.403  0.00  0.00    +0.000 A 
ENDBRANCH  26  27
ENDBRANCH  25  26
ENDBRANCH  24  25
ENDBRANCH  21  24
ENDBRANCH  17  18
ENDBRANCH   3  17
TORSDOF 8
ENDMDL
MODEL 4
REMARK VINA RESULT:    -7.350      2.301      3.662
REMARK INTER + INTRA:         -11.964
REMARK INTER:                 -10.980
REMARK INTRA:                  -0.983
REMARK UNBOUND:                -1.391
REMARK  Name = 
REMARK  9 active torsions:
REMARK  status: ('A' for Active; 'I' for Inactive)
REMARK    1  A    between atoms: C_1  and  N_2
REMARK    2  A    between atoms: C_4  and  C_5
REMARK    3  A    between atoms: N_7  and  C_8
REMARK    4  A    between atoms: C_8  and  C_9
REMARK    5  A    between atoms: C_12  and  C_13
REMARK    6  A    between atoms: C_13  and  C_14
REMARK    7  A    between atoms: C_14  and  O_15
REMARK    8  A    between atoms: O_15  and  C_16
REMARK    9  A    between atoms: C_25  and  O_26
REMARK                            x       y       z     vdW  Elec       q    Type
REMARK                         _______ _______ _______ _____ _____    ______ ____
ROOT
ATOM      1  C   UNL     1      46.402   4.366  13.785  0.00  0.00    +0.000 C 
ATOM      2  O   UNL     1      46.578   3.152  13.715  0.00  0.00    +0.000 OA
ATOM      3  N   UNL     1      45.305   4.990  13.248  0.00  0.00    +0.000 N 
ATOM      4  H   UNL     1      45.192   5.990  13.325  0.00  0.00    +0.000 HD
ENDROOT
BRANCH   1   8
ATOM      5  C   UNL     1      49.773   7.941  14.738  0.00  0.00    +0.000 C 
ATOM      6  N   UNL     1      48.875   6.822  14.900  0.00  0.00    +0.000 N 
ATOM      7  C   UNL     1      48.086   6.284  13.915  0.00  0.00    +0.000 A 
ATOM      8  C   UNL     1      47.366   5.227  14.457  0.00  0.00    +0.000 A 
ATOM      9  C   UNL     1      47.756   5.135  15.838  0.00  0.00    +0.000 A 
ATOM     10  C   UNL     1      47.446   4.333  16.942  0.00  0.00    +0.000 A 
ATOM     11  N   UNL     1      48.033   4.554  18.130  0.00  0.00    +0.000 NA
ATOM     12  C   UNL     1      48.916   5.564  18.210  0.00  0.00    +0.000 A 
ATOM     13  N   UNL     1      49.303   6.404  17.237  0.00  0.00    +0.000 NA
ATOM     14  C   UNL     1      48.687   6.137  16.071  0.00  0.00    +0.000 A 
BRANCH  10  15
ATOM     15  O   UNL     1      46.554   3.291  16.915  0.00  0.00    +0.000 OA
ATOM     16  H   UNL     1      46.239   3.142  17.829  0.00  0.00    +0.000 HD
ENDBRANCH  10  15
ENDBRANCH   1   8
BRANCH   3  17
ATOM     17  C   UNL     1      44.291   4.232  12.562  0.00  0.00    +0.000 C 
BRANCH  17  18
ATOM     18  C   UNL     1      44.662   4.002  11.123  0.00  0.00    +0.000 A 
ATOM     19  C   UNL     1      45.230   5.038  10.378  0.00  0.00    +0.000 A 
ATOM     20  C   UNL     1      45.584   4.840   9.044  0.00  0.00    +0.000 A 
ATOM     21  C   UNL     1      45.367   3.605   8.415  0.00  0.00    +0.000 A 
ATOM     22  C   UNL     1      44.783   2.573   9.162  0.00  0.00    +0.000 A 
ATOM     23  C   UNL     1      44.428   2.770  10.500  0.00  0.00    +0.000 A 
BRANCH  21  24
ATOM     24  C   UNL     1      45.739   3.329   6.973  0.00  0.00    +0.000 C 
BRANCH  24  25
ATOM     25  C   UNL     1      47.005   2.496   6.793  0.00  0.00    +0.000 C 
BRANCH  25  26
ATOM     26  O   UNL     1      47.434   2.527   5.433  0.00  0.00    +0.000 OA
BRANCH  26  27
ATOM     27  C   UNL     1      47.048   1.429   4.706  0.00  0.00    +0.000 A 
ATOM     28  C   UNL     1      47.295   0.100   5.072  0.00  0.00    +0.000 A 
ATOM     29  C   UNL     1      46.851  -0.947   4.266  0.00  0.00    +0.000 A 
ATOM     30  C   UNL     1      46.149  -0.675   3.096  0.00  0.00    +0.000 A 
ATOM     31  C   UNL     1      45.888   0.645   2.732  0.00  0.00    +0.000 A 
ATOM     32  C   UNL     1      46.332   1.695   3.540  0.00  0.00    +0.000 A 
ENDBRANCH  26  27
ENDBRANCH  25  26
ENDBRANCH  24  25
ENDBRANCH  21  24
ENDBRANCH  17  18
ENDBRANCH   3  17
TORSDOF 8
ENDMDL
MODEL 5
REMARK VINA RESULT:    -7.062      3.014      8.059
REMARK INTER + INTRA:         -11.549
REMARK INTER:                  -9.845
REMARK INTRA:                  -1.704
REMARK UNBOUND:                -1.391
REMARK  Name = 
REMARK  9 active torsions:
REMARK  status: ('A' for Active; 'I' for Inactive)
REMARK    1  A    between atoms: C_1  and  N_2
REMARK    2  A    between atoms: C_4  and  C_5
REMARK    3  A    between atoms: N_7  and  C_8
REMARK    4  A    between atoms: C_8  and  C_9
REMARK    5  A    between atoms: C_12  and  C_13
REMARK    6  A    between atoms: C_13  and  C_14
REMARK    7  A    between atoms: C_14  and  O_15
REMARK    8  A    between atoms: O_15  and  C_16
REMARK    9  A    between atoms: C_25  and  O_26
REMARK                            x       y       z     vdW  Elec       q    Type
REMARK                         _______ _______ _______ _____ _____    ______ ____
ROOT
ATOM      1  C   UNL     1      45.987   7.115  11.383  0.00  0.00    +0.000 C 
ATOM      2  O   UNL     1      45.191   8.015  11.640  0.00  0.00    +0.000 OA
ATOM      3  N   UNL     1      47.326   7.203  11.669  0.00  0.00    +0.000 N 
ATOM      4  H   UNL     1      47.951   6.442  11.445  0.00  0.00    +0.000 HD
ENDROOT
BRANCH   1   8
ATOM      5  C   UNL     1      45.228   3.451   8.059  0.00  0.00    +0.000 C 
ATOM      6  N   UNL     1      45.197   4.231   9.274  0.00  0.00    +0.000 N 
ATOM      7  C   UNL     1      45.798   5.452   9.452  0.00  0.00    +0.000 A 
ATOM      8  C   UNL     1      45.545   5.880  10.748  0.00  0.00    +0.000 A 
ATOM      9  C   UNL     1      44.747   4.856  11.367  0.00  0.00    +0.000 A 
ATOM     10  C   UNL     1      44.151   4.631  12.613  0.00  0.00    +0.000 A 
ATOM     11  N   UNL     1      43.450   3.507  12.839  0.00  0.00    +0.000 NA
ATOM     12  C   UNL     1      43.349   2.624  11.831  0.00  0.00    +0.000 A 
ATOM     13  N   UNL     1      43.867   2.714  10.596  0.00  0.00    +0.000 NA
ATOM     14  C   UNL     1      44.556   3.857  10.424  0.00  0.00    +0.000 A 
BRANCH  10  15
ATOM     15  O   UNL     1      44.222   5.499  13.673  0.00  0.00    +0.000 OA
ATOM     16  H   UNL     1      44.378   6.396  13.316  0.00  0.00    +0.000 HD
ENDBRANCH  10  15
ENDBRANCH   1   8
BRANCH   3  17
ATOM     17  C   UNL     1      47.867   8.381  12.296  0.00  0.00    +0.000 C 
BRANCH  17  18
ATOM     18  C   UNL     1      48.197   8.128  13.740  0.00  0.00    +0.000 A 
ATOM     19  C   UNL     1      48.503   6.833  14.166  0.00  0.00    +0.000 A 
ATOM     20  C   UNL     1      48.816   6.582  15.502  0.00  0.00    +0.000 A 
ATOM     21  C   UNL     1      48.819   7.616  16.450  0.00  0.00    +0.000 A 
ATOM     22  C   UNL     1      48.497   8.910  16.020  0.00  0.00    +0.000 A 
ATOM     23  C   UNL     1      48.183   9.163  14.681  0.00  0.00    +0.000 A 
BRANCH  21  24
ATOM     24  C   UNL     1      49.159   7.405  17.911  0.00  0.00    +0.000 C 
BRANCH  24  25
ATOM     25  C   UNL     1      48.055   6.741  18.729  0.00  0.00    +0.000 C 
BRANCH  25  26
ATOM     26  O   UNL     1      48.545   5.558  19.358  0.00  0.00    +0.000 OA
BRANCH  26  27
ATOM     27  C   UNL     1      48.725   4.507  18.495  0.00  0.00    +0.000 A 
ATOM     28  C   UNL     1      49.939   3.839  18.291  0.00  0.00    +0.000 A 
ATOM     29  C   UNL     1      50.015   2.773  17.396  0.00  0.00    +0.000 A 
ATOM     30  C   UNL     1      48.878   2.362  16.706  0.00  0.00    +0.000 A 
ATOM     31  C   UNL     1      47.664   3.015  16.913  0.00  0.00    +0.000 A 
ATOM     32  C   UNL     1      47.587   4.082  17.811  0.00  0.00    +0.000 A 
ENDBRANCH  26  27
ENDBRANCH  25  26
ENDBRANCH  24  25
ENDBRANCH  21  24
ENDBRANCH  17  18
ENDBRANCH   3  17
TORSDOF 8
ENDMDL
MODEL 6
REMARK VINA RESULT:    -6.989      1.847      2.455
REMARK INTER + INTRA:         -11.444
REMARK INTER:                 -10.255
REMARK INTRA:                  -1.190
REMARK UNBOUND:                -1.391
REMARK  Name = 
REMARK  9 active torsions:
REMARK  status: ('A' for Active; 'I' for Inactive)
REMARK    1  A    between atoms: C_1  and  N_2
REMARK    2  A    between atoms: C_4  and  C_5
REMARK    3  A    between atoms: N_7  and  C_8
REMARK    4  A    between atoms: C_8  and  C_9
REMARK    5  A    between atoms: C_12  and  C_13
REMARK    6  A    between atoms: C_13  and  C_14
REMARK    7  A    between atoms: C_14  and  O_15
REMARK    8  A    between atoms: O_15  and  C_16
REMARK    9  A    between atoms: C_25  and  O_26
REMARK                            x       y       z     vdW  Elec       q    Type
REMARK                         _______ _______ _______ _____ _____    ______ ____
ROOT
ATOM      1  C   UNL     1      48.166   9.059  14.551  0.00  0.00    +0.000 C 
ATOM      2  O   UNL     1      48.797   9.811  13.811  0.00  0.00    +0.000 OA
ATOM      3  N   UNL     1      47.163   8.241  14.099  0.00  0.00    +0.000 N 
ATOM      4  H   UNL     1      46.666   7.635  14.736  0.00  0.00    +0.000 HD
ENDROOT
BRANCH   1   8
ATOM      5  C   UNL     1      48.894  10.297  19.346  0.00  0.00    +0.000 C 
ATOM      6  N   UNL     1      48.783   9.530  18.127  0.00  0.00    +0.000 N 
ATOM      7  C   UNL     1      48.465  10.039  16.893  0.00  0.00    +0.000 A 
ATOM      8  C   UNL     1      48.455   8.994  15.978  0.00  0.00    +0.000 A 
ATOM      9  C   UNL     1      48.791   7.805  16.714  0.00  0.00    +0.000 A 
ATOM     10  C   UNL     1      48.959   6.442  16.442  0.00  0.00    +0.000 A 
ATOM     11  N   UNL     1      49.285   5.588  17.427  0.00  0.00    +0.000 NA
ATOM     12  C   UNL     1      49.439   6.092  18.663  0.00  0.00    +0.000 A 
ATOM     13  N   UNL     1      49.309   7.368  19.059  0.00  0.00    +0.000 NA
ATOM     14  C   UNL     1      48.984   8.179  18.035  0.00  0.00    +0.000 A 
BRANCH  10  15
ATOM     15  O   UNL     1      48.814   5.877  15.201  0.00  0.00    +0.000 OA
ATOM     16  H   UNL     1      49.630   6.057  14.692  0.00  0.00    +0.000 HD
ENDBRANCH  10  15
ENDBRANCH   1   8
BRANCH   3  17
ATOM     17  C   UNL     1      46.797   8.228  12.706  0.00  0.00    +0.000 C 
BRANCH  17  18
ATOM     18  C   UNL     1      45.933   7.042  12.380  0.00  0.00    +0.000 A 
ATOM     19  C   UNL     1      44.703   7.233  11.746  0.00  0.00    +0.000 A 
ATOM     20  C   UNL     1      43.892   6.142  11.432  0.00  0.00    +0.000 A 
ATOM     21  C   UNL     1      44.283   4.834  11.755  0.00  0.00    +0.000 A 
ATOM     22  C   UNL     1      45.511   4.650  12.404  0.00  0.00    +0.000 A 
ATOM     23  C   UNL     1      46.325   5.742  12.720  0.00  0.00    +0.000 A 
BRANCH  21  24
ATOM     24  C   UNL     1      43.449   3.612  11.431  0.00  0.00    +0.000 C 
BRANCH  24  25
ATOM     25  C   UNL     1      44.040   2.709  10.352  0.00  0.00    +0.000 C 
BRANCH  25  26
ATOM     26  O   UNL     1      44.418   3.478   9.210  0.00  0.00    +0.000 OA
BRANCH  26  27
ATOM     27  C   UNL     1      45.419   2.906   8.465  0.00  0.00    +0.000 A 
ATOM     28  C   UNL     1      45.791   1.558   8.527  0.00  0.00    +0.000 A 
ATOM     29  C   UNL     1      46.818   1.072   7.718  0.00  0.00    +0.000 A 
ATOM     30  C   UNL     1      47.472   1.928   6.837  0.00  0.00    +0.000 A 
ATOM     31  C   UNL     1      47.098   3.269   6.762  0.00  0.00    +0.000 A 
ATOM     32  C   UNL     1      46.069   3.755   7.571  0.00  0.00    +0.000 A 
ENDBRANCH  26  27
ENDBRANCH  25  26
ENDBRANCH  24  25
ENDBRANCH  21  24
ENDBRANCH  17  18
ENDBRANCH   3  17
TORSDOF 8
ENDMDL
MODEL 7
REMARK VINA RESULT:    -6.987      1.843      2.114
REMARK INTER + INTRA:         -11.441
REMARK INTER:                 -10.204
REMARK INTRA:                  -1.237
REMARK UNBOUND:                -1.391
REMARK  Name = 
REMARK  9 active torsions:
REMARK  status: ('A' for Active; 'I' for Inactive)
REMARK    1  A    between atoms: C_1  and  N_2
REMARK    2  A    between atoms: C_4  and  C_5
REMARK    3  A    between atoms: N_7  and  C_8
REMARK    4  A    between atoms: C_8  and  C_9
REMARK    5  A    between atoms: C_12  and  C_13
REMARK    6  A    between atoms: C_13  and  C_14
REMARK    7  A    between atoms: C_14  and  O_15
REMARK    8  A    between atoms: O_15  and  C_16
REMARK    9  A    between atoms: C_25  and  O_26
REMARK                            x       y       z     vdW  Elec       q    Type
REMARK                         _______ _______ _______ _____ _____    ______ ____
ROOT
ATOM      1  C   UNL     1      49.351   7.099  16.029  0.00  0.00    +0.000 C 
ATOM      2  O   UNL     1      48.931   8.232  16.249  0.00  0.00    +0.000 OA
ATOM      3  N   UNL     1      49.322   6.524  14.785  0.00  0.00    +0.000 N 
ATOM      4  H   UNL     1      49.677   5.590  14.641  0.00  0.00    +0.000 HD
ENDROOT
BRANCH   1   8
ATOM      5  C   UNL     1      52.412   4.209  18.737  0.00  0.00    +0.000 C 
ATOM      6  N   UNL     1      51.272   4.994  18.325  0.00  0.00    +0.000 N 
ATOM      7  C   UNL     1      51.144   5.642  17.122  0.00  0.00    +0.000 A 
ATOM      8  C   UNL     1      49.914   6.286  17.100  0.00  0.00    +0.000 A 
ATOM      9  C   UNL     1      49.280   5.998  18.358  0.00  0.00    +0.000 A 
ATOM     10  C   UNL     1      48.073   6.306  18.995  0.00  0.00    +0.000 A 
ATOM     11  N   UNL     1      47.816   5.841  20.229  0.00  0.00    +0.000 NA
ATOM     12  C   UNL     1      48.755   5.078  20.814  0.00  0.00    +0.000 A 
ATOM     13  N   UNL     1      49.947   4.708  20.320  0.00  0.00    +0.000 NA
ATOM     14  C   UNL     1      50.152   5.199  19.084  0.00  0.00    +0.000 A 
BRANCH  10  15
ATOM     15  O   UNL     1      47.082   7.079  18.443  0.00  0.00    +0.000 OA
ATOM     16  H   UNL     1      47.019   6.852  17.494  0.00  0.00    +0.000 HD
ENDBRANCH  10  15
ENDBRANCH   1   8
BRANCH   3  17
ATOM     17  C   UNL     1      48.786   7.240  13.656  0.00  0.00    +0.000 C 
BRANCH  17  18
ATOM     18  C   UNL     1      47.558   6.564  13.115  0.00  0.00    +0.000 A 
ATOM     19  C   UNL     1      46.875   7.128  12.034  0.00  0.00    +0.000 A 
ATOM     20  C   UNL     1      45.736   6.511  11.517  0.00  0.00    +0.000 A 
ATOM     21  C   UNL     1      45.242   5.321  12.073  0.00  0.00    +0.000 A 
ATOM     22  C   UNL     1      45.923   4.769  13.166  0.00  0.00    +0.000 A 
ATOM     23  C   UNL     1      47.064   5.386  13.686  0.00  0.00    +0.000 A 
BRANCH  21  24
ATOM     24  C   UNL     1      44.017   4.602  11.548  0.00  0.00    +0.000 C 
BRANCH  24  25
ATOM     25  C   UNL     1      44.270   3.166  11.098  0.00  0.00    +0.000 C 
BRANCH  25  26
ATOM     26  O   UNL     1      43.872   2.992   9.739  0.00  0.00    +0.000 OA
BRANCH  26  27
ATOM     27  C   UNL     1      44.924   2.884   8.864  0.00  0.00    +0.000 A 
ATOM     28  C   UNL     1      45.467   3.947   8.131  0.00  0.00    +0.000 A 
ATOM     29  C   UNL     1      46.546   3.733   7.274  0.00  0.00    +0.000 A 
ATOM     30  C   UNL     1      47.094   2.460   7.150  0.00  0.00    +0.000 A 
ATOM     31  C   UNL     1      46.566   1.401   7.887  0.00  0.00    +0.000 A 
ATOM     32  C   UNL     1      45.487   1.614   8.746  0.00  0.00    +0.000 A 
ENDBRANCH  26  27
ENDBRANCH  25  26
ENDBRANCH  24  25
ENDBRANCH  21  24
ENDBRANCH  17  18
ENDBRANCH   3  17
TORSDOF 8
ENDMDL
MODEL 8
REMARK VINA RESULT:    -6.892      3.473      5.886
REMARK INTER + INTRA:         -11.304
REMARK INTER:                 -10.123
REMARK INTRA:                  -1.182
REMARK UNBOUND:                -1.391
REMARK  Name = 
REMARK  9 active torsions:
REMARK  status: ('A' for Active; 'I' for Inactive)
REMARK    1  A    between atoms: C_1  and  N_2
REMARK    2  A    between atoms: C_4  and  C_5
REMARK    3  A    between atoms: N_7  and  C_8
REMARK    4  A    between atoms: C_8  and  C_9
REMARK    5  A    between atoms: C_12  and  C_13
REMARK    6  A    between atoms: C_13  and  C_14
REMARK    7  A    between atoms: C_14  and  O_15
REMARK    8  A    between atoms: O_15  and  C_16
REMARK    9  A    between atoms: C_25  and  O_26
REMARK                            x       y       z     vdW  Elec       q    Type
REMARK                         _______ _______ _______ _____ _____    ______ ____
ROOT
ATOM      1  C   UNL     1      49.021   8.869  12.659  0.00  0.00    +0.000 C 
ATOM      2  O   UNL     1      49.640   8.843  13.720  0.00  0.00    +0.000 OA
ATOM      3  N   UNL     1      48.098   7.916  12.312  0.00  0.00    +0.000 N 
ATOM      4  H   UNL     1      47.608   7.970  11.432  0.00  0.00    +0.000 HD
ENDROOT
BRANCH   1   8
ATOM      5  C   UNL     1      51.142  11.979   9.359  0.00  0.00    +0.000 C 
ATOM      6  N   UNL     1      50.169  11.336  10.212  0.00  0.00    +0.000 N 
ATOM      7  C   UNL     1      50.417  10.269  11.038  0.00  0.00    +0.000 A 
ATOM      8  C   UNL     1      49.236   9.937  11.691  0.00  0.00    +0.000 A 
ATOM      9  C   UNL     1      48.239  10.863  11.225  0.00  0.00    +0.000 A 
ATOM     10  C   UNL     1      46.880  11.107  11.450  0.00  0.00    +0.000 A 
ATOM     11  N   UNL     1      46.252  12.103  10.803  0.00  0.00    +0.000 NA
ATOM     12  C   UNL     1      46.976  12.842   9.945  0.00  0.00    +0.000 A 
ATOM     13  N   UNL     1      48.276  12.717   9.638  0.00  0.00    +0.000 NA
ATOM     14  C   UNL     1      48.856  11.707  10.313  0.00  0.00    +0.000 A 
BRANCH  10  15
ATOM     15  O   UNL     1      46.096  10.385  12.314  0.00  0.00    +0.000 OA
ATOM     16  H   UNL     1      46.113  10.835  13.182  0.00  0.00    +0.000 HD
ENDBRANCH  10  15
ENDBRANCH   1   8
BRANCH   3  17
ATOM     17  C   UNL     1      47.811   6.816  13.197  0.00  0.00    +0.000 C 
BRANCH  17  18
ATOM     18  C   UNL     1      46.809   5.875  12.589  0.00  0.00    +0.000 A 
ATOM     19  C   UNL     1      46.135   6.238  11.420  0.00  0.00    +0.000 A 
ATOM     20  C   UNL     1      45.207   5.373  10.841  0.00  0.00    +0.000 A 
ATOM     21  C   UNL     1      44.916   4.130  11.422  0.00  0.00    +0.000 A 
ATOM     22  C   UNL     1      45.584   3.777  12.602  0.00  0.00    +0.000 A 
ATOM     23  C   UNL     1      46.516   4.642  13.184  0.00  0.00    +0.000 A 
BRANCH  21  24
ATOM     24  C   UNL     1      43.925   3.147  10.833  0.00  0.00    +0.000 C 
BRANCH  24  25
ATOM     25  C   UNL     1      44.289   2.638   9.441  0.00  0.00    +0.000 C 
BRANCH  25  26
ATOM     26  O   UNL     1      45.661   2.250   9.395  0.00  0.00    +0.000 OA
BRANCH  26  27
ATOM     27  C   UNL     1      46.189   2.236   8.128  0.00  0.00    +0.000 A 
ATOM     28  C   UNL     1      46.223   3.337   7.264  0.00  0.00    +0.000 A 
ATOM     29  C   UNL     1      46.793   3.221   5.997  0.00  0.00    +0.000 A 
ATOM     30  C   UNL     1      47.340   2.008   5.589  0.00  0.00    +0.000 A 
ATOM     31  C   UNL     1      47.321   0.912   6.449  0.00  0.00    +0.000 A 
ATOM     32  C   UNL     1      46.751   1.028   7.719  0.00  0.00    +0.000 A 
ENDBRANCH  26  27
ENDBRANCH  25  26
ENDBRANCH  24  25
ENDBRANCH  21  24
ENDBRANCH  17  18
ENDBRANCH   3  17
TORSDOF 8
ENDMDL
MODEL 9
REMARK VINA RESULT:    -6.716      3.633      5.895
REMARK INTER + INTRA:         -11.051
REMARK INTER:                  -9.949
REMARK INTRA:                  -1.102
REMARK UNBOUND:                -1.391
REMARK  Name = 
REMARK  9 active torsions:
REMARK  status: ('A' for Active; 'I' for Inactive)
REMARK    1  A    between atoms: C_1  and  N_2
REMARK    2  A    between atoms: C_4  and  C_5
REMARK    3  A    between atoms: N_7  and  C_8
REMARK    4  A    between atoms: C_8  and  C_9
REMARK    5  A    between atoms: C_12  and  C_13
REMARK    6  A    between atoms: C_13  and  C_14
REMARK    7  A    between atoms: C_14  and  O_15
REMARK    8  A    between atoms: O_15  and  C_16
REMARK    9  A    between atoms: C_25  and  O_26
REMARK                            x       y       z     vdW  Elec       q    Type
REMARK                         _______ _______ _______ _____ _____    ______ ____
ROOT
ATOM      1  C   UNL     1      49.098   8.855  12.808  0.00  0.00    +0.000 C 
ATOM      2  O   UNL     1      49.671   8.794  13.893  0.00  0.00    +0.000 OA
ATOM      3  N   UNL     1      48.001   8.089  12.503  0.00  0.00    +0.000 N 
ATOM      4  H   UNL     1      47.555   8.166  11.601  0.00  0.00    +0.000 HD
ENDROOT
BRANCH   1   8
ATOM      5  C   UNL     1      49.297  12.498   9.383  0.00  0.00    +0.000 C 
ATOM      6  N   UNL     1      49.665  11.388  10.229  0.00  0.00    +0.000 N 
ATOM      7  C   UNL     1      48.847  10.785  11.152  0.00  0.00    +0.000 A 
ATOM      8  C   UNL     1      49.559   9.761  11.765  0.00  0.00    +0.000 A 
ATOM      9  C   UNL     1      50.866   9.759  11.167  0.00  0.00    +0.000 A 
ATOM     10  C   UNL     1      52.053   9.027  11.294  0.00  0.00    +0.000 A 
ATOM     11  N   UNL     1      53.121   9.326  10.536  0.00  0.00    +0.000 NA
ATOM     12  C   UNL     1      53.001  10.343   9.665  0.00  0.00    +0.000 A 
ATOM     13  N   UNL     1      51.930  11.121   9.443  0.00  0.00    +0.000 NA
ATOM     14  C   UNL     1      50.891  10.778  10.226  0.00  0.00    +0.000 A 
BRANCH  10  15
ATOM     15  O   UNL     1      52.227   7.982  12.165  0.00  0.00    +0.000 OA
ATOM     16  H   UNL     1      51.347   7.725  12.506  0.00  0.00    +0.000 HD
ENDBRANCH  10  15
ENDBRANCH   1   8
BRANCH   3  17
ATOM     17  C   UNL     1      47.464   7.159  13.463  0.00  0.00    +0.000 C 
BRANCH  17  18
ATOM     18  C   UNL     1      46.595   6.129  12.798  0.00  0.00    +0.000 A 
ATOM     19  C   UNL     1      46.134   6.345  11.497  0.00  0.00    +0.000 A 
ATOM     20  C   UNL     1      45.330   5.397  10.864  0.00  0.00    +0.000 A 
ATOM     21  C   UNL     1      44.955   4.215  11.519  0.00  0.00    +0.000 A 
ATOM     22  C   UNL     1      45.408   4.011  12.829  0.00  0.00    +0.000 A 
ATOM     23  C   UNL     1      46.213   4.960  13.465  0.00  0.00    +0.000 A 
BRANCH  21  24
ATOM     24  C   UNL     1      44.092   3.147  10.879  0.00  0.00    +0.000 C 
BRANCH  24  25
ATOM     25  C   UNL     1      44.359   2.924   9.393  0.00  0.00    +0.000 C 
BRANCH  25  26
ATOM     26  O   UNL     1      45.253   1.828   9.206  0.00  0.00    +0.000 OA
BRANCH  26  27
ATOM     27  C   UNL     1      46.058   1.955   8.101  0.00  0.00    +0.000 A 
ATOM     28  C   UNL     1      46.915   0.959   7.618  0.00  0.00    +0.000 A 
ATOM     29  C   UNL     1      47.686   1.184   6.478  0.00  0.00    +0.000 A 
ATOM     30  C   UNL     1      47.599   2.402   5.810  0.00  0.00    +0.000 A 
ATOM     31  C   UNL     1      46.738   3.393   6.278  0.00  0.00    +0.000 A 
ATOM     32  C   UNL     1      45.965   3.167   7.419  0.00  0.00    +0.000 A 
ENDBRANCH  26  27
ENDBRANCH  25  26
ENDBRANCH  24  25
ENDBRANCH  21  24
ENDBRANCH  17  18
ENDBRANCH   3  17
TORSDOF 8
ENDMDL
