MODEL 1
REMARK VINA RESULT:    -7.181      0.000      0.000
REMARK INTER + INTRA:          -8.287
REMARK INTER:                  -8.230
REMARK INTRA:                  -0.057
REMARK UNBOUND:                -0.057
REMARK  Name = 
REMARK  3 active torsions:
REMARK  status: ('A' for Active; 'I' for Inactive)
REMARK    1  A    between atoms: O_1  and  C_2
REMARK    2  A    between atoms: C_5  and  C_6
REMARK    3  A    between atoms: C_6  and  C_7
REMARK                            x       y       z     vdW  Elec       q    Type
REMARK                         _______ _______ _______ _____ _____    ______ ____
ROOT
ATOM      1  C   UNL     1      46.069   5.099  12.978  0.00  0.00    +0.000 A 
ATOM      2  C   UNL     1      46.816   6.212  12.590  0.00  0.00    +0.000 A 
ATOM      3  C   UNL     1      47.825   6.659  13.423  0.00  0.00    +0.000 A 
ATOM      4  N   UNL     1      48.145   6.079  14.602  0.00  0.00    +0.000 NA
ATOM      5  C   UNL     1      47.473   4.968  14.972  0.00  0.00    +0.000 A 
ATOM      6  N   UNL     1      47.745   4.383  16.190  0.00  0.00    +0.000 N 
ATOM      7  C   UNL     1      48.315   5.186  17.273  0.00  0.00    +0.000 C 
ATOM      8  C   UNL     1      49.659   4.610  17.761  0.00  0.00    +0.000 C 
ATOM      9  N   UNL     1      49.601   3.166  18.083  0.00  0.00    +0.000 NA
ATOM     10  C   UNL     1      49.139   2.447  16.878  0.00  0.00    +0.000 C 
ATOM     11  C   UNL     1      47.769   2.928  16.352  0.00  0.00    +0.000 C 
ATOM     12  C   UNL     1      46.455   4.461  14.164  0.00  0.00    +0.000 A 
ATOM     13  H   UNL     1      48.899   3.039  18.813  0.00  0.00    +0.000 HD
ENDROOT
BRANCH   1  14
ATOM     14  C   UNL     1      44.830   4.652  12.204  0.00  0.00    +0.000 C 
ATOM     15  C   UNL     1      43.696   3.997  12.998  0.00  0.00    +0.000 C 
ATOM     16  C   UNL     1      43.533   5.402  12.521  0.00  0.00    +0.000 C 
BRANCH  14  20
ATOM     17  C   UNL     1      45.512   3.330   8.173  0.00  0.00    +0.000 A 
ATOM     18  C   UNL     1      45.704   4.668   8.468  0.00  0.00    +0.000 A 
ATOM     19  C   UNL     1      45.461   5.108   9.771  0.00  0.00    +0.000 A 
ATOM     20  C   UNL     1      45.039   4.203  10.755  0.00  0.00    +0.000 A 
ATOM     21  N   UNL     1      44.844   2.892  10.452  0.00  0.00    +0.000 NA
ATOM     22  C   UNL     1      45.080   2.488   9.181  0.00  0.00    +0.000 A 
BRANCH  17  23
ATOM     23  O   UNL     1      45.740   2.824   6.930  0.00  0.00    +0.000 OA
ATOM     24  H   UNL     1      46.165   3.507   6.385  0.00  0.00    +0.000 HD
ENDBRANCH  17  23
ENDBRANCH  14  20
ENDBRANCH   1  14
TORSDOF 3
ENDMDL
MODEL 2
REMARK VINA RESULT:    -7.130      2.229      3.736
REMARK INTER + INTRA:          -8.229
REMARK INTER:                  -8.048
REMARK INTRA:                  -0.181
REMARK UNBOUND:                -0.057
REMARK  Name = 
REMARK  3 active torsions:
REMARK  status: ('A' for Active; 'I' for Inactive)
REMARK    1  A    between atoms: O_1  and  C_2
REMARK    2  A    between atoms: C_5  and  C_6
REMARK    3  A    between atoms: C_6  and  C_7
REMARK                            x       y       z     vdW  Elec       q    Type
REMARK                         _______ _______ _______ _____ _____    ______ ____
ROOT
ATOM      1  C   UNL     1      45.558   4.730  12.140  0.00  0.00    +0.000 A 
ATOM      2  C   UNL     1      45.846   3.953  13.263  0.00  0.00    +0.000 A 
ATOM      3  C   UNL     1      46.881   4.343  14.093  0.00  0.00    +0.000 A 
ATOM      4  N   UNL     1      47.639   5.444  13.891  0.00  0.00    +0.000 NA
ATOM      5  C   UNL     1      47.343   6.241  12.842  0.00  0.00    +0.000 A 
ATOM      6  N   UNL     1      48.128   7.344  12.585  0.00  0.00    +0.000 N 
ATOM      7  C   UNL     1      49.515   7.377  13.053  0.00  0.00    +0.000 C 
ATOM      8  C   UNL     1      49.775   8.584  13.975  0.00  0.00    +0.000 C 
ATOM      9  N   UNL     1      49.329   9.873  13.401  0.00  0.00    +0.000 NA
ATOM     10  C   UNL     1      47.890   9.763  13.090  0.00  0.00    +0.000 C 
ATOM     11  C   UNL     1      47.547   8.606  12.125  0.00  0.00    +0.000 C 
ATOM     12  C   UNL     1      46.300   5.907  11.979  0.00  0.00    +0.000 A 
ATOM     13  H   UNL     1      49.831  10.011  12.523  0.00  0.00    +0.000 HD
ENDROOT
BRANCH   1  14
ATOM     14  C   UNL     1      44.552   4.275  11.083  0.00  0.00    +0.000 C 
ATOM     15  C   UNL     1      43.215   3.714  11.573  0.00  0.00    +0.000 C 
ATOM     16  C   UNL     1      43.259   5.089  10.993  0.00  0.00    +0.000 C 
BRANCH  14  20
ATOM     17  C   UNL     1      46.241   2.684   7.467  0.00  0.00    +0.000 A 
ATOM     18  C   UNL     1      46.211   4.058   7.630  0.00  0.00    +0.000 A 
ATOM     19  C   UNL     1      45.641   4.581   8.792  0.00  0.00    +0.000 A 
ATOM     20  C   UNL     1      45.122   3.725   9.772  0.00  0.00    +0.000 A 
ATOM     21  N   UNL     1      45.148   2.376   9.598  0.00  0.00    +0.000 NA
ATOM     22  C   UNL     1      45.699   1.890   8.460  0.00  0.00    +0.000 A 
BRANCH  17  23
ATOM     23  O   UNL     1      46.790   2.100   6.367  0.00  0.00    +0.000 OA
ATOM     24  H   UNL     1      46.140   1.492   5.976  0.00  0.00    +0.000 HD
ENDBRANCH  17  23
ENDBRANCH  14  20
ENDBRANCH   1  14
TORSDOF 3
ENDMDL
MODEL 3
REMARK VINA RESULT:    -6.466      1.926      2.614
REMARK INTER + INTRA:          -7.468
REMARK INTER:                  -7.567
REMARK INTRA:                   0.099
REMARK UNBOUND:                -0.057
REMARK  Name = 
REMARK  3 active torsions:
REMARK  status: ('A' for Active; 'I' for Inactive)
REMARK    1  A    between atoms: O_1  and  C_2
REMARK    2  A    between atoms: C_5  and  C_6
REMARK    3  A    between atoms: C_6  and  C_7
REMARK                            x       y       z     vdW  Elec       q    Type
REMARK                         _______ _______ _______ _____ _____    ______ ____
ROOT
ATOM      1  C   UNL     1      47.137   6.592  13.338  0.00  0.00    +0.000 A 
ATOM      2  C   UNL     1      48.269   7.371  13.090  0.00  0.00    +0.000 A 
ATOM      3  C   UNL     1      49.338   7.287  13.962  0.00  0.00    +0.000 A 
ATOM      4  N   UNL     1      49.365   6.488  15.052  0.00  0.00    +0.000 NA
ATOM      5  C   UNL     1      48.304   5.684  15.282  0.00  0.00    +0.000 A 
ATOM      6  N   UNL     1      48.283   4.893  16.411  0.00  0.00    +0.000 N 
ATOM      7  C   UNL     1      49.074   5.274  17.582  0.00  0.00    +0.000 C 
ATOM      8  C   UNL     1      50.074   4.169  17.976  0.00  0.00    +0.000 C 
ATOM      9  N   UNL     1      49.455   2.831  18.109  0.00  0.00    +0.000 NA
ATOM     10  C   UNL     1      48.801   2.501  16.826  0.00  0.00    +0.000 C 
ATOM     11  C   UNL     1      47.741   3.534  16.382  0.00  0.00    +0.000 C 
ATOM     12  C   UNL     1      47.202   5.713  14.427  0.00  0.00    +0.000 A 
ATOM     13  H   UNL     1      48.730   2.895  18.824  0.00  0.00    +0.000 HD
ENDROOT
BRANCH   1  14
ATOM     14  C   UNL     1      45.854   6.756  12.527  0.00  0.00    +0.000 C 
ATOM     15  C   UNL     1      45.088   8.074  12.670  0.00  0.00    +0.000 C 
ATOM     16  C   UNL     1      45.884   7.826  11.432  0.00  0.00    +0.000 C 
BRANCH  14  20
ATOM     17  C   UNL     1      43.619   3.153  11.827  0.00  0.00    +0.000 A 
ATOM     18  C   UNL     1      44.731   3.401  11.042  0.00  0.00    +0.000 A 
ATOM     19  C   UNL     1      45.447   4.582  11.249  0.00  0.00    +0.000 A 
ATOM     20  C   UNL     1      45.045   5.488  12.240  0.00  0.00    +0.000 A 
ATOM     21  N   UNL     1      43.945   5.240  12.999  0.00  0.00    +0.000 NA
ATOM     22  C   UNL     1      43.261   4.092  12.778  0.00  0.00    +0.000 A 
BRANCH  17  23
ATOM     23  O   UNL     1      42.878   2.020  11.693  0.00  0.00    +0.000 OA
ATOM     24  H   UNL     1      43.362   1.278  12.091  0.00  0.00    +0.000 HD
ENDBRANCH  17  23
ENDBRANCH  14  20
ENDBRANCH   1  14
TORSDOF 3
ENDMDL
MODEL 4
REMARK VINA RESULT:    -5.965      2.871      4.296
REMARK INTER + INTRA:          -6.894
REMARK INTER:                  -6.801
REMARK INTRA:                  -0.094
REMARK UNBOUND:                -0.057
REMARK  Name = 
REMARK  3 active torsions:
REMARK  status: ('A' for Active; 'I' for Inactive)
REMARK    1  A    between atoms: O_1  and  C_2
REMARK    2  A    between atoms: C_5  and  C_6
REMARK    3  A    between atoms: C_6  and  C_7
REMARK                            x       y       z     vdW  Elec       q    Type
REMARK                         _______ _______ _______ _____ _____    ______ ____
ROOT
ATOM      1  C   UNL     1      49.349   7.443  13.862  0.00  0.00    +0.000 A 
ATOM      2  C   UNL     1      50.519   7.945  14.436  0.00  0.00    +0.000 A 
ATOM      3  C   UNL     1      50.821   7.598  15.740  0.00  0.00    +0.000 A 
ATOM      4  N   UNL     1      50.052   6.792  16.506  0.00  0.00    +0.000 NA
ATOM      5  C   UNL     1      48.945   6.250  15.954  0.00  0.00    +0.000 A 
ATOM      6  N   UNL     1      48.118   5.462  16.725  0.00  0.00    +0.000 N 
ATOM      7  C   UNL     1      48.103   5.625  18.180  0.00  0.00    +0.000 C 
ATOM      8  C   UNL     1      48.460   4.311  18.902  0.00  0.00    +0.000 C 
ATOM      9  N   UNL     1      47.664   3.150  18.444  0.00  0.00    +0.000 NA
ATOM     10  C   UNL     1      47.861   3.007  16.987  0.00  0.00    +0.000 C 
ATOM     11  C   UNL     1      47.475   4.266  16.179  0.00  0.00    +0.000 C 
ATOM     12  C   UNL     1      48.598   6.550  14.637  0.00  0.00    +0.000 A 
ATOM     13  H   UNL     1      46.680   3.364  18.609  0.00  0.00    +0.000 HD
ENDROOT
BRANCH   1  14
ATOM     14  C   UNL     1      48.857   7.916  12.496  0.00  0.00    +0.000 C 
ATOM     15  C   UNL     1      49.586   9.097  11.849  0.00  0.00    +0.000 C 
ATOM     16  C   UNL     1      49.827   7.719  11.327  0.00  0.00    +0.000 C 
BRANCH  14  20
ATOM     17  C   UNL     1      44.694   7.447  11.542  0.00  0.00    +0.000 A 
ATOM     18  C   UNL     1      45.107   8.635  12.118  0.00  0.00    +0.000 A 
ATOM     19  C   UNL     1      46.455   8.784  12.453  0.00  0.00    +0.000 A 
ATOM     20  C   UNL     1      47.364   7.749  12.197  0.00  0.00    +0.000 A 
ATOM     21  N   UNL     1      46.946   6.582  11.639  0.00  0.00    +0.000 NA
ATOM     22  C   UNL     1      45.634   6.456  11.329  0.00  0.00    +0.000 A 
BRANCH  17  23
ATOM     23  O   UNL     1      43.400   7.233  11.178  0.00  0.00    +0.000 OA
ATOM     24  H   UNL     1      43.353   6.421  10.646  0.00  0.00    +0.000 HD
ENDBRANCH  17  23
ENDBRANCH  14  20
ENDBRANCH   1  14
TORSDOF 3
ENDMDL
MODEL 5
REMARK VINA RESULT:    -5.723      3.565      6.770
REMARK INTER + INTRA:          -6.617
REMARK INTER:                  -6.535
REMARK INTRA:                  -0.082
REMARK UNBOUND:                -0.057
REMARK  Name = 
REMARK  3 active torsions:
REMARK  status: ('A' for Active; 'I' for Inactive)
REMARK    1  A    between atoms: O_1  and  C_2
REMARK    2  A    between atoms: C_5  and  C_6
REMARK    3  A    between atoms: C_6  and  C_7
REMARK                            x       y       z     vdW  Elec       q    Type
REMARK                         _______ _______ _______ _____ _____    ______ ____
ROOT
ATOM      1  C   UNL     1      47.881   7.045  13.090  0.00  0.00    +0.000 A 
ATOM      2  C   UNL     1      48.198   6.405  14.289  0.00  0.00    +0.000 A 
ATOM      3  C   UNL     1      47.423   5.335  14.696  0.00  0.00    +0.000 A 
ATOM      4  N   UNL     1      46.367   4.857  14.001  0.00  0.00    +0.000 NA
ATOM      5  C   UNL     1      46.075   5.425  12.811  0.00  0.00    +0.000 A 
ATOM      6  N   UNL     1      44.976   4.990  12.102  0.00  0.00    +0.000 N 
ATOM      7  C   UNL     1      43.863   4.347  12.804  0.00  0.00    +0.000 C 
ATOM      8  C   UNL     1      43.593   2.930  12.262  0.00  0.00    +0.000 C 
ATOM      9  N   UNL     1      43.454   2.877  10.789  0.00  0.00    +0.000 NA
ATOM     10  C   UNL     1      44.687   3.430  10.193  0.00  0.00    +0.000 C 
ATOM     11  C   UNL     1      45.004   4.873  10.643  0.00  0.00    +0.000 C 
ATOM     12  C   UNL     1      46.832   6.498  12.340  0.00  0.00    +0.000 A 
ATOM     13  H   UNL     1      42.678   3.486  10.529  0.00  0.00    +0.000 HD
ENDROOT
BRANCH   1  14
ATOM     14  C   UNL     1      48.574   8.337  12.660  0.00  0.00    +0.000 C 
ATOM     15  C   UNL     1      47.738   9.372  11.902  0.00  0.00    +0.000 C 
ATOM     16  C   UNL     1      48.081   9.620  13.333  0.00  0.00    +0.000 C 
BRANCH  14  20
ATOM     17  C   UNL     1      52.772   8.212  11.752  0.00  0.00    +0.000 A 
ATOM     18  C   UNL     1      51.877   7.795  10.783  0.00  0.00    +0.000 A 
ATOM     19  C   UNL     1      50.513   7.810  11.081  0.00  0.00    +0.000 A 
ATOM     20  C   UNL     1      50.069   8.250  12.336  0.00  0.00    +0.000 A 
ATOM     21  N   UNL     1      50.957   8.649  13.284  0.00  0.00    +0.000 NA
ATOM     22  C   UNL     1      52.276   8.620  12.977  0.00  0.00    +0.000 A 
BRANCH  17  23
ATOM     23  O   UNL     1      54.115   8.237  11.532  0.00  0.00    +0.000 OA
ATOM     24  H   UNL     1      54.403   7.355  11.245  0.00  0.00    +0.000 HD
ENDBRANCH  17  23
ENDBRANCH  14  20
ENDBRANCH   1  14
TORSDOF 3
ENDMDL
MODEL 6
REMARK VINA RESULT:    -5.715      3.283      7.243
REMARK INTER + INTRA:          -6.607
REMARK INTER:                  -6.610
REMARK INTRA:                   0.003
REMARK UNBOUND:                -0.057
REMARK  Name = 
REMARK  3 active torsions:
REMARK  status: ('A' for Active; 'I' for Inactive)
REMARK    1  A    between atoms: O_1  and  C_2
REMARK    2  A    between atoms: C_5  and  C_6
REMARK    3  A    between atoms: C_6  and  C_7
REMARK                            x       y       z     vdW  Elec       q    Type
REMARK                         _______ _______ _______ _____ _____    ______ ____
ROOT
ATOM      1  C   UNL     1      47.820   7.222  14.388  0.00  0.00    +0.000 A 
ATOM      2  C   UNL     1      47.312   8.478  14.049  0.00  0.00    +0.000 A 
ATOM      3  C   UNL     1      46.359   8.562  13.051  0.00  0.00    +0.000 A 
ATOM      4  N   UNL     1      45.874   7.496  12.376  0.00  0.00    +0.000 NA
ATOM      5  C   UNL     1      46.309   6.266  12.724  0.00  0.00    +0.000 A 
ATOM      6  N   UNL     1      45.868   5.165  12.022  0.00  0.00    +0.000 N 
ATOM      7  C   UNL     1      45.398   5.320  10.644  0.00  0.00    +0.000 C 
ATOM      8  C   UNL     1      43.946   4.827  10.480  0.00  0.00    +0.000 C 
ATOM      9  N   UNL     1      43.720   3.466  11.018  0.00  0.00    +0.000 NA
ATOM     10  C   UNL     1      44.106   3.468  12.443  0.00  0.00    +0.000 C 
ATOM     11  C   UNL     1      45.568   3.900  12.693  0.00  0.00    +0.000 C 
ATOM     12  C   UNL     1      47.259   6.117  13.735  0.00  0.00    +0.000 A 
ATOM     13  H   UNL     1      44.346   2.830  10.523  0.00  0.00    +0.000 HD
ENDROOT
BRANCH   1  14
ATOM     14  C   UNL     1      48.995   7.062  15.351  0.00  0.00    +0.000 C 
ATOM     15  C   UNL     1      50.400   7.326  14.803  0.00  0.00    +0.000 C 
ATOM     16  C   UNL     1      49.763   8.343  15.691  0.00  0.00    +0.000 C 
BRANCH  14  20
ATOM     17  C   UNL     1      48.550   4.062  18.394  0.00  0.00    +0.000 A 
ATOM     18  C   UNL     1      47.620   5.084  18.337  0.00  0.00    +0.000 A 
ATOM     19  C   UNL     1      47.773   6.076  17.366  0.00  0.00    +0.000 A 
ATOM     20  C   UNL     1      48.845   6.022  16.465  0.00  0.00    +0.000 A 
ATOM     21  N   UNL     1      49.760   5.019  16.536  0.00  0.00    +0.000 NA
ATOM     22  C   UNL     1      49.596   4.071  17.490  0.00  0.00    +0.000 A 
BRANCH  17  23
ATOM     23  O   UNL     1      48.462   3.055  19.305  0.00  0.00    +0.000 OA
ATOM     24  H   UNL     1      48.362   2.211  18.833  0.00  0.00    +0.000 HD
ENDBRANCH  17  23
ENDBRANCH  14  20
ENDBRANCH   1  14
TORSDOF 3
ENDMDL
MODEL 7
REMARK VINA RESULT:    -5.612      2.377      3.984
REMARK INTER + INTRA:          -6.489
REMARK INTER:                  -6.667
REMARK INTRA:                   0.178
REMARK UNBOUND:                -0.057
REMARK  Name = 
REMARK  3 active torsions:
REMARK  status: ('A' for Active; 'I' for Inactive)
REMARK    1  A    between atoms: O_1  and  C_2
REMARK    2  A    between atoms: C_5  and  C_6
REMARK    3  A    between atoms: C_6  and  C_7
REMARK                            x       y       z     vdW  Elec       q    Type
REMARK                         _______ _______ _______ _____ _____    ______ ____
ROOT
ATOM      1  C   UNL     1      47.581   5.016  15.234  0.00  0.00    +0.000 A 
ATOM      2  C   UNL     1      47.371   3.676  15.566  0.00  0.00    +0.000 A 
ATOM      3  C   UNL     1      47.972   3.171  16.704  0.00  0.00    +0.000 A 
ATOM      4  N   UNL     1      48.756   3.897  17.531  0.00  0.00    +0.000 NA
ATOM      5  C   UNL     1      48.929   5.209  17.262  0.00  0.00    +0.000 A 
ATOM      6  N   UNL     1      49.760   5.963  18.062  0.00  0.00    +0.000 N 
ATOM      7  C   UNL     1      50.829   5.311  18.821  0.00  0.00    +0.000 C 
ATOM      8  C   UNL     1      50.694   5.577  20.334  0.00  0.00    +0.000 C 
ATOM      9  N   UNL     1      50.538   7.010  20.670  0.00  0.00    +0.000 NA
ATOM     10  C   UNL     1      49.356   7.523  19.949  0.00  0.00    +0.000 C 
ATOM     11  C   UNL     1      49.434   7.344  18.416  0.00  0.00    +0.000 C 
ATOM     12  C   UNL     1      48.334   5.779  16.136  0.00  0.00    +0.000 A 
ATOM     13  H   UNL     1      51.360   7.502  20.317  0.00  0.00    +0.000 HD
ENDROOT
BRANCH   1  14
ATOM     14  C   UNL     1      47.100   5.602  13.908  0.00  0.00    +0.000 C 
ATOM     15  C   UNL     1      47.350   7.092  13.660  0.00  0.00    +0.000 C 
ATOM     16  C   UNL     1      48.193   6.084  12.951  0.00  0.00    +0.000 C 
BRANCH  14  20
ATOM     17  C   UNL     1      43.658   3.832  12.042  0.00  0.00    +0.000 A 
ATOM     18  C   UNL     1      43.566   5.139  12.486  0.00  0.00    +0.000 A 
ATOM     19  C   UNL     1      44.674   5.712  13.115  0.00  0.00    +0.000 A 
ATOM     20  C   UNL     1      45.853   4.972  13.281  0.00  0.00    +0.000 A 
ATOM     21  N   UNL     1      45.929   3.685  12.850  0.00  0.00    +0.000 NA
ATOM     22  C   UNL     1      44.841   3.147  12.248  0.00  0.00    +0.000 A 
BRANCH  17  23
ATOM     23  O   UNL     1      42.626   3.210  11.411  0.00  0.00    +0.000 OA
ATOM     24  H   UNL     1      42.407   2.394  11.891  0.00  0.00    +0.000 HD
ENDBRANCH  17  23
ENDBRANCH  14  20
ENDBRANCH   1  14
TORSDOF 3
ENDMDL
MODEL 8
REMARK VINA RESULT:    -5.605      3.704      6.764
REMARK INTER + INTRA:          -6.482
REMARK INTER:                  -6.448
REMARK INTRA:                  -0.033
REMARK UNBOUND:                -0.057
REMARK  Name = 
REMARK  3 active torsions:
REMARK  status: ('A' for Active; 'I' for Inactive)
REMARK    1  A    between atoms: O_1  and  C_2
REMARK    2  A    between atoms: C_5  and  C_6
REMARK    3  A    between atoms: C_6  and  C_7
REMARK                            x       y       z     vdW  Elec       q    Type
REMARK                         _______ _______ _______ _____ _____    ______ ____
ROOT
ATOM      1  C   UNL     1      47.408   7.606  13.537  0.00  0.00    +0.000 A 
ATOM      2  C   UNL     1      46.639   8.746  13.296  0.00  0.00    +0.000 A 
ATOM      3  C   UNL     1      45.484   8.622  12.545  0.00  0.00    +0.000 A 
ATOM      4  N   UNL     1      45.042   7.455  12.025  0.00  0.00    +0.000 NA
ATOM      5  C   UNL     1      45.739   6.330  12.292  0.00  0.00    +0.000 A 
ATOM      6  N   UNL     1      45.338   5.134  11.737  0.00  0.00    +0.000 N 
ATOM      7  C   UNL     1      44.551   5.131  10.502  0.00  0.00    +0.000 C 
ATOM      8  C   UNL     1      43.201   4.412  10.691  0.00  0.00    +0.000 C 
ATOM      9  N   UNL     1      43.328   3.067  11.298  0.00  0.00    +0.000 NA
ATOM     10  C   UNL     1      44.019   3.214  12.594  0.00  0.00    +0.000 C 
ATOM     11  C   UNL     1      45.409   3.880  12.488  0.00  0.00    +0.000 C 
ATOM     12  C   UNL     1      46.904   6.391  13.058  0.00  0.00    +0.000 A 
ATOM     13  H   UNL     1      43.921   2.506  10.686  0.00  0.00    +0.000 HD
ENDROOT
BRANCH   1  14
ATOM     14  C   UNL     1      48.780   7.688  14.205  0.00  0.00    +0.000 C 
ATOM     15  C   UNL     1      48.845   8.257  15.625  0.00  0.00    +0.000 C 
ATOM     16  C   UNL     1      48.989   6.785  15.423  0.00  0.00    +0.000 C 
BRANCH  14  20
ATOM     17  C   UNL     1      52.150   8.437  11.646  0.00  0.00    +0.000 A 
ATOM     18  C   UNL     1      51.023   7.853  11.096  0.00  0.00    +0.000 A 
ATOM     19  C   UNL     1      49.933   7.585  11.928  0.00  0.00    +0.000 A 
ATOM     20  C   UNL     1      49.987   7.913  13.289  0.00  0.00    +0.000 A 
ATOM     21  N   UNL     1      51.103   8.478  13.822  0.00  0.00    +0.000 NA
ATOM     22  C   UNL     1      52.150   8.723  12.999  0.00  0.00    +0.000 A 
BRANCH  17  23
ATOM     23  O   UNL     1      53.245   8.739  10.898  0.00  0.00    +0.000 OA
ATOM     24  H   UNL     1      53.104   9.596  10.463  0.00  0.00    +0.000 HD
ENDBRANCH  17  23
ENDBRANCH  14  20
ENDBRANCH   1  14
TORSDOF 3
ENDMDL
MODEL 9
REMARK VINA RESULT:    -5.526      3.765      8.019
REMARK INTER + INTRA:          -6.390
REMARK INTER:                  -6.297
REMARK INTRA:                  -0.093
REMARK UNBOUND:                -0.057
REMARK  Name = 
REMARK  3 active torsions:
REMARK  status: ('A' for Active; 'I' for Inactive)
REMARK    1  A    between atoms: O_1  and  C_2
REMARK    2  A    between atoms: C_5  and  C_6
REMARK    3  A    between atoms: C_6  and  C_7
REMARK                            x       y       z     vdW  Elec       q    Type
REMARK                         _______ _______ _______ _____ _____    ______ ____
ROOT
ATOM      1  C   UNL     1      47.658   5.091  15.573  0.00  0.00    +0.000 A 
ATOM      2  C   UNL     1      48.443   6.114  15.040  0.00  0.00    +0.000 A 
ATOM      3  C   UNL     1      48.162   6.574  13.766  0.00  0.00    +0.000 A 
ATOM      4  N   UNL     1      47.161   6.097  12.994  0.00  0.00    +0.000 NA
ATOM      5  C   UNL     1      46.352   5.146  13.509  0.00  0.00    +0.000 A 
ATOM      6  N   UNL     1      45.353   4.607  12.728  0.00  0.00    +0.000 N 
ATOM      7  C   UNL     1      45.473   4.635  11.269  0.00  0.00    +0.000 C 
ATOM      8  C   UNL     1      44.289   5.373  10.615  0.00  0.00    +0.000 C 
ATOM      9  N   UNL     1      42.966   4.893  11.076  0.00  0.00    +0.000 NA
ATOM     10  C   UNL     1      42.914   5.036  12.545  0.00  0.00    +0.000 C 
ATOM     11  C   UNL     1      44.040   4.279  13.285  0.00  0.00    +0.000 C 
ATOM     12  C   UNL     1      46.577   4.654  14.795  0.00  0.00    +0.000 A 
ATOM     13  H   UNL     1      42.903   3.899  10.854  0.00  0.00    +0.000 HD
ENDROOT
BRANCH   1  14
ATOM     14  C   UNL     1      48.011   4.410  16.894  0.00  0.00    +0.000 C 
ATOM     15  C   UNL     1      47.348   3.064  17.197  0.00  0.00    +0.000 C 
ATOM     16  C   UNL     1      48.783   3.093  16.785  0.00  0.00    +0.000 C 
BRANCH  14  20
ATOM     17  C   UNL     1      49.021   6.874  20.266  0.00  0.00    +0.000 A 
ATOM     18  C   UNL     1      47.690   6.559  20.056  0.00  0.00    +0.000 A 
ATOM     19  C   UNL     1      47.353   5.779  18.948  0.00  0.00    +0.000 A 
ATOM     20  C   UNL     1      48.351   5.321  18.077  0.00  0.00    +0.000 A 
ATOM     21  N   UNL     1      49.655   5.645  18.286  0.00  0.00    +0.000 NA
ATOM     22  C   UNL     1      49.959   6.408  19.364  0.00  0.00    +0.000 A 
BRANCH  17  23
ATOM     23  O   UNL     1      49.428   7.619  21.329  0.00  0.00    +0.000 OA
ATOM     24  H   UNL     1      49.279   7.113  22.145  0.00  0.00    +0.000 HD
ENDBRANCH  17  23
ENDBRANCH  14  20
ENDBRANCH   1  14
TORSDOF 3
ENDMDL
