MODEL 1
REMARK VINA RESULT:    -7.292      0.000      0.000
REMARK INTER + INTRA:         -10.791
REMARK INTER:                  -9.636
REMARK INTRA:                  -1.154
REMARK UNBOUND:                -1.154
REMARK  Name = 
REMARK  7 active torsions:
REMARK  status: ('A' for Active; 'I' for Inactive)
REMARK    1  A    between atoms: C_1  and  N_2
REMARK    2  A    between atoms: N_2  and  C_3
REMARK    3  A    between atoms: C_3  and  C_4
REMARK    4  A    between atoms: C_7  and  C_8
REMARK    5  A    between atoms: C_8  and  N_9
REMARK    6  A    between atoms: C_12  and  O_13
REMARK    7  A    between atoms: C_18  and  C_20
REMARK                            x       y       z     vdW  Elec       q    Type
REMARK                         _______ _______ _______ _____ _____    ______ ____
ROOT
ATOM      1  C   UNL     1      47.239   6.258  12.396  0.00  0.00    +0.000 C 
ENDROOT
BRANCH   1   2
ATOM      2  C   UNL     1      47.489   5.734  13.786  0.00  0.00    +0.000 A 
ATOM      3  C   UNL     1      48.313   6.437  14.678  0.00  0.00    +0.000 A 
ATOM      4  C   UNL     1      48.593   5.922  15.945  0.00  0.00    +0.000 A 
ATOM      5  C   UNL     1      48.052   4.694  16.344  0.00  0.00    +0.000 A 
ATOM      6  C   UNL     1      47.213   4.005  15.453  0.00  0.00    +0.000 A 
ATOM      7  C   UNL     1      46.933   4.516  14.190  0.00  0.00    +0.000 A 
BRANCH   5   8
ATOM      8  C   UNL     1      48.380   4.092  17.698  0.00  0.00    +0.000 C 
BRANCH   8   9
ATOM      9  N   UNL     1      48.394   5.011  18.849  0.00  0.00    +0.000 NA
ATOM     10  C   UNL     1      49.068   4.452  20.025  0.00  0.00    +0.000 C 
ATOM     11  C   UNL     1      49.160   5.454  21.175  0.00  0.00    +0.000 C 
ATOM     12  C   UNL     1      47.802   6.058  21.510  0.00  0.00    +0.000 C 
ATOM     13  C   UNL     1      47.141   6.619  20.256  0.00  0.00    +0.000 C 
ATOM     14  C   UNL     1      47.078   5.582  19.134  0.00  0.00    +0.000 C 
BRANCH  12  15
ATOM     15  O   UNL     1      46.957   5.091  22.134  0.00  0.00    +0.000 OA
ATOM     16  H   UNL     1      46.883   5.306  23.079  0.00  0.00    +0.000 HD
ENDBRANCH  12  15
ENDBRANCH   8   9
ENDBRANCH   5   8
ENDBRANCH   1   2
BRANCH   1  18
ATOM     17  C   UNL     1      46.346   8.626  12.352  0.00  0.00    +0.000 C 
ATOM     18  N   UNL     1      46.116   7.190  12.231  0.00  0.00    +0.000 N 
ATOM     19  C   UNL     1      44.869   6.805  11.709  0.00  0.00    +0.000 C 
ATOM     20  O   UNL     1      44.029   7.642  11.381  0.00  0.00    +0.000 OA
BRANCH  19  21
ATOM     21  C   UNL     1      44.550   5.377  11.592  0.00  0.00    +0.000 A 
ATOM     22  C   UNL     1      43.799   4.665  12.515  0.00  0.00    +0.000 A 
ATOM     23  S   UNL     1      43.537   3.038  12.074  0.00  0.00    +0.000 S 
ATOM     24  C   UNL     1      44.285   3.272  10.565  0.00  0.00    +0.000 A 
ATOM     25  N   UNL     1      44.300   2.285   9.635  0.00  0.00    +0.000 NA
ATOM     26  C   UNL     1      44.838   2.628   8.511  0.00  0.00    +0.000 A 
ATOM     27  N   UNL     1      45.392   3.855   8.251  0.00  0.00    +0.000 N 
ATOM     28  C   UNL     1      45.525   4.840   9.212  0.00  0.00    +0.000 A 
ATOM     29  O   UNL     1      46.243   5.817   9.018  0.00  0.00    +0.000 OA
ATOM     30  C   UNL     1      44.819   4.542  10.442  0.00  0.00    +0.000 A 
ATOM     31  H   UNL     1      45.860   4.032   7.374  0.00  0.00    +0.000 HD
ENDBRANCH  19  21
ENDBRANCH   1  18
TORSDOF 6
ENDMDL
MODEL 2
REMARK VINA RESULT:    -7.244      2.050      2.571
REMARK INTER + INTRA:         -10.727
REMARK INTER:                  -9.775
REMARK INTRA:                  -0.952
REMARK UNBOUND:                -1.154
REMARK  Name = 
REMARK  7 active torsions:
REMARK  status: ('A' for Active; 'I' for Inactive)
REMARK    1  A    between atoms: C_1  and  N_2
REMARK    2  A    between atoms: N_2  and  C_3
REMARK    3  A    between atoms: C_3  and  C_4
REMARK    4  A    between atoms: C_7  and  C_8
REMARK    5  A    between atoms: C_8  and  N_9
REMARK    6  A    between atoms: C_12  and  O_13
REMARK    7  A    between atoms: C_18  and  C_20
REMARK                            x       y       z     vdW  Elec       q    Type
REMARK                         _______ _______ _______ _____ _____    ______ ____
ROOT
ATOM      1  C   UNL     1      46.732   6.437  11.918  0.00  0.00    +0.000 C 
ENDROOT
BRANCH   1   2
ATOM      2  C   UNL     1      47.226   6.104  13.302  0.00  0.00    +0.000 A 
ATOM      3  C   UNL     1      48.150   6.936  13.951  0.00  0.00    +0.000 A 
ATOM      4  C   UNL     1      48.652   6.598  15.209  0.00  0.00    +0.000 A 
ATOM      5  C   UNL     1      48.237   5.419  15.841  0.00  0.00    +0.000 A 
ATOM      6  C   UNL     1      47.297   4.601  15.194  0.00  0.00    +0.000 A 
ATOM      7  C   UNL     1      46.795   4.937  13.941  0.00  0.00    +0.000 A 
BRANCH   5   8
ATOM      8  C   UNL     1      48.805   5.007  17.186  0.00  0.00    +0.000 C 
BRANCH   8   9
ATOM      9  N   UNL     1      50.168   4.451  17.192  0.00  0.00    +0.000 NA
ATOM     10  C   UNL     1      50.233   3.087  17.729  0.00  0.00    +0.000 C 
ATOM     11  C   UNL     1      51.636   2.491  17.635  0.00  0.00    +0.000 C 
ATOM     12  C   UNL     1      52.686   3.411  18.245  0.00  0.00    +0.000 C 
ATOM     13  C   UNL     1      52.574   4.814  17.660  0.00  0.00    +0.000 C 
ATOM     14  C   UNL     1      51.151   5.365  17.772  0.00  0.00    +0.000 C 
BRANCH  12  15
ATOM     15  O   UNL     1      52.563   3.449  19.667  0.00  0.00    +0.000 OA
ATOM     16  H   UNL     1      51.739   3.001  19.920  0.00  0.00    +0.000 HD
ENDBRANCH  12  15
ENDBRANCH   8   9
ENDBRANCH   5   8
ENDBRANCH   1   2
BRANCH   1  18
ATOM     17  C   UNL     1      45.497   8.646  11.906  0.00  0.00    +0.000 C 
ATOM     18  N   UNL     1      45.474   7.189  11.825  0.00  0.00    +0.000 N 
ATOM     19  C   UNL     1      44.263   6.611  11.407  0.00  0.00    +0.000 C 
ATOM     20  O   UNL     1      43.286   7.306  11.132  0.00  0.00    +0.000 OA
BRANCH  19  21
ATOM     21  C   UNL     1      44.151   5.150  11.338  0.00  0.00    +0.000 A 
ATOM     22  C   UNL     1      43.441   4.375  12.243  0.00  0.00    +0.000 A 
ATOM     23  S   UNL     1      43.437   2.711  11.864  0.00  0.00    +0.000 S 
ATOM     24  C   UNL     1      44.250   2.991  10.398  0.00  0.00    +0.000 A 
ATOM     25  N   UNL     1      44.467   1.981   9.519  0.00  0.00    +0.000 NA
ATOM     26  C   UNL     1      45.032   2.352   8.417  0.00  0.00    +0.000 A 
ATOM     27  N   UNL     1      45.429   3.634   8.135  0.00  0.00    +0.000 N 
ATOM     28  C   UNL     1      45.358   4.664   9.055  0.00  0.00    +0.000 A 
ATOM     29  O   UNL     1      45.947   5.723   8.862  0.00  0.00    +0.000 OA
ATOM     30  C   UNL     1      44.613   4.317  10.249  0.00  0.00    +0.000 A 
ATOM     31  H   UNL     1      45.930   3.841   7.283  0.00  0.00    +0.000 HD
ENDBRANCH  19  21
ENDBRANCH   1  18
TORSDOF 6
ENDMDL
MODEL 3
REMARK VINA RESULT:    -7.051      1.320      2.192
REMARK INTER + INTRA:         -10.473
REMARK INTER:                  -9.296
REMARK INTRA:                  -1.177
REMARK UNBOUND:                -1.154
REMARK  Name = 
REMARK  7 active torsions:
REMARK  status: ('A' for Active; 'I' for Inactive)
REMARK    1  A    between atoms: C_1  and  N_2
REMARK    2  A    between atoms: N_2  and  C_3
REMARK    3  A    between atoms: C_3  and  C_4
REMARK    4  A    between atoms: C_7  and  C_8
REMARK    5  A    between atoms: C_8  and  N_9
REMARK    6  A    between atoms: C_12  and  O_13
REMARK    7  A    between atoms: C_18  and  C_20
REMARK                            x       y       z     vdW  Elec       q    Type
REMARK                         _______ _______ _______ _____ _____    ______ ____
ROOT
ATOM      1  C   UNL     1      47.426   6.594  12.520  0.00  0.00    +0.000 C 
ENDROOT
BRANCH   1   2
ATOM      2  C   UNL     1      47.601   5.871  13.830  0.00  0.00    +0.000 A 
ATOM      3  C   UNL     1      46.934   4.661  14.073  0.00  0.00    +0.000 A 
ATOM      4  C   UNL     1      47.049   4.021  15.308  0.00  0.00    +0.000 A 
ATOM      5  C   UNL     1      47.836   4.579  16.323  0.00  0.00    +0.000 A 
ATOM      6  C   UNL     1      48.516   5.781  16.066  0.00  0.00    +0.000 A 
ATOM      7  C   UNL     1      48.403   6.420  14.835  0.00  0.00    +0.000 A 
BRANCH   5   8
ATOM      8  C   UNL     1      47.939   3.926  17.688  0.00  0.00    +0.000 C 
BRANCH   8   9
ATOM      9  N   UNL     1      48.174   4.816  18.837  0.00  0.00    +0.000 NA
ATOM     10  C   UNL     1      48.839   4.146  19.960  0.00  0.00    +0.000 C 
ATOM     11  C   UNL     1      49.164   5.108  21.102  0.00  0.00    +0.000 C 
ATOM     12  C   UNL     1      47.941   5.907  21.536  0.00  0.00    +0.000 C 
ATOM     13  C   UNL     1      47.285   6.578  20.336  0.00  0.00    +0.000 C 
ATOM     14  C   UNL     1      46.985   5.576  19.219  0.00  0.00    +0.000 C 
BRANCH  12  15
ATOM     15  O   UNL     1      47.006   5.071  22.219  0.00  0.00    +0.000 OA
ATOM     16  H   UNL     1      46.547   5.601  22.891  0.00  0.00    +0.000 HD
ENDBRANCH  12  15
ENDBRANCH   8   9
ENDBRANCH   5   8
ENDBRANCH   1   2
BRANCH   1  18
ATOM     17  C   UNL     1      46.385   8.830  13.092  0.00  0.00    +0.000 C 
ATOM     18  N   UNL     1      46.301   7.533  12.426  0.00  0.00    +0.000 N 
ATOM     19  C   UNL     1      45.238   7.371  11.519  0.00  0.00    +0.000 C 
ATOM     20  O   UNL     1      44.432   8.277  11.313  0.00  0.00    +0.000 OA
BRANCH  19  21
ATOM     21  C   UNL     1      45.066   6.083  10.839  0.00  0.00    +0.000 A 
ATOM     22  C   UNL     1      45.652   5.753   9.627  0.00  0.00    +0.000 A 
ATOM     23  S   UNL     1      45.323   4.157   9.120  0.00  0.00    +0.000 S 
ATOM     24  C   UNL     1      44.516   3.806  10.574  0.00  0.00    +0.000 A 
ATOM     25  N   UNL     1      44.073   2.552  10.840  0.00  0.00    +0.000 NA
ATOM     26  C   UNL     1      43.543   2.416  12.011  0.00  0.00    +0.000 A 
ATOM     27  N   UNL     1      43.386   3.430  12.920  0.00  0.00    +0.000 N 
ATOM     28  C   UNL     1      43.692   4.748  12.639  0.00  0.00    +0.000 A 
ATOM     29  O   UNL     1      43.308   5.655  13.372  0.00  0.00    +0.000 OA
ATOM     30  C   UNL     1      44.407   4.918  11.390  0.00  0.00    +0.000 A 
ATOM     31  H   UNL     1      42.898   3.269  13.790  0.00  0.00    +0.000 HD
ENDBRANCH  19  21
ENDBRANCH   1  18
TORSDOF 6
ENDMDL
MODEL 4
REMARK VINA RESULT:    -6.588      3.190      7.907
REMARK INTER + INTRA:          -9.860
REMARK INTER:                  -8.749
REMARK INTRA:                  -1.111
REMARK UNBOUND:                -1.154
REMARK  Name = 
REMARK  7 active torsions:
REMARK  status: ('A' for Active; 'I' for Inactive)
REMARK    1  A    between atoms: C_1  and  N_2
REMARK    2  A    between atoms: N_2  and  C_3
REMARK    3  A    between atoms: C_3  and  C_4
REMARK    4  A    between atoms: C_7  and  C_8
REMARK    5  A    between atoms: C_8  and  N_9
REMARK    6  A    between atoms: C_12  and  O_13
REMARK    7  A    between atoms: C_18  and  C_20
REMARK                            x       y       z     vdW  Elec       q    Type
REMARK                         _______ _______ _______ _____ _____    ______ ____
ROOT
ATOM      1  C   UNL     1      49.344   8.306  16.129  0.00  0.00    +0.000 C 
ENDROOT
BRANCH   1   2
ATOM      2  C   UNL     1      48.534   7.853  14.942  0.00  0.00    +0.000 A 
ATOM      3  C   UNL     1      48.729   6.578  14.389  0.00  0.00    +0.000 A 
ATOM      4  C   UNL     1      48.021   6.180  13.253  0.00  0.00    +0.000 A 
ATOM      5  C   UNL     1      47.104   7.050  12.651  0.00  0.00    +0.000 A 
ATOM      6  C   UNL     1      46.901   8.317  13.222  0.00  0.00    +0.000 A 
ATOM      7  C   UNL     1      47.605   8.715  14.353  0.00  0.00    +0.000 A 
BRANCH   5   8
ATOM      8  C   UNL     1      46.359   6.657  11.389  0.00  0.00    +0.000 C 
BRANCH   8   9
ATOM      9  N   UNL     1      45.113   5.890  11.562  0.00  0.00    +0.000 NA
ATOM     10  C   UNL     1      44.836   5.548  12.961  0.00  0.00    +0.000 C 
ATOM     11  C   UNL     1      43.492   4.841  13.132  0.00  0.00    +0.000 C 
ATOM     12  C   UNL     1      43.358   3.645  12.198  0.00  0.00    +0.000 C 
ATOM     13  C   UNL     1      43.660   4.051  10.760  0.00  0.00    +0.000 C 
ATOM     14  C   UNL     1      45.011   4.759  10.642  0.00  0.00    +0.000 C 
BRANCH  12  15
ATOM     15  O   UNL     1      44.215   2.580  12.610  0.00  0.00    +0.000 OA
ATOM     16  H   UNL     1      43.763   1.736  12.449  0.00  0.00    +0.000 HD
ENDBRANCH  12  15
ENDBRANCH   8   9
ENDBRANCH   5   8
ENDBRANCH   1   2
BRANCH   1  18
ATOM     17  C   UNL     1      47.719   9.214  17.844  0.00  0.00    +0.000 C 
ATOM     18  N   UNL     1      48.701   8.210  17.446  0.00  0.00    +0.000 N 
ATOM     19  C   UNL     1      48.780   7.065  18.258  0.00  0.00    +0.000 C 
ATOM     20  O   UNL     1      48.059   6.933  19.246  0.00  0.00    +0.000 OA
BRANCH  19  21
ATOM     21  C   UNL     1      49.771   6.029  17.943  0.00  0.00    +0.000 A 
ATOM     22  C   UNL     1      51.126   6.134  18.216  0.00  0.00    +0.000 A 
ATOM     23  S   UNL     1      52.018   4.740  17.797  0.00  0.00    +0.000 S 
ATOM     24  C   UNL     1      50.601   3.896  17.381  0.00  0.00    +0.000 A 
ATOM     25  N   UNL     1      50.647   2.585  17.039  0.00  0.00    +0.000 NA
ATOM     26  C   UNL     1      49.489   2.056  16.817  0.00  0.00    +0.000 A 
ATOM     27  N   UNL     1      48.297   2.731  16.875  0.00  0.00    +0.000 N 
ATOM     28  C   UNL     1      48.214   4.096  17.080  0.00  0.00    +0.000 A 
ATOM     29  O   UNL     1      47.166   4.701  16.875  0.00  0.00    +0.000 OA
ATOM     30  C   UNL     1      49.476   4.698  17.460  0.00  0.00    +0.000 A 
ATOM     31  H   UNL     1      47.433   2.273  16.620  0.00  0.00    +0.000 HD
ENDBRANCH  19  21
ENDBRANCH   1  18
TORSDOF 6
ENDMDL
MODEL 5
REMARK VINA RESULT:    -6.547      2.938      7.902
REMARK INTER + INTRA:          -9.807
REMARK INTER:                  -8.917
REMARK INTRA:                  -0.890
REMARK UNBOUND:                -1.154
REMARK  Name = 
REMARK  7 active torsions:
REMARK  status: ('A' for Active; 'I' for Inactive)
REMARK    1  A    between atoms: C_1  and  N_2
REMARK    2  A    between atoms: N_2  and  C_3
REMARK    3  A    between atoms: C_3  and  C_4
REMARK    4  A    between atoms: C_7  and  C_8
REMARK    5  A    between atoms: C_8  and  N_9
REMARK    6  A    between atoms: C_12  and  O_13
REMARK    7  A    between atoms: C_18  and  C_20
REMARK                            x       y       z     vdW  Elec       q    Type
REMARK                         _______ _______ _______ _____ _____    ______ ____
ROOT
ATOM      1  C   UNL     1      49.719   7.376  15.204  0.00  0.00    +0.000 C 
ENDROOT
BRANCH   1   2
ATOM      2  C   UNL     1      48.590   7.386  14.206  0.00  0.00    +0.000 A 
ATOM      3  C   UNL     1      47.648   8.425  14.204  0.00  0.00    +0.000 A 
ATOM      4  C   UNL     1      46.569   8.405  13.318  0.00  0.00    +0.000 A 
ATOM      5  C   UNL     1      46.414   7.344  12.417  0.00  0.00    +0.000 A 
ATOM      6  C   UNL     1      47.372   6.318  12.412  0.00  0.00    +0.000 A 
ATOM      7  C   UNL     1      48.448   6.336  13.294  0.00  0.00    +0.000 A 
BRANCH   5   8
ATOM      8  C   UNL     1      45.224   7.278  11.478  0.00  0.00    +0.000 C 
BRANCH   8   9
ATOM      9  N   UNL     1      44.352   6.097  11.591  0.00  0.00    +0.000 NA
ATOM     10  C   UNL     1      44.165   5.647  12.974  0.00  0.00    +0.000 C 
ATOM     11  C   UNL     1      43.179   4.484  13.081  0.00  0.00    +0.000 C 
ATOM     12  C   UNL     1      43.543   3.344  12.138  0.00  0.00    +0.000 C 
ATOM     13  C   UNL     1      43.731   3.863  10.717  0.00  0.00    +0.000 C 
ATOM     14  C   UNL     1      44.721   5.028  10.664  0.00  0.00    +0.000 C 
BRANCH  12  15
ATOM     15  O   UNL     1      44.720   2.671  12.587  0.00  0.00    +0.000 OA
ATOM     16  H   UNL     1      44.770   1.805  12.149  0.00  0.00    +0.000 HD
ENDBRANCH  12  15
ENDBRANCH   8   9
ENDBRANCH   5   8
ENDBRANCH   1   2
BRANCH   1  18
ATOM     17  C   UNL     1      49.514   9.276  16.864  0.00  0.00    +0.000 C 
ATOM     18  N   UNL     1      49.411   7.852  16.559  0.00  0.00    +0.000 N 
ATOM     19  C   UNL     1      48.772   7.057  17.527  0.00  0.00    +0.000 C 
ATOM     20  O   UNL     1      48.335   7.546  18.567  0.00  0.00    +0.000 OA
BRANCH  19  21
ATOM     21  C   UNL     1      48.663   5.610  17.308  0.00  0.00    +0.000 A 
ATOM     22  C   UNL     1      47.561   4.984  16.745  0.00  0.00    +0.000 A 
ATOM     23  S   UNL     1      47.754   3.299  16.556  0.00  0.00    +0.000 S 
ATOM     24  C   UNL     1      49.372   3.374  17.075  0.00  0.00    +0.000 A 
ATOM     25  N   UNL     1      50.164   2.274  17.044  0.00  0.00    +0.000 NA
ATOM     26  C   UNL     1      51.388   2.494  17.399  0.00  0.00    +0.000 A 
ATOM     27  N   UNL     1      51.874   3.707  17.815  0.00  0.00    +0.000 N 
ATOM     28  C   UNL     1      51.073   4.818  17.997  0.00  0.00    +0.000 A 
ATOM     29  O   UNL     1      51.487   5.802  18.604  0.00  0.00    +0.000 OA
ATOM     30  C   UNL     1      49.727   4.646  17.487  0.00  0.00    +0.000 A 
ATOM     31  H   UNL     1      52.825   3.793  18.147  0.00  0.00    +0.000 HD
ENDBRANCH  19  21
ENDBRANCH   1  18
TORSDOF 6
ENDMDL
MODEL 6
REMARK VINA RESULT:    -6.282      3.006      8.444
REMARK INTER + INTRA:          -9.456
REMARK INTER:                  -8.337
REMARK INTRA:                  -1.119
REMARK UNBOUND:                -1.154
REMARK  Name = 
REMARK  7 active torsions:
REMARK  status: ('A' for Active; 'I' for Inactive)
REMARK    1  A    between atoms: C_1  and  N_2
REMARK    2  A    between atoms: N_2  and  C_3
REMARK    3  A    between atoms: C_3  and  C_4
REMARK    4  A    between atoms: C_7  and  C_8
REMARK    5  A    between atoms: C_8  and  N_9
REMARK    6  A    between atoms: C_12  and  O_13
REMARK    7  A    between atoms: C_18  and  C_20
REMARK                            x       y       z     vdW  Elec       q    Type
REMARK                         _______ _______ _______ _____ _____    ______ ____
ROOT
ATOM      1  C   UNL     1      49.160   8.435  15.232  0.00  0.00    +0.000 C 
ENDROOT
BRANCH   1   2
ATOM      2  C   UNL     1      48.143   8.007  14.207  0.00  0.00    +0.000 A 
ATOM      3  C   UNL     1      48.343   6.847  13.443  0.00  0.00    +0.000 A 
ATOM      4  C   UNL     1      47.430   6.481  12.451  0.00  0.00    +0.000 A 
ATOM      5  C   UNL     1      46.299   7.270  12.207  0.00  0.00    +0.000 A 
ATOM      6  C   UNL     1      46.095   8.418  12.989  0.00  0.00    +0.000 A 
ATOM      7  C   UNL     1      47.004   8.784  13.977  0.00  0.00    +0.000 A 
BRANCH   5   8
ATOM      8  C   UNL     1      45.319   6.918  11.104  0.00  0.00    +0.000 C 
BRANCH   8   9
ATOM      9  N   UNL     1      44.450   5.750  11.332  0.00  0.00    +0.000 NA
ATOM     10  C   UNL     1      44.252   5.446  12.753  0.00  0.00    +0.000 C 
ATOM     11  C   UNL     1      43.270   4.295  12.970  0.00  0.00    +0.000 C 
ATOM     12  C   UNL     1      43.650   3.065  12.155  0.00  0.00    +0.000 C 
ATOM     13  C   UNL     1      43.850   3.434  10.690  0.00  0.00    +0.000 C 
ATOM     14  C   UNL     1      44.835   4.592  10.525  0.00  0.00    +0.000 C 
BRANCH  12  15
ATOM     15  O   UNL     1      44.825   2.449  12.684  0.00  0.00    +0.000 OA
ATOM     16  H   UNL     1      45.494   2.402  11.981  0.00  0.00    +0.000 HD
ENDBRANCH  12  15
ENDBRANCH   8   9
ENDBRANCH   5   8
ENDBRANCH   1   2
BRANCH   1  18
ATOM     17  C   UNL     1      51.581   8.018  14.624  0.00  0.00    +0.000 C 
ATOM     18  N   UNL     1      50.375   7.619  15.343  0.00  0.00    +0.000 N 
ATOM     19  C   UNL     1      50.535   6.606  16.305  0.00  0.00    +0.000 C 
ATOM     20  O   UNL     1      51.633   6.093  16.514  0.00  0.00    +0.000 OA
BRANCH  19  21
ATOM     21  C   UNL     1      49.360   6.124  17.042  0.00  0.00    +0.000 A 
ATOM     22  C   UNL     1      48.621   5.005  16.691  0.00  0.00    +0.000 A 
ATOM     23  S   UNL     1      47.352   4.655  17.778  0.00  0.00    +0.000 S 
ATOM     24  C   UNL     1      47.846   5.893  18.833  0.00  0.00    +0.000 A 
ATOM     25  N   UNL     1      47.241   6.066  20.035  0.00  0.00    +0.000 NA
ATOM     26  C   UNL     1      47.766   6.998  20.761  0.00  0.00    +0.000 A 
ATOM     27  N   UNL     1      48.816   7.791  20.375  0.00  0.00    +0.000 N 
ATOM     28  C   UNL     1      49.369   7.747  19.109  0.00  0.00    +0.000 A 
ATOM     29  O   UNL     1      50.125   8.632  18.720  0.00  0.00    +0.000 OA
ATOM     30  C   UNL     1      48.896   6.631  18.315  0.00  0.00    +0.000 A 
ATOM     31  H   UNL     1      49.130   8.549  20.964  0.00  0.00    +0.000 HD
ENDBRANCH  19  21
ENDBRANCH   1  18
TORSDOF 6
ENDMDL
MODEL 7
REMARK VINA RESULT:    -5.947      3.600      8.199
REMARK INTER + INTRA:          -9.013
REMARK INTER:                  -7.728
REMARK INTRA:                  -1.285
REMARK UNBOUND:                -1.154
REMARK  Name = 
REMARK  7 active torsions:
REMARK  status: ('A' for Active; 'I' for Inactive)
REMARK    1  A    between atoms: C_1  and  N_2
REMARK    2  A    between atoms: N_2  and  C_3
REMARK    3  A    between atoms: C_3  and  C_4
REMARK    4  A    between atoms: C_7  and  C_8
REMARK    5  A    between atoms: C_8  and  N_9
REMARK    6  A    between atoms: C_12  and  O_13
REMARK    7  A    between atoms: C_18  and  C_20
REMARK                            x       y       z     vdW  Elec       q    Type
REMARK                         _______ _______ _______ _____ _____    ______ ____
ROOT
ATOM      1  C   UNL     1      50.154   7.805  12.122  0.00  0.00    +0.000 C 
ENDROOT
BRANCH   1   2
ATOM      2  C   UNL     1      48.716   7.431  12.372  0.00  0.00    +0.000 A 
ATOM      3  C   UNL     1      48.392   6.216  12.995  0.00  0.00    +0.000 A 
ATOM      4  C   UNL     1      47.059   5.842  13.174  0.00  0.00    +0.000 A 
ATOM      5  C   UNL     1      46.025   6.679  12.734  0.00  0.00    +0.000 A 
ATOM      6  C   UNL     1      46.358   7.902  12.129  0.00  0.00    +0.000 A 
ATOM      7  C   UNL     1      47.686   8.276  11.950  0.00  0.00    +0.000 A 
BRANCH   5   8
ATOM      8  C   UNL     1      44.571   6.272  12.876  0.00  0.00    +0.000 C 
BRANCH   8   9
ATOM      9  N   UNL     1      44.071   5.249  11.942  0.00  0.00    +0.000 NA
ATOM     10  C   UNL     1      44.007   3.908  12.533  0.00  0.00    +0.000 C 
ATOM     11  C   UNL     1      43.394   2.881  11.583  0.00  0.00    +0.000 C 
ATOM     12  C   UNL     1      44.078   2.889  10.221  0.00  0.00    +0.000 C 
ATOM     13  C   UNL     1      44.123   4.302   9.653  0.00  0.00    +0.000 C 
ATOM     14  C   UNL     1      44.739   5.293  10.642  0.00  0.00    +0.000 C 
BRANCH  12  15
ATOM     15  O   UNL     1      45.394   2.341  10.311  0.00  0.00    +0.000 OA
ATOM     16  H   UNL     1      45.341   1.474  10.747  0.00  0.00    +0.000 HD
ENDBRANCH  12  15
ENDBRANCH   8   9
ENDBRANCH   5   8
ENDBRANCH   1   2
BRANCH   1  18
ATOM     17  C   UNL     1      50.510  10.265  11.641  0.00  0.00    +0.000 C 
ATOM     18  N   UNL     1      50.580   9.138  12.567  0.00  0.00    +0.000 N 
ATOM     19  C   UNL     1      50.816   9.459  13.915  0.00  0.00    +0.000 C 
ATOM     20  O   UNL     1      50.957  10.626  14.277  0.00  0.00    +0.000 OA
BRANCH  19  21
ATOM     21  C   UNL     1      50.937   8.378  14.899  0.00  0.00    +0.000 A 
ATOM     22  C   UNL     1      52.106   7.677  15.151  0.00  0.00    +0.000 A 
ATOM     23  S   UNL     1      51.957   6.523  16.400  0.00  0.00    +0.000 S 
ATOM     24  C   UNL     1      50.371   7.029  16.748  0.00  0.00    +0.000 A 
ATOM     25  N   UNL     1      49.692   6.515  17.803  0.00  0.00    +0.000 NA
ATOM     26  C   UNL     1      48.527   7.044  17.990  0.00  0.00    +0.000 A 
ATOM     27  N   UNL     1      47.972   8.012  17.193  0.00  0.00    +0.000 N 
ATOM     28  C   UNL     1      48.566   8.462  16.029  0.00  0.00    +0.000 A 
ATOM     29  O   UNL     1      47.934   9.133  15.218  0.00  0.00    +0.000 OA
ATOM     30  C   UNL     1      49.925   7.990  15.858  0.00  0.00    +0.000 A 
ATOM     31  H   UNL     1      47.026   8.330  17.354  0.00  0.00    +0.000 HD
ENDBRANCH  19  21
ENDBRANCH   1  18
TORSDOF 6
ENDMDL
MODEL 8
REMARK VINA RESULT:    -5.667      3.516      8.369
REMARK INTER + INTRA:          -8.643
REMARK INTER:                  -7.398
REMARK INTRA:                  -1.245
REMARK UNBOUND:                -1.154
REMARK  Name = 
REMARK  7 active torsions:
REMARK  status: ('A' for Active; 'I' for Inactive)
REMARK    1  A    between atoms: C_1  and  N_2
REMARK    2  A    between atoms: N_2  and  C_3
REMARK    3  A    between atoms: C_3  and  C_4
REMARK    4  A    between atoms: C_7  and  C_8
REMARK    5  A    between atoms: C_8  and  N_9
REMARK    6  A    between atoms: C_12  and  O_13
REMARK    7  A    between atoms: C_18  and  C_20
REMARK                            x       y       z     vdW  Elec       q    Type
REMARK                         _______ _______ _______ _____ _____    ______ ____
ROOT
ATOM      1  C   UNL     1      50.088   9.067  15.058  0.00  0.00    +0.000 C 
ENDROOT
BRANCH   1   2
ATOM      2  C   UNL     1      49.159   8.410  14.072  0.00  0.00    +0.000 A 
ATOM      3  C   UNL     1      49.013   7.015  14.046  0.00  0.00    +0.000 A 
ATOM      4  C   UNL     1      48.197   6.401  13.094  0.00  0.00    +0.000 A 
ATOM      5  C   UNL     1      47.509   7.174  12.150  0.00  0.00    +0.000 A 
ATOM      6  C   UNL     1      47.644   8.571  12.194  0.00  0.00    +0.000 A 
ATOM      7  C   UNL     1      48.457   9.184  13.142  0.00  0.00    +0.000 A 
BRANCH   5   8
ATOM      8  C   UNL     1      46.655   6.527  11.077  0.00  0.00    +0.000 C 
BRANCH   8   9
ATOM      9  N   UNL     1      45.541   5.678  11.533  0.00  0.00    +0.000 NA
ATOM     10  C   UNL     1      44.766   5.100  10.431  0.00  0.00    +0.000 C 
ATOM     11  C   UNL     1      43.678   4.146  10.922  0.00  0.00    +0.000 C 
ATOM     12  C   UNL     1      42.796   4.790  11.984  0.00  0.00    +0.000 C 
ATOM     13  C   UNL     1      43.647   5.379  13.103  0.00  0.00    +0.000 C 
ATOM     14  C   UNL     1      44.723   6.322  12.561  0.00  0.00    +0.000 C 
BRANCH  12  15
ATOM     15  O   UNL     1      41.958   5.792  11.408  0.00  0.00    +0.000 OA
ATOM     16  H   UNL     1      42.201   5.901  10.474  0.00  0.00    +0.000 HD
ENDBRANCH  12  15
ENDBRANCH   8   9
ENDBRANCH   5   8
ENDBRANCH   1   2
BRANCH   1  18
ATOM     17  C   UNL     1      52.435   8.225  14.623  0.00  0.00    +0.000 C 
ATOM     18  N   UNL     1      51.259   8.291  15.485  0.00  0.00    +0.000 N 
ATOM     19  C   UNL     1      51.424   7.807  16.795  0.00  0.00    +0.000 C 
ATOM     20  O   UNL     1      52.502   7.354  17.176  0.00  0.00    +0.000 OA
BRANCH  19  21
ATOM     21  C   UNL     1      50.276   7.804  17.708  0.00  0.00    +0.000 A 
ATOM     22  C   UNL     1      49.868   8.899  18.456  0.00  0.00    +0.000 A 
ATOM     23  S   UNL     1      48.459   8.613  19.375  0.00  0.00    +0.000 S 
ATOM     24  C   UNL     1      48.260   7.071  18.686  0.00  0.00    +0.000 A 
ATOM     25  N   UNL     1      47.164   6.321  18.963  0.00  0.00    +0.000 NA
ATOM     26  C   UNL     1      47.112   5.204  18.314  0.00  0.00    +0.000 A 
ATOM     27  N   UNL     1      48.074   4.759  17.445  0.00  0.00    +0.000 N 
ATOM     28  C   UNL     1      49.270   5.421  17.242  0.00  0.00    +0.000 A 
ATOM     29  O   UNL     1      50.203   4.874  16.660  0.00  0.00    +0.000 OA
ATOM     30  C   UNL     1      49.309   6.737  17.848  0.00  0.00    +0.000 A 
ATOM     31  H   UNL     1      48.004   3.842  17.026  0.00  0.00    +0.000 HD
ENDBRANCH  19  21
ENDBRANCH   1  18
TORSDOF 6
ENDMDL
MODEL 9
REMARK VINA RESULT:    -5.332      3.292      8.160
REMARK INTER + INTRA:          -8.201
REMARK INTER:                  -6.799
REMARK INTRA:                  -1.401
REMARK UNBOUND:                -1.154
REMARK  Name = 
REMARK  7 active torsions:
REMARK  status: ('A' for Active; 'I' for Inactive)
REMARK    1  A    between atoms: C_1  and  N_2
REMARK    2  A    between atoms: N_2  and  C_3
REMARK    3  A    between atoms: C_3  and  C_4
REMARK    4  A    between atoms: C_7  and  C_8
REMARK    5  A    between atoms: C_8  and  N_9
REMARK    6  A    between atoms: C_12  and  O_13
REMARK    7  A    between atoms: C_18  and  C_20
REMARK                            x       y       z     vdW  Elec       q    Type
REMARK                         _______ _______ _______ _____ _____    ______ ____
ROOT
ATOM      1  C   UNL     1      50.934   8.377  17.979  0.00  0.00    +0.000 C 
ENDROOT
BRANCH   1   2
ATOM      2  C   UNL     1      50.189   8.221  16.679  0.00  0.00    +0.000 A 
ATOM      3  C   UNL     1      50.714   7.434  15.644  0.00  0.00    +0.000 A 
ATOM      4  C   UNL     1      50.053   7.337  14.418  0.00  0.00    +0.000 A 
ATOM      5  C   UNL     1      48.852   8.026  14.206  0.00  0.00    +0.000 A 
ATOM      6  C   UNL     1      48.323   8.797  15.254  0.00  0.00    +0.000 A 
ATOM      7  C   UNL     1      48.980   8.895  16.476  0.00  0.00    +0.000 A 
BRANCH   5   8
ATOM      8  C   UNL     1      48.141   7.974  12.867  0.00  0.00    +0.000 C 
BRANCH   8   9
ATOM      9  N   UNL     1      47.290   6.800  12.610  0.00  0.00    +0.000 NA
ATOM     10  C   UNL     1      46.183   7.080  11.690  0.00  0.00    +0.000 C 
ATOM     11  C   UNL     1      45.371   5.829  11.358  0.00  0.00    +0.000 C 
ATOM     12  C   UNL     1      44.918   5.097  12.615  0.00  0.00    +0.000 C 
ATOM     13  C   UNL     1      46.101   4.835  13.539  0.00  0.00    +0.000 C 
ATOM     14  C   UNL     1      46.884   6.115  13.836  0.00  0.00    +0.000 C 
BRANCH  12  15
ATOM     15  O   UNL     1      43.904   5.838  13.294  0.00  0.00    +0.000 OA
ATOM     16  H   UNL     1      43.970   6.770  13.031  0.00  0.00    +0.000 HD
ENDBRANCH  12  15
ENDBRANCH   8   9
ENDBRANCH   5   8
ENDBRANCH   1   2
BRANCH   1  18
ATOM     17  C   UNL     1      53.261   7.405  18.198  0.00  0.00    +0.000 C 
ATOM     18  N   UNL     1      51.818   7.272  18.373  0.00  0.00    +0.000 N 
ATOM     19  C   UNL     1      51.387   6.182  19.150  0.00  0.00    +0.000 C 
ATOM     20  O   UNL     1      52.192   5.393  19.643  0.00  0.00    +0.000 OA
BRANCH  19  21
ATOM     21  C   UNL     1      49.949   5.961  19.339  0.00  0.00    +0.000 A 
ATOM     22  C   UNL     1      49.176   6.608  20.292  0.00  0.00    +0.000 A 
ATOM     23  S   UNL     1      47.522   6.193  20.227  0.00  0.00    +0.000 S 
ATOM     24  C   UNL     1      47.759   5.256  18.828  0.00  0.00    +0.000 A 
ATOM     25  N   UNL     1      46.707   4.699  18.178  0.00  0.00    +0.000 NA
ATOM     26  C   UNL     1      47.028   4.075  17.092  0.00  0.00    +0.000 A 
ATOM     27  N   UNL     1      48.309   3.931  16.623  0.00  0.00    +0.000 N 
ATOM     28  C   UNL     1      49.421   4.358  17.325  0.00  0.00    +0.000 A 
ATOM     29  O   UNL     1      50.548   3.993  17.003  0.00  0.00    +0.000 OA
ATOM     30  C   UNL     1      49.094   5.174  18.477  0.00  0.00    +0.000 A 
ATOM     31  H   UNL     1      48.496   3.369  15.804  0.00  0.00    +0.000 HD
ENDBRANCH  19  21
ENDBRANCH   1  18
TORSDOF 6
ENDMDL
