MODEL 1
REMARK VINA RESULT:    -8.647      0.000      0.000
REMARK INTER + INTRA:         -12.357
REMARK INTER:                 -11.428
REMARK INTRA:                  -0.930
REMARK UNBOUND:                -0.930
REMARK  Name = 
REMARK  6 active torsions:
REMARK  status: ('A' for Active; 'I' for Inactive)
REMARK    1  A    between atoms: N_1  and  C_2
REMARK    2  A    between atoms: C_2  and  N_3
REMARK    3  A    between atoms: C_2  and  C_16
REMARK    4  A    between atoms: C_4  and  C_6
REMARK    5  A    between atoms: C_19  and  C_20
REMARK    6  A    between atoms: C_20  and  N_21
REMARK                            x       y       z     vdW  Elec       q    Type
REMARK                         _______ _______ _______ _____ _____    ______ ____
ROOT
ATOM      1  C   UNL     1      47.028   7.731  13.231  0.00  0.00    +0.000 C 
ENDROOT
BRANCH   1   2
ATOM      2  C   UNL     1      46.237   6.831  12.302  0.00  0.00    +0.000 A 
ATOM      3  C   UNL     1      45.137   6.134  12.832  0.00  0.00    +0.000 A 
ATOM      4  C   UNL     1      44.392   5.253  12.047  0.00  0.00    +0.000 A 
ATOM      5  C   UNL     1      44.735   5.039  10.708  0.00  0.00    +0.000 A 
ATOM      6  C   UNL     1      45.794   5.767  10.154  0.00  0.00    +0.000 A 
ATOM      7  C   UNL     1      46.540   6.651  10.944  0.00  0.00    +0.000 A 
BRANCH   5   8
ATOM      8  C   UNL     1      43.989   4.008   9.895  0.00  0.00    +0.000 C 
BRANCH   8   9
ATOM      9  N   UNL     1      44.249   4.181   8.481  0.00  0.00    +0.000 N 
ATOM     10  C   UNL     1      45.244   3.327   8.022  0.00  0.00    +0.000 A 
ATOM     11  N   UNL     1      45.392   2.113   8.574  0.00  0.00    +0.000 NA
ATOM     12  C   UNL     1      46.386   1.336   8.113  0.00  0.00    +0.000 A 
ATOM     13  C   UNL     1      47.244   1.724   7.119  0.00  0.00    +0.000 A 
ATOM     14  C   UNL     1      47.014   2.980   6.610  0.00  0.00    +0.000 A 
ATOM     15  N   UNL     1      46.035   3.799   7.047  0.00  0.00    +0.000 NA
ATOM     16  H   UNL     1      44.503   5.117   8.195  0.00  0.00    +0.000 HD
ENDBRANCH   8   9
ENDBRANCH   5   8
ENDBRANCH   1   2
BRANCH   1  17
ATOM     17  N   UNL     1      47.431   7.133  14.460  0.00  0.00    +0.000 N 
ATOM     18  C   UNL     1      48.720   6.721  14.671  0.00  0.00    +0.000 C 
ATOM     19  O   UNL     1      49.601   6.840  13.825  0.00  0.00    +0.000 OA
ATOM     20  H   UNL     1      46.694   6.790  15.062  0.00  0.00    +0.000 HD
BRANCH  18  21
ATOM     21  C   UNL     1      49.021   6.199  16.011  0.00  0.00    +0.000 A 
ATOM     22  C   UNL     1      49.964   6.847  16.797  0.00  0.00    +0.000 A 
ATOM     23  S   UNL     1      50.166   6.149  18.339  0.00  0.00    +0.000 S 
ATOM     24  C   UNL     1      49.037   4.924  17.991  0.00  0.00    +0.000 A 
ATOM     25  N   UNL     1      48.762   3.954  18.901  0.00  0.00    +0.000 NA
ATOM     26  C   UNL     1      47.913   3.066  18.495  0.00  0.00    +0.000 A 
ATOM     27  N   UNL     1      47.306   3.073  17.266  0.00  0.00    +0.000 N 
ATOM     28  C   UNL     1      47.516   4.065  16.337  0.00  0.00    +0.000 A 
ATOM     29  O   UNL     1      46.895   4.092  15.278  0.00  0.00    +0.000 OA
ATOM     30  C   UNL     1      48.490   5.064  16.728  0.00  0.00    +0.000 A 
ATOM     31  H   UNL     1      46.638   2.360  17.017  0.00  0.00    +0.000 HD
ENDBRANCH  18  21
ENDBRANCH   1  17
BRANCH   1  32
ATOM     32  N   UNL     1      46.216   8.844  13.680  0.00  0.00    +0.000 NA
ATOM     33  H   UNL     1      45.654   9.150  12.891  0.00  0.00    +0.000 HD
ATOM     34  H   UNL     1      46.836   9.613  13.921  0.00  0.00    +0.000 HD
ENDBRANCH   1  32
TORSDOF 6
ENDMDL
MODEL 2
REMARK VINA RESULT:    -8.350      1.627      1.883
REMARK INTER + INTRA:         -11.964
REMARK INTER:                 -10.975
REMARK INTRA:                  -0.989
REMARK UNBOUND:                -0.930
REMARK  Name = 
REMARK  6 active torsions:
REMARK  status: ('A' for Active; 'I' for Inactive)
REMARK    1  A    between atoms: N_1  and  C_2
REMARK    2  A    between atoms: C_2  and  N_3
REMARK    3  A    between atoms: C_2  and  C_16
REMARK    4  A    between atoms: C_4  and  C_6
REMARK    5  A    between atoms: C_19  and  C_20
REMARK    6  A    between atoms: C_20  and  N_21
REMARK                            x       y       z     vdW  Elec       q    Type
REMARK                         _______ _______ _______ _____ _____    ______ ____
ROOT
ATOM      1  C   UNL     1      48.248   6.443  13.708  0.00  0.00    +0.000 C 
ENDROOT
BRANCH   1   2
ATOM      2  C   UNL     1      47.056   5.974  12.897  0.00  0.00    +0.000 A 
ATOM      3  C   UNL     1      46.453   4.754  13.250  0.00  0.00    +0.000 A 
ATOM      4  C   UNL     1      45.383   4.238  12.519  0.00  0.00    +0.000 A 
ATOM      5  C   UNL     1      44.890   4.929  11.407  0.00  0.00    +0.000 A 
ATOM      6  C   UNL     1      45.446   6.170  11.078  0.00  0.00    +0.000 A 
ATOM      7  C   UNL     1      46.521   6.686  11.814  0.00  0.00    +0.000 A 
BRANCH   5   8
ATOM      8  C   UNL     1      43.800   4.316  10.561  0.00  0.00    +0.000 C 
BRANCH   8   9
ATOM      9  N   UNL     1      44.024   4.586   9.157  0.00  0.00    +0.000 N 
ATOM     10  C   UNL     1      44.921   3.693   8.585  0.00  0.00    +0.000 A 
ATOM     11  N   UNL     1      44.978   2.427   9.029  0.00  0.00    +0.000 NA
ATOM     12  C   UNL     1      45.881   1.609   8.462  0.00  0.00    +0.000 A 
ATOM     13  C   UNL     1      46.734   2.007   7.467  0.00  0.00    +0.000 A 
ATOM     14  C   UNL     1      46.601   3.316   7.074  0.00  0.00    +0.000 A 
ATOM     15  N   UNL     1      45.715   4.176   7.620  0.00  0.00    +0.000 NA
ATOM     16  H   UNL     1      44.350   5.519   8.938  0.00  0.00    +0.000 HD
ENDBRANCH   8   9
ENDBRANCH   5   8
ENDBRANCH   1   2
BRANCH   1  17
ATOM     17  N   UNL     1      48.025   6.552  15.111  0.00  0.00    +0.000 N 
ATOM     18  C   UNL     1      49.061   6.547  16.008  0.00  0.00    +0.000 C 
ATOM     19  O   UNL     1      50.235   6.450  15.665  0.00  0.00    +0.000 OA
ATOM     20  H   UNL     1      47.084   6.374  15.437  0.00  0.00    +0.000 HD
BRANCH  18  21
ATOM     21  C   UNL     1      48.697   6.751  17.417  0.00  0.00    +0.000 A 
ATOM     22  C   UNL     1      48.359   8.025  17.854  0.00  0.00    +0.000 A 
ATOM     23  S   UNL     1      47.917   8.089  19.499  0.00  0.00    +0.000 S 
ATOM     24  C   UNL     1      48.212   6.425  19.698  0.00  0.00    +0.000 A 
ATOM     25  N   UNL     1      48.054   5.831  20.910  0.00  0.00    +0.000 NA
ATOM     26  C   UNL     1      48.346   4.572  20.929  0.00  0.00    +0.000 A 
ATOM     27  N   UNL     1      48.767   3.852  19.841  0.00  0.00    +0.000 N 
ATOM     28  C   UNL     1      48.889   4.401  18.587  0.00  0.00    +0.000 A 
ATOM     29  O   UNL     1      49.187   3.715  17.613  0.00  0.00    +0.000 OA
ATOM     30  C   UNL     1      48.612   5.823  18.518  0.00  0.00    +0.000 A 
ATOM     31  H   UNL     1      48.962   2.866  19.919  0.00  0.00    +0.000 HD
ENDBRANCH  18  21
ENDBRANCH   1  17
BRANCH   1  32
ATOM     32  N   UNL     1      48.614   7.798  13.347  0.00  0.00    +0.000 NA
ATOM     33  H   UNL     1      47.972   8.425  13.822  0.00  0.00    +0.000 HD
ATOM     34  H   UNL     1      48.460   7.913  12.348  0.00  0.00    +0.000 HD
ENDBRANCH   1  32
TORSDOF 6
ENDMDL
MODEL 3
REMARK VINA RESULT:    -8.296      1.884      2.412
REMARK INTER + INTRA:         -11.893
REMARK INTER:                 -11.013
REMARK INTRA:                  -0.880
REMARK UNBOUND:                -0.930
REMARK  Name = 
REMARK  6 active torsions:
REMARK  status: ('A' for Active; 'I' for Inactive)
REMARK    1  A    between atoms: N_1  and  C_2
REMARK    2  A    between atoms: C_2  and  N_3
REMARK    3  A    between atoms: C_2  and  C_16
REMARK    4  A    between atoms: C_4  and  C_6
REMARK    5  A    between atoms: C_19  and  C_20
REMARK    6  A    between atoms: C_20  and  N_21
REMARK                            x       y       z     vdW  Elec       q    Type
REMARK                         _______ _______ _______ _____ _____    ______ ____
ROOT
ATOM      1  C   UNL     1      47.651   6.474  13.770  0.00  0.00    +0.000 C 
ENDROOT
BRANCH   1   2
ATOM      2  C   UNL     1      46.724   5.774  12.796  0.00  0.00    +0.000 A 
ATOM      3  C   UNL     1      46.467   6.399  11.562  0.00  0.00    +0.000 A 
ATOM      4  C   UNL     1      45.587   5.836  10.637  0.00  0.00    +0.000 A 
ATOM      5  C   UNL     1      44.936   4.632  10.925  0.00  0.00    +0.000 A 
ATOM      6  C   UNL     1      45.226   3.974  12.125  0.00  0.00    +0.000 A 
ATOM      7  C   UNL     1      46.109   4.541  13.053  0.00  0.00    +0.000 A 
BRANCH   5   8
ATOM      8  C   UNL     1      43.910   4.082   9.963  0.00  0.00    +0.000 C 
BRANCH   8   9
ATOM      9  N   UNL     1      44.292   4.351   8.593  0.00  0.00    +0.000 N 
ATOM     10  C   UNL     1      45.264   3.470   8.136  0.00  0.00    +0.000 A 
ATOM     11  N   UNL     1      45.289   2.207   8.590  0.00  0.00    +0.000 NA
ATOM     12  C   UNL     1      46.265   1.402   8.138  0.00  0.00    +0.000 A 
ATOM     13  C   UNL     1      47.222   1.809   7.248  0.00  0.00    +0.000 A 
ATOM     14  C   UNL     1      47.115   3.115   6.834  0.00  0.00    +0.000 A 
ATOM     15  N   UNL     1      46.159   3.962   7.268  0.00  0.00    +0.000 NA
ATOM     16  H   UNL     1      44.627   5.288   8.409  0.00  0.00    +0.000 HD
ENDBRANCH   8   9
ENDBRANCH   5   8
ENDBRANCH   1   2
BRANCH   1  17
ATOM     17  N   UNL     1      47.673   5.930  15.087  0.00  0.00    +0.000 N 
ATOM     18  C   UNL     1      48.770   6.053  15.898  0.00  0.00    +0.000 C 
ATOM     19  O   UNL     1      49.792   6.634  15.548  0.00  0.00    +0.000 OA
ATOM     20  H   UNL     1      46.968   5.239  15.305  0.00  0.00    +0.000 HD
BRANCH  18  21
ATOM     21  C   UNL     1      48.630   5.520  17.260  0.00  0.00    +0.000 A 
ATOM     22  C   UNL     1      48.850   4.168  17.487  0.00  0.00    +0.000 A 
ATOM     23  S   UNL     1      48.695   3.714  19.122  0.00  0.00    +0.000 S 
ATOM     24  C   UNL     1      48.278   5.300  19.578  0.00  0.00    +0.000 A 
ATOM     25  N   UNL     1      47.980   5.596  20.870  0.00  0.00    +0.000 NA
ATOM     26  C   UNL     1      47.647   6.829  21.072  0.00  0.00    +0.000 A 
ATOM     27  N   UNL     1      47.599   7.793  20.099  0.00  0.00    +0.000 N 
ATOM     28  C   UNL     1      47.944   7.548  18.790  0.00  0.00    +0.000 A 
ATOM     29  O   UNL     1      47.975   8.449  17.957  0.00  0.00    +0.000 OA
ATOM     30  C   UNL     1      48.289   6.170  18.503  0.00  0.00    +0.000 A 
ATOM     31  H   UNL     1      47.348   8.742  20.326  0.00  0.00    +0.000 HD
ENDBRANCH  18  21
ENDBRANCH   1  17
BRANCH   1  32
ATOM     32  N   UNL     1      47.214   7.836  14.006  0.00  0.00    +0.000 NA
ATOM     33  H   UNL     1      46.199   7.844  13.960  0.00  0.00    +0.000 HD
ATOM     34  H   UNL     1      47.552   8.415  13.242  0.00  0.00    +0.000 HD
ENDBRANCH   1  32
TORSDOF 6
ENDMDL
MODEL 4
REMARK VINA RESULT:    -7.927      4.111      9.052
REMARK INTER + INTRA:         -11.405
REMARK INTER:                 -10.818
REMARK INTRA:                  -0.587
REMARK UNBOUND:                -0.930
REMARK  Name = 
REMARK  6 active torsions:
REMARK  status: ('A' for Active; 'I' for Inactive)
REMARK    1  A    between atoms: N_1  and  C_2
REMARK    2  A    between atoms: C_2  and  N_3
REMARK    3  A    between atoms: C_2  and  C_16
REMARK    4  A    between atoms: C_4  and  C_6
REMARK    5  A    between atoms: C_19  and  C_20
REMARK    6  A    between atoms: C_20  and  N_21
REMARK                            x       y       z     vdW  Elec       q    Type
REMARK                         _______ _______ _______ _____ _____    ______ ____
ROOT
ATOM      1  C   UNL     1      47.411   3.199  16.638  0.00  0.00    +0.000 C 
ENDROOT
BRANCH   1   2
ATOM      2  C   UNL     1      48.865   3.353  17.039  0.00  0.00    +0.000 A 
ATOM      3  C   UNL     1      49.725   2.258  16.846  0.00  0.00    +0.000 A 
ATOM      4  C   UNL     1      51.063   2.312  17.235  0.00  0.00    +0.000 A 
ATOM      5  C   UNL     1      51.577   3.465  17.837  0.00  0.00    +0.000 A 
ATOM      6  C   UNL     1      50.746   4.581  17.984  0.00  0.00    +0.000 A 
ATOM      7  C   UNL     1      49.402   4.524  17.593  0.00  0.00    +0.000 A 
BRANCH   5   8
ATOM      8  C   UNL     1      52.998   3.479  18.347  0.00  0.00    +0.000 C 
BRANCH   8   9
ATOM      9  N   UNL     1      53.279   2.289  19.122  0.00  0.00    +0.000 N 
ATOM     10  C   UNL     1      53.876   1.294  18.358  0.00  0.00    +0.000 A 
ATOM     11  N   UNL     1      54.690   1.627  17.344  0.00  0.00    +0.000 NA
ATOM     12  C   UNL     1      55.220   0.628  16.618  0.00  0.00    +0.000 A 
ATOM     13  C   UNL     1      54.969  -0.695  16.864  0.00  0.00    +0.000 A 
ATOM     14  C   UNL     1      54.129  -0.941  17.924  0.00  0.00    +0.000 A 
ATOM     15  N   UNL     1      53.566   0.029  18.674  0.00  0.00    +0.000 NA
ATOM     16  H   UNL     1      52.483   1.873  19.586  0.00  0.00    +0.000 HD
ENDBRANCH   8   9
ENDBRANCH   5   8
ENDBRANCH   1   2
BRANCH   1  17
ATOM     17  N   UNL     1      46.911   4.208  15.765  0.00  0.00    +0.000 N 
ATOM     18  C   UNL     1      46.913   4.048  14.404  0.00  0.00    +0.000 C 
ATOM     19  O   UNL     1      47.340   3.036  13.856  0.00  0.00    +0.000 OA
ATOM     20  H   UNL     1      46.797   5.133  16.156  0.00  0.00    +0.000 HD
BRANCH  18  21
ATOM     21  C   UNL     1      46.292   5.127  13.625  0.00  0.00    +0.000 A 
ATOM     22  C   UNL     1      46.911   6.369  13.569  0.00  0.00    +0.000 A 
ATOM     23  S   UNL     1      46.093   7.498  12.589  0.00  0.00    +0.000 S 
ATOM     24  C   UNL     1      44.855   6.383  12.245  0.00  0.00    +0.000 A 
ATOM     25  N   UNL     1      43.799   6.736  11.466  0.00  0.00    +0.000 NA
ATOM     26  C   UNL     1      42.914   5.806  11.314  0.00  0.00    +0.000 A 
ATOM     27  N   UNL     1      42.999   4.552  11.861  0.00  0.00    +0.000 N 
ATOM     28  C   UNL     1      44.074   4.137  12.610  0.00  0.00    +0.000 A 
ATOM     29  O   UNL     1      44.165   2.982  13.016  0.00  0.00    +0.000 OA
ATOM     30  C   UNL     1      45.078   5.156  12.844  0.00  0.00    +0.000 A 
ATOM     31  H   UNL     1      42.281   3.865  11.688  0.00  0.00    +0.000 HD
ENDBRANCH  18  21
ENDBRANCH   1  17
BRANCH   1  32
ATOM     32  N   UNL     1      46.544   3.331  17.792  0.00  0.00    +0.000 NA
ATOM     33  H   UNL     1      45.839   2.602  17.730  0.00  0.00    +0.000 HD
ATOM     34  H   UNL     1      46.059   4.222  17.725  0.00  0.00    +0.000 HD
ENDBRANCH   1  32
TORSDOF 6
ENDMDL
MODEL 5
REMARK VINA RESULT:    -7.664      3.929      9.982
REMARK INTER + INTRA:         -11.058
REMARK INTER:                 -10.241
REMARK INTRA:                  -0.818
REMARK UNBOUND:                -0.930
REMARK  Name = 
REMARK  6 active torsions:
REMARK  status: ('A' for Active; 'I' for Inactive)
REMARK    1  A    between atoms: N_1  and  C_2
REMARK    2  A    between atoms: C_2  and  N_3
REMARK    3  A    between atoms: C_2  and  C_16
REMARK    4  A    between atoms: C_4  and  C_6
REMARK    5  A    between atoms: C_19  and  C_20
REMARK    6  A    between atoms: C_20  and  N_21
REMARK                            x       y       z     vdW  Elec       q    Type
REMARK                         _______ _______ _______ _____ _____    ______ ____
ROOT
ATOM      1  C   UNL     1      47.392   3.306  16.603  0.00  0.00    +0.000 C 
ENDROOT
BRANCH   1   2
ATOM      2  C   UNL     1      48.866   3.354  16.957  0.00  0.00    +0.000 A 
ATOM      3  C   UNL     1      49.613   2.168  16.849  0.00  0.00    +0.000 A 
ATOM      4  C   UNL     1      50.962   2.128  17.203  0.00  0.00    +0.000 A 
ATOM      5  C   UNL     1      51.600   3.277  17.682  0.00  0.00    +0.000 A 
ATOM      6  C   UNL     1      50.882   4.476  17.743  0.00  0.00    +0.000 A 
ATOM      7  C   UNL     1      49.528   4.514  17.387  0.00  0.00    +0.000 A 
BRANCH   5   8
ATOM      8  C   UNL     1      53.031   3.201  18.159  0.00  0.00    +0.000 C 
BRANCH   8   9
ATOM      9  N   UNL     1      53.108   2.565  19.457  0.00  0.00    +0.000 N 
ATOM     10  C   UNL     1      53.802   3.338  20.380  0.00  0.00    +0.000 A 
ATOM     11  N   UNL     1      53.748   4.677  20.305  0.00  0.00    +0.000 NA
ATOM     12  C   UNL     1      54.458   5.379  21.204  0.00  0.00    +0.000 A 
ATOM     13  C   UNL     1      55.223   4.796  22.179  0.00  0.00    +0.000 A 
ATOM     14  C   UNL     1      55.213   3.422  22.182  0.00  0.00    +0.000 A 
ATOM     15  N   UNL     1      54.524   2.676  21.294  0.00  0.00    +0.000 NA
ATOM     16  H   UNL     1      53.523   1.643  19.468  0.00  0.00    +0.000 HD
ENDBRANCH   8   9
ENDBRANCH   5   8
ENDBRANCH   1   2
BRANCH   1  17
ATOM     17  N   UNL     1      46.950   4.315  15.701  0.00  0.00    +0.000 N 
ATOM     18  C   UNL     1      46.850   4.084  14.354  0.00  0.00    +0.000 C 
ATOM     19  O   UNL     1      47.132   3.004  13.844  0.00  0.00    +0.000 OA
ATOM     20  H   UNL     1      46.960   5.267  16.043  0.00  0.00    +0.000 HD
BRANCH  18  21
ATOM     21  C   UNL     1      46.300   5.183  13.549  0.00  0.00    +0.000 A 
ATOM     22  C   UNL     1      47.058   6.331  13.358  0.00  0.00    +0.000 A 
ATOM     23  S   UNL     1      46.303   7.491  12.363  0.00  0.00    +0.000 S 
ATOM     24  C   UNL     1      44.915   6.521  12.194  0.00  0.00    +0.000 A 
ATOM     25  N   UNL     1      43.848   6.954  11.474  0.00  0.00    +0.000 NA
ATOM     26  C   UNL     1      42.848   6.135  11.456  0.00  0.00    +0.000 A 
ATOM     27  N   UNL     1      42.826   4.917  12.083  0.00  0.00    +0.000 N 
ATOM     28  C   UNL     1      43.903   4.418  12.778  0.00  0.00    +0.000 A 
ATOM     29  O   UNL     1      43.887   3.288  13.258  0.00  0.00    +0.000 OA
ATOM     30  C   UNL     1      45.039   5.315  12.861  0.00  0.00    +0.000 A 
ATOM     31  H   UNL     1      42.019   4.316  12.015  0.00  0.00    +0.000 HD
ENDBRANCH  18  21
ENDBRANCH   1  17
BRANCH   1  32
ATOM     32  N   UNL     1      46.576   3.556  17.774  0.00  0.00    +0.000 NA
ATOM     33  H   UNL     1      47.197   3.840  18.526  0.00  0.00    +0.000 HD
ATOM     34  H   UNL     1      46.147   2.678  18.056  0.00  0.00    +0.000 HD
ENDBRANCH   1  32
TORSDOF 6
ENDMDL
MODEL 6
REMARK VINA RESULT:    -7.641      3.746      5.493
REMARK INTER + INTRA:         -11.027
REMARK INTER:                 -10.201
REMARK INTRA:                  -0.826
REMARK UNBOUND:                -0.930
REMARK  Name = 
REMARK  6 active torsions:
REMARK  status: ('A' for Active; 'I' for Inactive)
REMARK    1  A    between atoms: N_1  and  C_2
REMARK    2  A    between atoms: C_2  and  N_3
REMARK    3  A    between atoms: C_2  and  C_16
REMARK    4  A    between atoms: C_4  and  C_6
REMARK    5  A    between atoms: C_19  and  C_20
REMARK    6  A    between atoms: C_20  and  N_21
REMARK                            x       y       z     vdW  Elec       q    Type
REMARK                         _______ _______ _______ _____ _____    ______ ____
ROOT
ATOM      1  C   UNL     1      46.332   4.165  14.464  0.00  0.00    +0.000 C 
ENDROOT
BRANCH   1   2
ATOM      2  C   UNL     1      45.852   5.289  13.567  0.00  0.00    +0.000 A 
ATOM      3  C   UNL     1      46.732   6.356  13.313  0.00  0.00    +0.000 A 
ATOM      4  C   UNL     1      46.342   7.447  12.536  0.00  0.00    +0.000 A 
ATOM      5  C   UNL     1      45.053   7.503  11.996  0.00  0.00    +0.000 A 
ATOM      6  C   UNL     1      44.186   6.422  12.196  0.00  0.00    +0.000 A 
ATOM      7  C   UNL     1      44.580   5.328  12.976  0.00  0.00    +0.000 A 
BRANCH   5   8
ATOM      8  C   UNL     1      44.604   8.732  11.242  0.00  0.00    +0.000 C 
BRANCH   8   9
ATOM      9  N   UNL     1      43.186   8.673  10.959  0.00  0.00    +0.000 N 
ATOM     10  C   UNL     1      42.722   9.836  10.355  0.00  0.00    +0.000 A 
ATOM     11  N   UNL     1      43.528  10.533   9.539  0.00  0.00    +0.000 NA
ATOM     12  C   UNL     1      43.042  11.664   9.001  0.00  0.00    +0.000 A 
ATOM     13  C   UNL     1      41.778  12.130   9.248  0.00  0.00    +0.000 A 
ATOM     14  C   UNL     1      41.024  11.350  10.090  0.00  0.00    +0.000 A 
ATOM     15  N   UNL     1      41.473  10.212  10.660  0.00  0.00    +0.000 NA
ATOM     16  H   UNL     1      42.589   8.491  11.755  0.00  0.00    +0.000 HD
ENDBRANCH   8   9
ENDBRANCH   5   8
ENDBRANCH   1   2
BRANCH   1  17
ATOM     17  N   UNL     1      47.382   4.510  15.362  0.00  0.00    +0.000 N 
ATOM     18  C   UNL     1      47.448   3.987  16.627  0.00  0.00    +0.000 C 
ATOM     19  O   UNL     1      46.617   3.197  17.062  0.00  0.00    +0.000 OA
ATOM     20  H   UNL     1      47.922   5.334  15.136  0.00  0.00    +0.000 HD
BRANCH  18  21
ATOM     21  C   UNL     1      48.628   4.359  17.420  0.00  0.00    +0.000 A 
ATOM     22  C   UNL     1      48.611   5.540  18.150  0.00  0.00    +0.000 A 
ATOM     23  S   UNL     1      50.032   5.807  19.052  0.00  0.00    +0.000 S 
ATOM     24  C   UNL     1      50.741   4.378  18.459  0.00  0.00    +0.000 A 
ATOM     25  N   UNL     1      52.001   4.024  18.823  0.00  0.00    +0.000 NA
ATOM     26  C   UNL     1      52.430   2.936  18.273  0.00  0.00    +0.000 A 
ATOM     27  N   UNL     1      51.705   2.164  17.402  0.00  0.00    +0.000 N 
ATOM     28  C   UNL     1      50.409   2.457  17.049  0.00  0.00    +0.000 A 
ATOM     29  O   UNL     1      49.753   1.703  16.335  0.00  0.00    +0.000 OA
ATOM     30  C   UNL     1      49.893   3.691  17.609  0.00  0.00    +0.000 A 
ATOM     31  H   UNL     1      52.092   1.315  17.021  0.00  0.00    +0.000 HD
ENDBRANCH  18  21
ENDBRANCH   1  17
BRANCH   1  32
ATOM     32  N   UNL     1      46.931   3.103  13.680  0.00  0.00    +0.000 NA
ATOM     33  H   UNL     1      47.355   2.446  14.327  0.00  0.00    +0.000 HD
ATOM     34  H   UNL     1      47.683   3.504  13.125  0.00  0.00    +0.000 HD
ENDBRANCH   1  32
TORSDOF 6
ENDMDL
MODEL 7
REMARK VINA RESULT:    -7.509      4.221      9.061
REMARK INTER + INTRA:         -10.854
REMARK INTER:                  -9.825
REMARK INTRA:                  -1.028
REMARK UNBOUND:                -0.930
REMARK  Name = 
REMARK  6 active torsions:
REMARK  status: ('A' for Active; 'I' for Inactive)
REMARK    1  A    between atoms: N_1  and  C_2
REMARK    2  A    between atoms: C_2  and  N_3
REMARK    3  A    between atoms: C_2  and  C_16
REMARK    4  A    between atoms: C_4  and  C_6
REMARK    5  A    between atoms: C_19  and  C_20
REMARK    6  A    between atoms: C_20  and  N_21
REMARK                            x       y       z     vdW  Elec       q    Type
REMARK                         _______ _______ _______ _____ _____    ______ ____
ROOT
ATOM      1  C   UNL     1      47.442   3.671  17.034  0.00  0.00    +0.000 C 
ENDROOT
BRANCH   1   2
ATOM      2  C   UNL     1      48.903   3.391  17.326  0.00  0.00    +0.000 A 
ATOM      3  C   UNL     1      49.661   4.404  17.941  0.00  0.00    +0.000 A 
ATOM      4  C   UNL     1      51.022   4.234  18.196  0.00  0.00    +0.000 A 
ATOM      5  C   UNL     1      51.665   3.045  17.836  0.00  0.00    +0.000 A 
ATOM      6  C   UNL     1      50.910   2.010  17.274  0.00  0.00    +0.000 A 
ATOM      7  C   UNL     1      49.544   2.182  17.018  0.00  0.00    +0.000 A 
BRANCH   5   8
ATOM      8  C   UNL     1      53.157   2.909  18.022  0.00  0.00    +0.000 C 
BRANCH   8   9
ATOM      9  N   UNL     1      53.465   1.842  18.951  0.00  0.00    +0.000 N 
ATOM     10  C   UNL     1      53.997   0.728  18.314  0.00  0.00    +0.000 A 
ATOM     11  N   UNL     1      54.754   0.883  17.216  0.00  0.00    +0.000 NA
ATOM     12  C   UNL     1      55.223  -0.226  16.622  0.00  0.00    +0.000 A 
ATOM     13  C   UNL     1      54.965  -1.491  17.080  0.00  0.00    +0.000 A 
ATOM     14  C   UNL     1      54.187  -1.552  18.211  0.00  0.00    +0.000 A 
ATOM     15  N   UNL     1      53.687  -0.466  18.836  0.00  0.00    +0.000 NA
ATOM     16  H   UNL     1      52.692   1.521  19.519  0.00  0.00    +0.000 HD
ENDBRANCH   8   9
ENDBRANCH   5   8
ENDBRANCH   1   2
BRANCH   1  17
ATOM     17  N   UNL     1      47.199   4.620  16.001  0.00  0.00    +0.000 N 
ATOM     18  C   UNL     1      47.168   4.255  14.680  0.00  0.00    +0.000 C 
ATOM     19  O   UNL     1      47.345   3.100  14.307  0.00  0.00    +0.000 OA
ATOM     20  H   UNL     1      47.307   5.595  16.245  0.00  0.00    +0.000 HD
BRANCH  18  21
ATOM     21  C   UNL     1      46.824   5.316  13.724  0.00  0.00    +0.000 A 
ATOM     22  C   UNL     1      45.665   5.200  12.968  0.00  0.00    +0.000 A 
ATOM     23  S   UNL     1      45.381   6.531  11.942  0.00  0.00    +0.000 S 
ATOM     24  C   UNL     1      46.825   7.287  12.434  0.00  0.00    +0.000 A 
ATOM     25  N   UNL     1      47.205   8.476  11.898  0.00  0.00    +0.000 NA
ATOM     26  C   UNL     1      48.338   8.920  12.335  0.00  0.00    +0.000 A 
ATOM     27  N   UNL     1      49.116   8.287  13.269  0.00  0.00    +0.000 N 
ATOM     28  C   UNL     1      48.743   7.110  13.875  0.00  0.00    +0.000 A 
ATOM     29  O   UNL     1      49.419   6.609  14.770  0.00  0.00    +0.000 OA
ATOM     30  C   UNL     1      47.497   6.549  13.392  0.00  0.00    +0.000 A 
ATOM     31  H   UNL     1      49.983   8.697  13.580  0.00  0.00    +0.000 HD
ENDBRANCH  18  21
ENDBRANCH   1  17
BRANCH   1  32
ATOM     32  N   UNL     1      46.799   4.286  18.178  0.00  0.00    +0.000 NA
ATOM     33  H   UNL     1      46.385   5.158  17.864  0.00  0.00    +0.000 HD
ATOM     34  H   UNL     1      47.518   4.524  18.857  0.00  0.00    +0.000 HD
ENDBRANCH   1  32
TORSDOF 6
ENDMDL
MODEL 8
REMARK VINA RESULT:    -7.332      3.580      8.823
REMARK INTER + INTRA:         -10.619
REMARK INTER:                  -9.736
REMARK INTRA:                  -0.883
REMARK UNBOUND:                -0.930
REMARK  Name = 
REMARK  6 active torsions:
REMARK  status: ('A' for Active; 'I' for Inactive)
REMARK    1  A    between atoms: N_1  and  C_2
REMARK    2  A    between atoms: C_2  and  N_3
REMARK    3  A    between atoms: C_2  and  C_16
REMARK    4  A    between atoms: C_4  and  C_6
REMARK    5  A    between atoms: C_19  and  C_20
REMARK    6  A    between atoms: C_20  and  N_21
REMARK                            x       y       z     vdW  Elec       q    Type
REMARK                         _______ _______ _______ _____ _____    ______ ____
ROOT
ATOM      1  C   UNL     1      47.513   3.314  16.475  0.00  0.00    +0.000 C 
ENDROOT
BRANCH   1   2
ATOM      2  C   UNL     1      48.884   3.699  16.995  0.00  0.00    +0.000 A 
ATOM      3  C   UNL     1      49.175   5.066  17.147  0.00  0.00    +0.000 A 
ATOM      4  C   UNL     1      50.432   5.494  17.575  0.00  0.00    +0.000 A 
ATOM      5  C   UNL     1      51.437   4.563  17.857  0.00  0.00    +0.000 A 
ATOM      6  C   UNL     1      51.142   3.198  17.762  0.00  0.00    +0.000 A 
ATOM      7  C   UNL     1      49.880   2.770  17.332  0.00  0.00    +0.000 A 
BRANCH   5   8
ATOM      8  C   UNL     1      52.823   5.037  18.221  0.00  0.00    +0.000 C 
BRANCH   8   9
ATOM      9  N   UNL     1      53.683   5.058  17.057  0.00  0.00    +0.000 N 
ATOM     10  C   UNL     1      53.920   6.349  16.602  0.00  0.00    +0.000 A 
ATOM     11  N   UNL     1      53.970   7.367  17.475  0.00  0.00    +0.000 NA
ATOM     12  C   UNL     1      54.175   8.600  16.983  0.00  0.00    +0.000 A 
ATOM     13  C   UNL     1      54.332   8.859  15.647  0.00  0.00    +0.000 A 
ATOM     14  C   UNL     1      54.271   7.757  14.829  0.00  0.00    +0.000 A 
ATOM     15  N   UNL     1      54.058   6.502  15.278  0.00  0.00    +0.000 NA
ATOM     16  H   UNL     1      53.360   4.517  16.266  0.00  0.00    +0.000 HD
ENDBRANCH   8   9
ENDBRANCH   5   8
ENDBRANCH   1   2
BRANCH   1  17
ATOM     17  N   UNL     1      46.891   4.277  15.628  0.00  0.00    +0.000 N 
ATOM     18  C   UNL     1      46.887   4.140  14.264  0.00  0.00    +0.000 C 
ATOM     19  O   UNL     1      47.412   3.190  13.692  0.00  0.00    +0.000 OA
ATOM     20  H   UNL     1      46.685   5.177  16.038  0.00  0.00    +0.000 HD
BRANCH  18  21
ATOM     21  C   UNL     1      46.140   5.158  13.515  0.00  0.00    +0.000 A 
ATOM     22  C   UNL     1      46.636   6.453  13.446  0.00  0.00    +0.000 A 
ATOM     23  S   UNL     1      45.681   7.503  12.503  0.00  0.00    +0.000 S 
ATOM     24  C   UNL     1      44.542   6.277  12.194  0.00  0.00    +0.000 A 
ATOM     25  N   UNL     1      43.431   6.530  11.455  0.00  0.00    +0.000 NA
ATOM     26  C   UNL     1      42.634   5.520  11.327  0.00  0.00    +0.000 A 
ATOM     27  N   UNL     1      42.856   4.278  11.862  0.00  0.00    +0.000 N 
ATOM     28  C   UNL     1      43.992   3.965  12.571  0.00  0.00    +0.000 A 
ATOM     29  O   UNL     1      44.206   2.822  12.966  0.00  0.00    +0.000 OA
ATOM     30  C   UNL     1      44.903   5.074  12.777  0.00  0.00    +0.000 A 
ATOM     31  H   UNL     1      42.201   3.527  11.711  0.00  0.00    +0.000 HD
ENDBRANCH  18  21
ENDBRANCH   1  17
BRANCH   1  32
ATOM     32  N   UNL     1      46.564   3.202  17.565  0.00  0.00    +0.000 NA
ATOM     33  H   UNL     1      46.671   4.026  18.149  0.00  0.00    +0.000 HD
ATOM     34  H   UNL     1      46.824   2.399  18.131  0.00  0.00    +0.000 HD
ENDBRANCH   1  32
TORSDOF 6
ENDMDL
MODEL 9
REMARK VINA RESULT:    -7.204      3.357      5.414
REMARK INTER + INTRA:         -10.450
REMARK INTER:                  -9.148
REMARK INTRA:                  -1.302
REMARK UNBOUND:                -0.930
REMARK  Name = 
REMARK  6 active torsions:
REMARK  status: ('A' for Active; 'I' for Inactive)
REMARK    1  A    between atoms: N_1  and  C_2
REMARK    2  A    between atoms: C_2  and  N_3
REMARK    3  A    between atoms: C_2  and  C_16
REMARK    4  A    between atoms: C_4  and  C_6
REMARK    5  A    between atoms: C_19  and  C_20
REMARK    6  A    between atoms: C_20  and  N_21
REMARK                            x       y       z     vdW  Elec       q    Type
REMARK                         _______ _______ _______ _____ _____    ______ ____
ROOT
ATOM      1  C   UNL     1      47.630   7.042  13.863  0.00  0.00    +0.000 C 
ENDROOT
BRANCH   1   2
ATOM      2  C   UNL     1      46.567   6.379  13.009  0.00  0.00    +0.000 A 
ATOM      3  C   UNL     1      46.348   5.000  13.176  0.00  0.00    +0.000 A 
ATOM      4  C   UNL     1      45.420   4.315  12.391  0.00  0.00    +0.000 A 
ATOM      5  C   UNL     1      44.688   4.992  11.411  0.00  0.00    +0.000 A 
ATOM      6  C   UNL     1      44.857   6.375  11.273  0.00  0.00    +0.000 A 
ATOM      7  C   UNL     1      45.790   7.060  12.061  0.00  0.00    +0.000 A 
BRANCH   5   8
ATOM      8  C   UNL     1      43.761   4.226  10.498  0.00  0.00    +0.000 C 
BRANCH   8   9
ATOM      9  N   UNL     1      44.023   4.546   9.111  0.00  0.00    +0.000 N 
ATOM     10  C   UNL     1      44.953   3.686   8.540  0.00  0.00    +0.000 A 
ATOM     11  N   UNL     1      45.018   2.407   8.944  0.00  0.00    +0.000 NA
ATOM     12  C   UNL     1      45.951   1.624   8.379  0.00  0.00    +0.000 A 
ATOM     13  C   UNL     1      46.828   2.067   7.425  0.00  0.00    +0.000 A 
ATOM     14  C   UNL     1      46.684   3.386   7.070  0.00  0.00    +0.000 A 
ATOM     15  N   UNL     1      45.768   4.213   7.616  0.00  0.00    +0.000 NA
ATOM     16  H   UNL     1      44.340   5.490   8.933  0.00  0.00    +0.000 HD
ENDBRANCH   8   9
ENDBRANCH   5   8
ENDBRANCH   1   2
BRANCH   1  17
ATOM     17  N   UNL     1      48.521   7.905  13.163  0.00  0.00    +0.000 N 
ATOM     18  C   UNL     1      49.341   8.783  13.824  0.00  0.00    +0.000 C 
ATOM     19  O   UNL     1      49.359   8.880  15.047  0.00  0.00    +0.000 OA
ATOM     20  H   UNL     1      48.348   8.034  12.176  0.00  0.00    +0.000 HD
BRANCH  18  21
ATOM     21  C   UNL     1      50.270   9.554  12.988  0.00  0.00    +0.000 A 
ATOM     22  C   UNL     1      51.625   9.545  13.291  0.00  0.00    +0.000 A 
ATOM     23  S   UNL     1      52.577  10.447  12.203  0.00  0.00    +0.000 S 
ATOM     24  C   UNL     1      51.205  10.924  11.316  0.00  0.00    +0.000 A 
ATOM     25  N   UNL     1      51.323  11.753  10.246  0.00  0.00    +0.000 NA
ATOM     26  C   UNL     1      50.200  12.064   9.685  0.00  0.00    +0.000 A 
ATOM     27  N   UNL     1      48.973  11.608  10.092  0.00  0.00    +0.000 N 
ATOM     28  C   UNL     1      48.814  10.727  11.136  0.00  0.00    +0.000 A 
ATOM     29  O   UNL     1      47.712  10.268  11.425  0.00  0.00    +0.000 OA
ATOM     30  C   UNL     1      50.041  10.377  11.825  0.00  0.00    +0.000 A 
ATOM     31  H   UNL     1      48.135  11.874   9.599  0.00  0.00    +0.000 HD
ENDBRANCH  18  21
ENDBRANCH   1  17
BRANCH   1  32
ATOM     32  N   UNL     1      48.530   6.053  14.421  0.00  0.00    +0.000 NA
ATOM     33  H   UNL     1      48.549   6.189  15.427  0.00  0.00    +0.000 HD
ATOM     34  H   UNL     1      49.467   6.245  14.075  0.00  0.00    +0.000 HD
ENDBRANCH   1  32
TORSDOF 6
ENDMDL
