MODEL 1
REMARK VINA RESULT:    -7.730      0.000      0.000
REMARK INTER + INTRA:         -10.930
REMARK INTER:                  -9.989
REMARK INTRA:                  -0.941
REMARK UNBOUND:                -0.941
REMARK  Name = 
REMARK  5 active torsions:
REMARK  status: ('A' for Active; 'I' for Inactive)
REMARK    1  A    between atoms: C_2  and  C_3
REMARK    2  A    between atoms: C_7  and  N_8
REMARK    3  A    between atoms: N_8  and  C_9
REMARK    4  A    between atoms: C_9  and  C_10
REMARK    5  A    between atoms: C_14  and  C_15
REMARK                            x       y       z     vdW  Elec       q    Type
REMARK                         _______ _______ _______ _____ _____    ______ ____
ROOT
ATOM      1  C   UNL     1      43.788   5.008  11.676  0.00  0.00    +0.000 C 
ATOM      2  C   UNL     1      42.494   5.394  12.398  0.00  0.00    +0.000 C 
ATOM      3  C   UNL     1      42.964   6.207  11.245  0.00  0.00    +0.000 C 
ENDROOT
BRANCH   1   4
ATOM      4  C   UNL     1      45.082   5.278  12.443  0.00  0.00    +0.000 A 
ATOM      5  C   UNL     1      45.672   4.315  13.269  0.00  0.00    +0.000 A 
ATOM      6  C   UNL     1      46.950   4.512  13.795  0.00  0.00    +0.000 A 
ATOM      7  C   UNL     1      47.669   5.667  13.478  0.00  0.00    +0.000 A 
ATOM      8  C   UNL     1      47.110   6.670  12.672  0.00  0.00    +0.000 A 
ATOM      9  C   UNL     1      45.790   6.479  12.238  0.00  0.00    +0.000 A 
BRANCH   8  10
ATOM     10  C   UNL     1      47.904   7.802  12.142  0.00  0.00    +0.000 A 
ATOM     11  C   UNL     1      47.351   9.094  12.087  0.00  0.00    +0.000 A 
ATOM     12  C   UNL     1      48.121  10.205  11.732  0.00  0.00    +0.000 A 
ATOM     13  C   UNL     1      49.468  10.049  11.428  0.00  0.00    +0.000 A 
ATOM     14  C   UNL     1      50.040   8.781  11.459  0.00  0.00    +0.000 A 
ATOM     15  C   UNL     1      49.264   7.668  11.803  0.00  0.00    +0.000 A 
ENDBRANCH   8  10
ENDBRANCH   1   4
BRANCH   1  16
ATOM     16  N   UNL     1      43.772   3.713  10.958  0.00  0.00    +0.000 N 
ATOM     17  H   UNL     1      43.829   2.923  11.600  0.00  0.00    +0.000 HD
BRANCH  16  22
ATOM     18  C   UNL     1      45.856   2.072   8.317  0.00  0.00    +0.000 A 
ATOM     19  C   UNL     1      46.157   3.199   7.569  0.00  0.00    +0.000 A 
ATOM     20  N   UNL     1      45.694   4.431   7.863  0.00  0.00    +0.000 NA
ATOM     21  C   UNL     1      44.905   4.533   8.962  0.00  0.00    +0.000 A 
ATOM     22  C   UNL     1      44.518   3.467   9.783  0.00  0.00    +0.000 A 
ATOM     23  C   UNL     1      45.024   2.216   9.431  0.00  0.00    +0.000 A 
BRANCH  18  25
ATOM     24  N   UNL     1      46.870  -0.224   7.673  0.00  0.00    +0.000 NA
ATOM     25  C   UNL     1      46.412   0.804   7.966  0.00  0.00    +0.000 C 
ENDBRANCH  18  25
ENDBRANCH  16  22
ENDBRANCH   1  16
TORSDOF 5
ENDMDL
MODEL 2
REMARK VINA RESULT:    -7.504      1.616      3.511
REMARK INTER + INTRA:         -10.638
REMARK INTER:                 -10.134
REMARK INTRA:                  -0.504
REMARK UNBOUND:                -0.941
REMARK  Name = 
REMARK  5 active torsions:
REMARK  status: ('A' for Active; 'I' for Inactive)
REMARK    1  A    between atoms: C_2  and  C_3
REMARK    2  A    between atoms: C_7  and  N_8
REMARK    3  A    between atoms: N_8  and  C_9
REMARK    4  A    between atoms: C_9  and  C_10
REMARK    5  A    between atoms: C_14  and  C_15
REMARK                            x       y       z     vdW  Elec       q    Type
REMARK                         _______ _______ _______ _____ _____    ______ ____
ROOT
ATOM      1  C   UNL     1      43.872   4.828  11.754  0.00  0.00    +0.000 C 
ATOM      2  C   UNL     1      42.821   5.031  12.850  0.00  0.00    +0.000 C 
ATOM      3  C   UNL     1      42.798   5.894  11.638  0.00  0.00    +0.000 C 
ENDROOT
BRANCH   1   4
ATOM      4  C   UNL     1      45.288   5.287  12.100  0.00  0.00    +0.000 A 
ATOM      5  C   UNL     1      45.938   6.300  11.386  0.00  0.00    +0.000 A 
ATOM      6  C   UNL     1      47.141   6.838  11.844  0.00  0.00    +0.000 A 
ATOM      7  C   UNL     1      47.700   6.387  13.043  0.00  0.00    +0.000 A 
ATOM      8  C   UNL     1      47.097   5.358  13.782  0.00  0.00    +0.000 A 
ATOM      9  C   UNL     1      45.939   4.778  13.242  0.00  0.00    +0.000 A 
BRANCH   8  10
ATOM     10  C   UNL     1      47.535   4.996  15.149  0.00  0.00    +0.000 A 
ATOM     11  C   UNL     1      48.350   5.872  15.888  0.00  0.00    +0.000 A 
ATOM     12  C   UNL     1      48.657   5.628  17.230  0.00  0.00    +0.000 A 
ATOM     13  C   UNL     1      48.148   4.502  17.867  0.00  0.00    +0.000 A 
ATOM     14  C   UNL     1      47.350   3.610  17.156  0.00  0.00    +0.000 A 
ATOM     15  C   UNL     1      47.055   3.850  15.810  0.00  0.00    +0.000 A 
ENDBRANCH   8  10
ENDBRANCH   1   4
BRANCH   1  16
ATOM     16  N   UNL     1      43.816   3.539  11.028  0.00  0.00    +0.000 N 
ATOM     17  H   UNL     1      43.903   2.744  11.660  0.00  0.00    +0.000 HD
BRANCH  16  22
ATOM     18  C   UNL     1      45.830   1.941   8.308  0.00  0.00    +0.000 A 
ATOM     19  C   UNL     1      46.015   3.059   7.509  0.00  0.00    +0.000 A 
ATOM     20  N   UNL     1      45.495   4.270   7.798  0.00  0.00    +0.000 NA
ATOM     21  C   UNL     1      44.771   4.361   8.942  0.00  0.00    +0.000 A 
ATOM     22  C   UNL     1      44.502   3.300   9.815  0.00  0.00    +0.000 A 
ATOM     23  C   UNL     1      45.061   2.071   9.468  0.00  0.00    +0.000 A 
BRANCH  18  25
ATOM     24  N   UNL     1      46.930  -0.317   7.669  0.00  0.00    +0.000 NA
ATOM     25  C   UNL     1      46.441   0.698   7.958  0.00  0.00    +0.000 C 
ENDBRANCH  18  25
ENDBRANCH  16  22
ENDBRANCH   1  16
TORSDOF 5
ENDMDL
MODEL 3
REMARK VINA RESULT:    -7.494      2.867      6.771
REMARK INTER + INTRA:         -10.625
REMARK INTER:                  -9.565
REMARK INTRA:                  -1.059
REMARK UNBOUND:                -0.941
REMARK  Name = 
REMARK  5 active torsions:
REMARK  status: ('A' for Active; 'I' for Inactive)
REMARK    1  A    between atoms: C_2  and  C_3
REMARK    2  A    between atoms: C_7  and  N_8
REMARK    3  A    between atoms: N_8  and  C_9
REMARK    4  A    between atoms: C_9  and  C_10
REMARK    5  A    between atoms: C_14  and  C_15
REMARK                            x       y       z     vdW  Elec       q    Type
REMARK                         _______ _______ _______ _____ _____    ______ ____
ROOT
ATOM      1  C   UNL     1      46.298   7.316  12.408  0.00  0.00    +0.000 C 
ATOM      2  C   UNL     1      46.280   8.706  11.765  0.00  0.00    +0.000 C 
ATOM      3  C   UNL     1      45.731   8.522  13.135  0.00  0.00    +0.000 C 
ENDROOT
BRANCH   1   4
ATOM      4  C   UNL     1      45.304   6.307  11.833  0.00  0.00    +0.000 A 
ATOM      5  C   UNL     1      43.924   6.427  12.030  0.00  0.00    +0.000 A 
ATOM      6  C   UNL     1      43.030   5.615  11.332  0.00  0.00    +0.000 A 
ATOM      7  C   UNL     1      43.505   4.686  10.402  0.00  0.00    +0.000 A 
ATOM      8  C   UNL     1      44.881   4.514  10.187  0.00  0.00    +0.000 A 
ATOM      9  C   UNL     1      45.751   5.283  10.974  0.00  0.00    +0.000 A 
BRANCH   8  10
ATOM     10  C   UNL     1      45.419   3.701   9.073  0.00  0.00    +0.000 A 
ATOM     11  C   UNL     1      46.049   4.323   7.980  0.00  0.00    +0.000 A 
ATOM     12  C   UNL     1      46.696   3.579   6.988  0.00  0.00    +0.000 A 
ATOM     13  C   UNL     1      46.731   2.192   7.071  0.00  0.00    +0.000 A 
ATOM     14  C   UNL     1      46.102   1.548   8.133  0.00  0.00    +0.000 A 
ATOM     15  C   UNL     1      45.446   2.294   9.118  0.00  0.00    +0.000 A 
ENDBRANCH   8  10
ENDBRANCH   1   4
BRANCH   1  16
ATOM     16  N   UNL     1      47.635   6.749  12.698  0.00  0.00    +0.000 N 
ATOM     17  H   UNL     1      47.926   6.081  11.985  0.00  0.00    +0.000 HD
BRANCH  16  22
ATOM     18  C   UNL     1      47.804   4.984  15.994  0.00  0.00    +0.000 A 
ATOM     19  C   UNL     1      48.780   5.766  16.593  0.00  0.00    +0.000 A 
ATOM     20  N   UNL     1      49.391   6.795  15.970  0.00  0.00    +0.000 NA
ATOM     21  C   UNL     1      48.994   7.053  14.698  0.00  0.00    +0.000 A 
ATOM     22  C   UNL     1      48.035   6.324  13.986  0.00  0.00    +0.000 A 
ATOM     23  C   UNL     1      47.437   5.270  14.676  0.00  0.00    +0.000 A 
BRANCH  18  25
ATOM     24  N   UNL     1      46.670   3.072  17.326  0.00  0.00    +0.000 NA
ATOM     25  C   UNL     1      47.174   3.932  16.727  0.00  0.00    +0.000 C 
ENDBRANCH  18  25
ENDBRANCH  16  22
ENDBRANCH   1  16
TORSDOF 5
ENDMDL
MODEL 4
REMARK VINA RESULT:    -6.868      3.050      6.944
REMARK INTER + INTRA:          -9.817
REMARK INTER:                  -8.746
REMARK INTRA:                  -1.070
REMARK UNBOUND:                -0.941
REMARK  Name = 
REMARK  5 active torsions:
REMARK  status: ('A' for Active; 'I' for Inactive)
REMARK    1  A    between atoms: C_2  and  C_3
REMARK    2  A    between atoms: C_7  and  N_8
REMARK    3  A    between atoms: N_8  and  C_9
REMARK    4  A    between atoms: C_9  and  C_10
REMARK    5  A    between atoms: C_14  and  C_15
REMARK                            x       y       z     vdW  Elec       q    Type
REMARK                         _______ _______ _______ _____ _____    ______ ____
ROOT
ATOM      1  C   UNL     1      46.324   7.058  12.814  0.00  0.00    +0.000 C 
ATOM      2  C   UNL     1      47.379   6.479  13.760  0.00  0.00    +0.000 C 
ATOM      3  C   UNL     1      47.773   6.904  12.390  0.00  0.00    +0.000 C 
ENDROOT
BRANCH   1   4
ATOM      4  C   UNL     1      45.314   6.056  12.254  0.00  0.00    +0.000 A 
ATOM      5  C   UNL     1      43.950   6.124  12.562  0.00  0.00    +0.000 A 
ATOM      6  C   UNL     1      43.025   5.329  11.884  0.00  0.00    +0.000 A 
ATOM      7  C   UNL     1      43.449   4.472  10.865  0.00  0.00    +0.000 A 
ATOM      8  C   UNL     1      44.808   4.354  10.536  0.00  0.00    +0.000 A 
ATOM      9  C   UNL     1      45.718   5.100  11.302  0.00  0.00    +0.000 A 
BRANCH   8  10
ATOM     10  C   UNL     1      45.278   3.626   9.336  0.00  0.00    +0.000 A 
ATOM     11  C   UNL     1      45.844   4.327   8.256  0.00  0.00    +0.000 A 
ATOM     12  C   UNL     1      46.429   3.660   7.176  0.00  0.00    +0.000 A 
ATOM     13  C   UNL     1      46.466   2.271   7.155  0.00  0.00    +0.000 A 
ATOM     14  C   UNL     1      45.901   1.549   8.203  0.00  0.00    +0.000 A 
ATOM     15  C   UNL     1      45.305   2.220   9.276  0.00  0.00    +0.000 A 
ENDBRANCH   8  10
ENDBRANCH   1   4
BRANCH   1  16
ATOM     16  N   UNL     1      45.729   8.354  13.215  0.00  0.00    +0.000 N 
ATOM     17  H   UNL     1      44.888   8.227  13.776  0.00  0.00    +0.000 HD
BRANCH  16  22
ATOM     18  C   UNL     1      44.464  10.697  10.585  0.00  0.00    +0.000 A 
ATOM     19  C   UNL     1      45.577  11.519  10.495  0.00  0.00    +0.000 A 
ATOM     20  N   UNL     1      46.677  11.365  11.259  0.00  0.00    +0.000 NA
ATOM     21  C   UNL     1      46.661  10.333  12.141  0.00  0.00    +0.000 A 
ATOM     22  C   UNL     1      45.591   9.450  12.334  0.00  0.00    +0.000 A 
ATOM     23  C   UNL     1      44.478   9.658  11.519  0.00  0.00    +0.000 A 
BRANCH  18  25
ATOM     24  N   UNL     1      42.441  11.072   9.009  0.00  0.00    +0.000 NA
ATOM     25  C   UNL     1      43.347  10.898   9.717  0.00  0.00    +0.000 C 
ENDBRANCH  18  25
ENDBRANCH  16  22
ENDBRANCH   1  16
TORSDOF 5
ENDMDL
MODEL 5
REMARK VINA RESULT:    -6.614      2.841      6.924
REMARK INTER + INTRA:          -9.488
REMARK INTER:                  -8.510
REMARK INTRA:                  -0.978
REMARK UNBOUND:                -0.941
REMARK  Name = 
REMARK  5 active torsions:
REMARK  status: ('A' for Active; 'I' for Inactive)
REMARK    1  A    between atoms: C_2  and  C_3
REMARK    2  A    between atoms: C_7  and  N_8
REMARK    3  A    between atoms: N_8  and  C_9
REMARK    4  A    between atoms: C_9  and  C_10
REMARK    5  A    between atoms: C_14  and  C_15
REMARK                            x       y       z     vdW  Elec       q    Type
REMARK                         _______ _______ _______ _____ _____    ______ ____
ROOT
ATOM      1  C   UNL     1      46.339   6.145  13.213  0.00  0.00    +0.000 C 
ATOM      2  C   UNL     1      46.918   5.236  14.301  0.00  0.00    +0.000 C 
ATOM      3  C   UNL     1      47.754   5.605  13.127  0.00  0.00    +0.000 C 
ENDROOT
BRANCH   1   4
ATOM      4  C   UNL     1      45.283   5.508  12.310  0.00  0.00    +0.000 A 
ATOM      5  C   UNL     1      43.941   5.902  12.342  0.00  0.00    +0.000 A 
ATOM      6  C   UNL     1      43.041   5.452  11.374  0.00  0.00    +0.000 A 
ATOM      7  C   UNL     1      43.481   4.622  10.340  0.00  0.00    +0.000 A 
ATOM      8  C   UNL     1      44.812   4.184  10.278  0.00  0.00    +0.000 A 
ATOM      9  C   UNL     1      45.664   4.581  11.320  0.00  0.00    +0.000 A 
BRANCH   8  10
ATOM     10  C   UNL     1      45.367   3.483   9.098  0.00  0.00    +0.000 A 
ATOM     11  C   UNL     1      45.876   4.217   8.011  0.00  0.00    +0.000 A 
ATOM     12  C   UNL     1      46.538   3.590   6.951  0.00  0.00    +0.000 A 
ATOM     13  C   UNL     1      46.712   2.211   6.958  0.00  0.00    +0.000 A 
ATOM     14  C   UNL     1      46.206   1.457   8.013  0.00  0.00    +0.000 A 
ATOM     15  C   UNL     1      45.533   2.085   9.066  0.00  0.00    +0.000 A 
ENDBRANCH   8  10
ENDBRANCH   1   4
BRANCH   1  16
ATOM     16  N   UNL     1      46.024   7.533  13.623  0.00  0.00    +0.000 N 
ATOM     17  H   UNL     1      45.130   7.591  14.109  0.00  0.00    +0.000 HD
BRANCH  16  22
ATOM     18  C   UNL     1      47.592  10.314  11.669  0.00  0.00    +0.000 A 
ATOM     19  C   UNL     1      46.435  10.996  11.324  0.00  0.00    +0.000 A 
ATOM     20  N   UNL     1      45.198  10.578  11.665  0.00  0.00    +0.000 NA
ATOM     21  C   UNL     1      45.125   9.435  12.392  0.00  0.00    +0.000 A 
ATOM     22  C   UNL     1      46.219   8.653  12.783  0.00  0.00    +0.000 A 
ATOM     23  C   UNL     1      47.473   9.130  12.402  0.00  0.00    +0.000 A 
BRANCH  18  25
ATOM     24  N   UNL     1      49.908  11.265  11.000  0.00  0.00    +0.000 NA
ATOM     25  C   UNL     1      48.871  10.835  11.305  0.00  0.00    +0.000 C 
ENDBRANCH  18  25
ENDBRANCH  16  22
ENDBRANCH   1  16
TORSDOF 5
ENDMDL
MODEL 6
REMARK VINA RESULT:    -6.506      3.297      7.217
REMARK INTER + INTRA:          -9.348
REMARK INTER:                  -8.238
REMARK INTRA:                  -1.110
REMARK UNBOUND:                -0.941
REMARK  Name = 
REMARK  5 active torsions:
REMARK  status: ('A' for Active; 'I' for Inactive)
REMARK    1  A    between atoms: C_2  and  C_3
REMARK    2  A    between atoms: C_7  and  N_8
REMARK    3  A    between atoms: N_8  and  C_9
REMARK    4  A    between atoms: C_9  and  C_10
REMARK    5  A    between atoms: C_14  and  C_15
REMARK                            x       y       z     vdW  Elec       q    Type
REMARK                         _______ _______ _______ _____ _____    ______ ____
ROOT
ATOM      1  C   UNL     1      48.771   8.091  12.726  0.00  0.00    +0.000 C 
ATOM      2  C   UNL     1      49.563   8.718  11.574  0.00  0.00    +0.000 C 
ATOM      3  C   UNL     1      49.205   9.545  12.758  0.00  0.00    +0.000 C 
ENDROOT
BRANCH   1   4
ATOM      4  C   UNL     1      47.299   7.800  12.436  0.00  0.00    +0.000 A 
ATOM      5  C   UNL     1      46.306   8.776  12.577  0.00  0.00    +0.000 A 
ATOM      6  C   UNL     1      45.009   8.545  12.116  0.00  0.00    +0.000 A 
ATOM      7  C   UNL     1      44.693   7.342  11.481  0.00  0.00    +0.000 A 
ATOM      8  C   UNL     1      45.650   6.325  11.337  0.00  0.00    +0.000 A 
ATOM      9  C   UNL     1      46.916   6.557  11.894  0.00  0.00    +0.000 A 
BRANCH   8  10
ATOM     10  C   UNL     1      45.423   5.130  10.493  0.00  0.00    +0.000 A 
ATOM     11  C   UNL     1      44.749   4.011  11.013  0.00  0.00    +0.000 A 
ATOM     12  C   UNL     1      44.390   2.930  10.203  0.00  0.00    +0.000 A 
ATOM     13  C   UNL     1      44.693   2.949   8.846  0.00  0.00    +0.000 A 
ATOM     14  C   UNL     1      45.372   4.036   8.305  0.00  0.00    +0.000 A 
ATOM     15  C   UNL     1      45.741   5.111   9.121  0.00  0.00    +0.000 A 
ENDBRANCH   8  10
ENDBRANCH   1   4
BRANCH   1  16
ATOM     16  N   UNL     1      49.461   7.023  13.484  0.00  0.00    +0.000 N 
ATOM     17  H   UNL     1      49.577   6.177  12.927  0.00  0.00    +0.000 HD
BRANCH  16  22
ATOM     18  C   UNL     1      48.078   5.392  16.556  0.00  0.00    +0.000 A 
ATOM     19  C   UNL     1      48.450   6.354  17.482  0.00  0.00    +0.000 A 
ATOM     20  N   UNL     1      49.144   7.465  17.158  0.00  0.00    +0.000 NA
ATOM     21  C   UNL     1      49.464   7.617  15.848  0.00  0.00    +0.000 A 
ATOM     22  C   UNL     1      49.159   6.707  14.829  0.00  0.00    +0.000 A 
ATOM     23  C   UNL     1      48.443   5.576  15.220  0.00  0.00    +0.000 A 
BRANCH  18  25
ATOM     24  N   UNL     1      46.681   3.336  17.292  0.00  0.00    +0.000 NA
ATOM     25  C   UNL     1      47.312   4.257  16.965  0.00  0.00    +0.000 C 
ENDBRANCH  18  25
ENDBRANCH  16  22
ENDBRANCH   1  16
TORSDOF 5
ENDMDL
MODEL 7
REMARK VINA RESULT:    -6.363      3.364      7.366
REMARK INTER + INTRA:          -9.163
REMARK INTER:                  -8.204
REMARK INTRA:                  -0.960
REMARK UNBOUND:                -0.941
REMARK  Name = 
REMARK  5 active torsions:
REMARK  status: ('A' for Active; 'I' for Inactive)
REMARK    1  A    between atoms: C_2  and  C_3
REMARK    2  A    between atoms: C_7  and  N_8
REMARK    3  A    between atoms: N_8  and  C_9
REMARK    4  A    between atoms: C_9  and  C_10
REMARK    5  A    between atoms: C_14  and  C_15
REMARK                            x       y       z     vdW  Elec       q    Type
REMARK                         _______ _______ _______ _____ _____    ______ ____
ROOT
ATOM      1  C   UNL     1      47.175   6.920  13.132  0.00  0.00    +0.000 C 
ATOM      2  C   UNL     1      47.935   8.008  12.368  0.00  0.00    +0.000 C 
ATOM      3  C   UNL     1      47.160   8.369  13.585  0.00  0.00    +0.000 C 
ENDROOT
BRANCH   1   4
ATOM      4  C   UNL     1      45.920   6.382  12.446  0.00  0.00    +0.000 A 
ATOM      5  C   UNL     1      44.676   7.013  12.569  0.00  0.00    +0.000 A 
ATOM      6  C   UNL     1      43.596   6.621  11.776  0.00  0.00    +0.000 A 
ATOM      7  C   UNL     1      43.753   5.609  10.826  0.00  0.00    +0.000 A 
ATOM      8  C   UNL     1      44.975   4.933  10.683  0.00  0.00    +0.000 A 
ATOM      9  C   UNL     1      46.009   5.290  11.560  0.00  0.00    +0.000 A 
BRANCH   8  10
ATOM     10  C   UNL     1      45.247   4.009   9.559  0.00  0.00    +0.000 A 
ATOM     11  C   UNL     1      45.829   4.487   8.371  0.00  0.00    +0.000 A 
ATOM     12  C   UNL     1      46.233   3.619   7.353  0.00  0.00    +0.000 A 
ATOM     13  C   UNL     1      46.068   2.247   7.503  0.00  0.00    +0.000 A 
ATOM     14  C   UNL     1      45.481   1.745   8.661  0.00  0.00    +0.000 A 
ATOM     15  C   UNL     1      45.067   2.617   9.673  0.00  0.00    +0.000 A 
ENDBRANCH   8  10
ENDBRANCH   1   4
BRANCH   1  16
ATOM     16  N   UNL     1      48.004   5.877  13.779  0.00  0.00    +0.000 N 
ATOM     17  H   UNL     1      48.184   5.094  13.152  0.00  0.00    +0.000 HD
BRANCH  16  22
ATOM     18  C   UNL     1      48.275   5.394  17.480  0.00  0.00    +0.000 A 
ATOM     19  C   UNL     1      47.450   4.287  17.601  0.00  0.00    +0.000 A 
ATOM     20  N   UNL     1      46.801   3.728  16.558  0.00  0.00    +0.000 NA
ATOM     21  C   UNL     1      47.001   4.301  15.345  0.00  0.00    +0.000 A 
ATOM     22  C   UNL     1      47.794   5.430  15.103  0.00  0.00    +0.000 A 
ATOM     23  C   UNL     1      48.439   5.968  16.217  0.00  0.00    +0.000 A 
BRANCH  18  25
ATOM     24  N   UNL     1      49.517   6.339  19.549  0.00  0.00    +0.000 NA
ATOM     25  C   UNL     1      48.959   5.911  18.624  0.00  0.00    +0.000 C 
ENDBRANCH  18  25
ENDBRANCH  16  22
ENDBRANCH   1  16
TORSDOF 5
ENDMDL
MODEL 8
REMARK VINA RESULT:    -6.294      2.334      4.743
REMARK INTER + INTRA:          -9.074
REMARK INTER:                  -8.204
REMARK INTRA:                  -0.870
REMARK UNBOUND:                -0.941
REMARK  Name = 
REMARK  5 active torsions:
REMARK  status: ('A' for Active; 'I' for Inactive)
REMARK    1  A    between atoms: C_2  and  C_3
REMARK    2  A    between atoms: C_7  and  N_8
REMARK    3  A    between atoms: N_8  and  C_9
REMARK    4  A    between atoms: C_9  and  C_10
REMARK    5  A    between atoms: C_14  and  C_15
REMARK                            x       y       z     vdW  Elec       q    Type
REMARK                         _______ _______ _______ _____ _____    ______ ____
ROOT
ATOM      1  C   UNL     1      45.560   7.647  12.522  0.00  0.00    +0.000 C 
ATOM      2  C   UNL     1      45.050   9.062  12.808  0.00  0.00    +0.000 C 
ATOM      3  C   UNL     1      45.474   8.697  11.430  0.00  0.00    +0.000 C 
ENDROOT
BRANCH   1   4
ATOM      4  C   UNL     1      46.945   7.316  13.076  0.00  0.00    +0.000 A 
ATOM      5  C   UNL     1      48.080   8.062  12.736  0.00  0.00    +0.000 A 
ATOM      6  C   UNL     1      49.288   7.869  13.407  0.00  0.00    +0.000 A 
ATOM      7  C   UNL     1      49.371   6.943  14.451  0.00  0.00    +0.000 A 
ATOM      8  C   UNL     1      48.266   6.157  14.813  0.00  0.00    +0.000 A 
ATOM      9  C   UNL     1      47.096   6.313  14.055  0.00  0.00    +0.000 A 
BRANCH   8  10
ATOM     10  C   UNL     1      48.247   5.324  16.036  0.00  0.00    +0.000 A 
ATOM     11  C   UNL     1      47.320   4.274  16.165  0.00  0.00    +0.000 A 
ATOM     12  C   UNL     1      47.373   3.379  17.238  0.00  0.00    +0.000 A 
ATOM     13  C   UNL     1      48.361   3.512  18.206  0.00  0.00    +0.000 A 
ATOM     14  C   UNL     1      49.283   4.551  18.114  0.00  0.00    +0.000 A 
ATOM     15  C   UNL     1      49.220   5.452  17.045  0.00  0.00    +0.000 A 
ENDBRANCH   8  10
ENDBRANCH   1   4
BRANCH   1  16
ATOM     16  N   UNL     1      44.572   6.555  12.676  0.00  0.00    +0.000 N 
ATOM     17  H   UNL     1      44.500   6.242  13.644  0.00  0.00    +0.000 HD
BRANCH  16  22
ATOM     18  C   UNL     1      44.952   4.324   9.695  0.00  0.00    +0.000 A 
ATOM     19  C   UNL     1      43.997   3.375  10.029  0.00  0.00    +0.000 A 
ATOM     20  N   UNL     1      43.279   3.416  11.171  0.00  0.00    +0.000 NA
ATOM     21  C   UNL     1      43.525   4.459  12.002  0.00  0.00    +0.000 A 
ATOM     22  C   UNL     1      44.474   5.464  11.782  0.00  0.00    +0.000 A 
ATOM     23  C   UNL     1      45.190   5.372  10.588  0.00  0.00    +0.000 A 
BRANCH  18  25
ATOM     24  N   UNL     1      46.217   4.176   7.438  0.00  0.00    +0.000 NA
ATOM     25  C   UNL     1      45.649   4.236   8.451  0.00  0.00    +0.000 C 
ENDBRANCH  18  25
ENDBRANCH  16  22
ENDBRANCH   1  16
TORSDOF 5
ENDMDL
MODEL 9
REMARK VINA RESULT:    -6.238      3.088      5.680
REMARK INTER + INTRA:          -9.003
REMARK INTER:                  -8.172
REMARK INTRA:                  -0.831
REMARK UNBOUND:                -0.941
REMARK  Name = 
REMARK  5 active torsions:
REMARK  status: ('A' for Active; 'I' for Inactive)
REMARK    1  A    between atoms: C_2  and  C_3
REMARK    2  A    between atoms: C_7  and  N_8
REMARK    3  A    between atoms: N_8  and  C_9
REMARK    4  A    between atoms: C_9  and  C_10
REMARK    5  A    between atoms: C_14  and  C_15
REMARK                            x       y       z     vdW  Elec       q    Type
REMARK                         _______ _______ _______ _____ _____    ______ ____
ROOT
ATOM      1  C   UNL     1      47.466   8.047  13.022  0.00  0.00    +0.000 C 
ATOM      2  C   UNL     1      47.746   9.311  12.203  0.00  0.00    +0.000 C 
ATOM      3  C   UNL     1      48.404   8.031  11.829  0.00  0.00    +0.000 C 
ENDROOT
BRANCH   1   4
ATOM      4  C   UNL     1      48.093   8.007  14.415  0.00  0.00    +0.000 A 
ATOM      5  C   UNL     1      48.082   9.117  15.268  0.00  0.00    +0.000 A 
ATOM      6  C   UNL     1      48.478   8.997  16.601  0.00  0.00    +0.000 A 
ATOM      7  C   UNL     1      48.864   7.754  17.109  0.00  0.00    +0.000 A 
ATOM      8  C   UNL     1      48.912   6.618  16.287  0.00  0.00    +0.000 A 
ATOM      9  C   UNL     1      48.597   6.797  14.931  0.00  0.00    +0.000 A 
BRANCH   8  10
ATOM     10  C   UNL     1      49.110   5.253  16.824  0.00  0.00    +0.000 A 
ATOM     11  C   UNL     1      48.112   4.275  16.663  0.00  0.00    +0.000 A 
ATOM     12  C   UNL     1      48.327   2.943  17.027  0.00  0.00    +0.000 A 
ATOM     13  C   UNL     1      49.553   2.556  17.555  0.00  0.00    +0.000 A 
ATOM     14  C   UNL     1      50.555   3.504  17.740  0.00  0.00    +0.000 A 
ATOM     15  C   UNL     1      50.332   4.840  17.387  0.00  0.00    +0.000 A 
ENDBRANCH   8  10
ENDBRANCH   1   4
BRANCH   1  16
ATOM     16  N   UNL     1      46.079   7.531  12.969  0.00  0.00    +0.000 N 
ATOM     17  H   UNL     1      45.550   7.780  13.805  0.00  0.00    +0.000 HD
BRANCH  16  22
ATOM     18  C   UNL     1      45.051   4.615  10.860  0.00  0.00    +0.000 A 
ATOM     19  C   UNL     1      44.899   3.678  11.870  0.00  0.00    +0.000 A 
ATOM     20  N   UNL     1      45.145   3.943  13.170  0.00  0.00    +0.000 NA
ATOM     21  C   UNL     1      45.547   5.204  13.465  0.00  0.00    +0.000 A 
ATOM     22  C   UNL     1      45.752   6.227  12.531  0.00  0.00    +0.000 A 
ATOM     23  C   UNL     1      45.487   5.898  11.202  0.00  0.00    +0.000 A 
BRANCH  18  25
ATOM     24  N   UNL     1      44.491   3.990   8.408  0.00  0.00    +0.000 NA
ATOM     25  C   UNL     1      44.738   4.274   9.508  0.00  0.00    +0.000 C 
ENDBRANCH  18  25
ENDBRANCH  16  22
ENDBRANCH   1  16
TORSDOF 5
ENDMDL
