MODEL 1
REMARK VINA RESULT:    -8.511      0.000      0.000
REMARK INTER + INTRA:         -13.308
REMARK INTER:                 -12.242
REMARK INTRA:                  -1.066
REMARK UNBOUND:                -1.066
REMARK  Name = 
REMARK  8 active torsions:
REMARK  status: ('A' for Active; 'I' for Inactive)
REMARK    1  A    between atoms: N_1  and  C_2
REMARK    2  A    between atoms: C_2  and  N_3
REMARK    3  A    between atoms: C_2  and  C_11
REMARK    4  A    between atoms: N_3  and  C_4
REMARK    5  A    between atoms: C_4  and  C_5
REMARK    6  A    between atoms: C_14  and  C_15
REMARK    7  A    between atoms: C_15  and  N_16
REMARK    8  A    between atoms: C_17  and  C_19
REMARK                            x       y       z     vdW  Elec       q    Type
REMARK                         _______ _______ _______ _____ _____    ______ ____
ROOT
ATOM      1  C   UNL     1      45.056   4.158  11.626  0.00  0.00    +0.000 A 
ATOM      2  C   UNL     1      45.421   5.305  10.893  0.00  0.00    +0.000 A 
ATOM      3  C   UNL     1      46.301   6.251  11.424  0.00  0.00    +0.000 A 
ATOM      4  C   UNL     1      46.875   6.045  12.682  0.00  0.00    +0.000 A 
ATOM      5  C   UNL     1      46.550   4.885  13.393  0.00  0.00    +0.000 A 
ATOM      6  C   UNL     1      45.641   3.963  12.883  0.00  0.00    +0.000 A 
ENDROOT
BRANCH   1   7
ATOM      7  C   UNL     1      43.975   3.237  11.090  0.00  0.00    +0.000 C 
BRANCH   7   8
ATOM      8  N   UNL     1      42.640   3.689  11.417  0.00  0.00    +0.000 NA
ATOM      9  H   UNL     1      42.490   4.560  10.918  0.00  0.00    +0.000 HD
ATOM     10  H   UNL     1      42.631   3.948  12.399  0.00  0.00    +0.000 HD
ENDBRANCH   7   8
BRANCH   7  11
ATOM     11  N   UNL     1      43.952   3.147   9.641  0.00  0.00    +0.000 NA
ATOM     12  H   UNL     1      44.524   3.905   9.270  0.00  0.00    +0.000 HD
BRANCH  11  13
ATOM     13  C   UNL     1      44.571   1.893   9.170  0.00  0.00    +0.000 C 
BRANCH  13  14
ATOM     14  C   UNL     1      45.732   2.098   8.218  0.00  0.00    +0.000 A 
ATOM     15  C   UNL     1      45.912   3.312   7.562  0.00  0.00    +0.000 A 
ATOM     16  C   UNL     1      46.953   3.431   6.645  0.00  0.00    +0.000 A 
ATOM     17  C   UNL     1      47.785   2.341   6.408  0.00  0.00    +0.000 A 
ATOM     18  C   UNL     1      47.543   1.172   7.107  0.00  0.00    +0.000 A 
ATOM     19  N   UNL     1      46.540   1.027   7.999  0.00  0.00    +0.000 NA
ENDBRANCH  13  14
ENDBRANCH  11  13
ENDBRANCH   7  11
ENDBRANCH   1   7
BRANCH   4  20
ATOM     20  C   UNL     1      47.782   7.065  13.310  0.00  0.00    +0.000 C 
BRANCH  20  21
ATOM     21  N   UNL     1      47.814   6.962  14.748  0.00  0.00    +0.000 N 
ATOM     22  C   UNL     1      48.976   6.872  15.471  0.00  0.00    +0.000 C 
ATOM     23  O   UNL     1      50.085   6.822  14.943  0.00  0.00    +0.000 OA
ATOM     24  H   UNL     1      46.920   6.883  15.218  0.00  0.00    +0.000 HD
BRANCH  22  25
ATOM     25  C   UNL     1      48.847   6.925  16.932  0.00  0.00    +0.000 A 
ATOM     26  C   UNL     1      48.683   8.159  17.549  0.00  0.00    +0.000 A 
ATOM     27  S   UNL     1      48.460   8.062  19.234  0.00  0.00    +0.000 S 
ATOM     28  C   UNL     1      48.634   6.369  19.207  0.00  0.00    +0.000 A 
ATOM     29  N   UNL     1      48.560   5.647  20.358  0.00  0.00    +0.000 NA
ATOM     30  C   UNL     1      48.744   4.381  20.204  0.00  0.00    +0.000 A 
ATOM     31  N   UNL     1      48.988   3.764  19.005  0.00  0.00    +0.000 N 
ATOM     32  C   UNL     1      49.003   4.447  17.807  0.00  0.00    +0.000 A 
ATOM     33  O   UNL     1      49.111   3.849  16.738  0.00  0.00    +0.000 OA
ATOM     34  C   UNL     1      48.837   5.887  17.929  0.00  0.00    +0.000 A 
ATOM     35  H   UNL     1      49.097   2.766  18.948  0.00  0.00    +0.000 HD
ENDBRANCH  22  25
ENDBRANCH  20  21
ENDBRANCH   4  20
TORSDOF 8
ENDMDL
MODEL 2
REMARK VINA RESULT:    -8.164      2.593      4.152
REMARK INTER + INTRA:         -12.809
REMARK INTER:                 -12.004
REMARK INTRA:                  -0.806
REMARK UNBOUND:                -1.066
REMARK  Name = 
REMARK  8 active torsions:
REMARK  status: ('A' for Active; 'I' for Inactive)
REMARK    1  A    between atoms: N_1  and  C_2
REMARK    2  A    between atoms: C_2  and  N_3
REMARK    3  A    between atoms: C_2  and  C_11
REMARK    4  A    between atoms: N_3  and  C_4
REMARK    5  A    between atoms: C_4  and  C_5
REMARK    6  A    between atoms: C_14  and  C_15
REMARK    7  A    between atoms: C_15  and  N_16
REMARK    8  A    between atoms: C_17  and  C_19
REMARK                            x       y       z     vdW  Elec       q    Type
REMARK                         _______ _______ _______ _____ _____    ______ ____
ROOT
ATOM      1  C   UNL     1      45.413   3.378   8.244  0.00  0.00    +0.000 A 
ATOM      2  C   UNL     1      44.767   2.365   8.981  0.00  0.00    +0.000 A 
ATOM      3  C   UNL     1      44.307   2.598  10.279  0.00  0.00    +0.000 A 
ATOM      4  C   UNL     1      44.438   3.866  10.851  0.00  0.00    +0.000 A 
ATOM      5  C   UNL     1      45.038   4.887  10.106  0.00  0.00    +0.000 A 
ATOM      6  C   UNL     1      45.534   4.645   8.828  0.00  0.00    +0.000 A 
ENDROOT
BRANCH   1   7
ATOM      7  C   UNL     1      46.045   3.046   6.905  0.00  0.00    +0.000 C 
BRANCH   7   8
ATOM      8  N   UNL     1      46.965   4.066   6.451  0.00  0.00    +0.000 NA
ATOM      9  H   UNL     1      46.985   4.787   7.165  0.00  0.00    +0.000 HD
ATOM     10  H   UNL     1      46.555   4.517   5.639  0.00  0.00    +0.000 HD
ENDBRANCH   7   8
BRANCH   7  11
ATOM     11  N   UNL     1      46.860   1.845   6.927  0.00  0.00    +0.000 NA
ATOM     12  H   UNL     1      46.235   1.041   6.894  0.00  0.00    +0.000 HD
BRANCH  11  13
ATOM     13  C   UNL     1      47.716   1.754   5.729  0.00  0.00    +0.000 C 
BRANCH  13  14
ATOM     14  C   UNL     1      47.104   0.959   4.592  0.00  0.00    +0.000 A 
ATOM     15  C   UNL     1      46.254   1.566   3.674  0.00  0.00    +0.000 A 
ATOM     16  C   UNL     1      45.662   0.781   2.688  0.00  0.00    +0.000 A 
ATOM     17  C   UNL     1      45.933  -0.583   2.643  0.00  0.00    +0.000 A 
ATOM     18  C   UNL     1      46.795  -1.107   3.589  0.00  0.00    +0.000 A 
ATOM     19  N   UNL     1      47.382  -0.371   4.557  0.00  0.00    +0.000 NA
ENDBRANCH  13  14
ENDBRANCH  11  13
ENDBRANCH   7  11
ENDBRANCH   1   7
BRANCH   4  20
ATOM     20  C   UNL     1      44.007   4.141  12.264  0.00  0.00    +0.000 C 
BRANCH  20  21
ATOM     21  N   UNL     1      45.013   4.845  13.021  0.00  0.00    +0.000 N 
ATOM     22  C   UNL     1      46.152   4.249  13.497  0.00  0.00    +0.000 C 
ATOM     23  O   UNL     1      46.382   3.050  13.358  0.00  0.00    +0.000 OA
ATOM     24  H   UNL     1      44.809   5.809  13.259  0.00  0.00    +0.000 HD
BRANCH  22  25
ATOM     25  C   UNL     1      47.146   5.133  14.118  0.00  0.00    +0.000 A 
ATOM     26  C   UNL     1      47.725   6.138  13.352  0.00  0.00    +0.000 A 
ATOM     27  S   UNL     1      48.792   7.138  14.223  0.00  0.00    +0.000 S 
ATOM     28  C   UNL     1      48.564   6.227  15.642  0.00  0.00    +0.000 A 
ATOM     29  N   UNL     1      49.219   6.554  16.788  0.00  0.00    +0.000 NA
ATOM     30  C   UNL     1      48.986   5.764  17.779  0.00  0.00    +0.000 A 
ATOM     31  N   UNL     1      48.152   4.677  17.736  0.00  0.00    +0.000 N 
ATOM     32  C   UNL     1      47.416   4.350  16.617  0.00  0.00    +0.000 A 
ATOM     33  O   UNL     1      46.591   3.438  16.646  0.00  0.00    +0.000 OA
ATOM     34  C   UNL     1      47.671   5.189  15.457  0.00  0.00    +0.000 A 
ATOM     35  H   UNL     1      47.991   4.114  18.553  0.00  0.00    +0.000 HD
ENDBRANCH  22  25
ENDBRANCH  20  21
ENDBRANCH   4  20
TORSDOF 8
ENDMDL
MODEL 3
REMARK VINA RESULT:    -8.118      1.713      2.341
REMARK INTER + INTRA:         -12.744
REMARK INTER:                 -11.615
REMARK INTRA:                  -1.129
REMARK UNBOUND:                -1.066
REMARK  Name = 
REMARK  8 active torsions:
REMARK  status: ('A' for Active; 'I' for Inactive)
REMARK    1  A    between atoms: N_1  and  C_2
REMARK    2  A    between atoms: C_2  and  N_3
REMARK    3  A    between atoms: C_2  and  C_11
REMARK    4  A    between atoms: N_3  and  C_4
REMARK    5  A    between atoms: C_4  and  C_5
REMARK    6  A    between atoms: C_14  and  C_15
REMARK    7  A    between atoms: C_15  and  N_16
REMARK    8  A    between atoms: C_17  and  C_19
REMARK                            x       y       z     vdW  Elec       q    Type
REMARK                         _______ _______ _______ _____ _____    ______ ____
ROOT
ATOM      1  C   UNL     1      44.814   5.457  11.825  0.00  0.00    +0.000 A 
ATOM      2  C   UNL     1      45.618   6.525  11.382  0.00  0.00    +0.000 A 
ATOM      3  C   UNL     1      46.753   6.921  12.095  0.00  0.00    +0.000 A 
ATOM      4  C   UNL     1      47.135   6.221  13.244  0.00  0.00    +0.000 A 
ATOM      5  C   UNL     1      46.364   5.131  13.662  0.00  0.00    +0.000 A 
ATOM      6  C   UNL     1      45.211   4.764  12.975  0.00  0.00    +0.000 A 
ENDROOT
BRANCH   1   7
ATOM      7  C   UNL     1      43.503   5.161  11.120  0.00  0.00    +0.000 C 
BRANCH   7   8
ATOM      8  N   UNL     1      42.725   6.352  10.858  0.00  0.00    +0.000 NA
ATOM      9  H   UNL     1      43.383   7.102  10.670  0.00  0.00    +0.000 HD
ATOM     10  H   UNL     1      42.267   6.622  11.723  0.00  0.00    +0.000 HD
ENDBRANCH   7   8
BRANCH   7  11
ATOM     11  N   UNL     1      43.670   4.574   9.803  0.00  0.00    +0.000 NA
ATOM     12  H   UNL     1      44.380   5.111   9.307  0.00  0.00    +0.000 HD
BRANCH  11  13
ATOM     13  C   UNL     1      44.182   3.193   9.890  0.00  0.00    +0.000 C 
BRANCH  13  14
ATOM     14  C   UNL     1      45.247   2.863   8.862  0.00  0.00    +0.000 A 
ATOM     15  C   UNL     1      45.748   3.846   8.014  0.00  0.00    +0.000 A 
ATOM     16  C   UNL     1      46.675   3.481   7.041  0.00  0.00    +0.000 A 
ATOM     17  C   UNL     1      47.076   2.154   6.941  0.00  0.00    +0.000 A 
ATOM     18  C   UNL     1      46.535   1.240   7.826  0.00  0.00    +0.000 A 
ATOM     19  N   UNL     1      45.634   1.563   8.778  0.00  0.00    +0.000 NA
ENDBRANCH  13  14
ENDBRANCH  11  13
ENDBRANCH   7  11
ENDBRANCH   1   7
BRANCH   4  20
ATOM     20  C   UNL     1      48.316   6.650  14.069  0.00  0.00    +0.000 C 
BRANCH  20  21
ATOM     21  N   UNL     1      48.104   6.447  15.481  0.00  0.00    +0.000 N 
ATOM     22  C   UNL     1      49.119   6.190  16.366  0.00  0.00    +0.000 C 
ATOM     23  O   UNL     1      50.290   6.064  16.015  0.00  0.00    +0.000 OA
ATOM     24  H   UNL     1      47.141   6.427  15.798  0.00  0.00    +0.000 HD
BRANCH  22  25
ATOM     25  C   UNL     1      48.758   6.156  17.788  0.00  0.00    +0.000 A 
ATOM     26  C   UNL     1      48.921   4.972  18.496  0.00  0.00    +0.000 A 
ATOM     27  S   UNL     1      48.547   5.102  20.152  0.00  0.00    +0.000 S 
ATOM     28  C   UNL     1      48.097   6.733  19.970  0.00  0.00    +0.000 A 
ATOM     29  N   UNL     1      47.652   7.452  21.037  0.00  0.00    +0.000 NA
ATOM     30  C   UNL     1      47.311   8.663  20.757  0.00  0.00    +0.000 A 
ATOM     31  N   UNL     1      47.378   9.228  19.510  0.00  0.00    +0.000 N 
ATOM     32  C   UNL     1      47.885   8.559  18.417  0.00  0.00    +0.000 A 
ATOM     33  O   UNL     1      48.037   9.131  17.340  0.00  0.00    +0.000 OA
ATOM     34  C   UNL     1      48.251   7.175  18.670  0.00  0.00    +0.000 A 
ATOM     35  H   UNL     1      47.120  10.189  19.363  0.00  0.00    +0.000 HD
ENDBRANCH  22  25
ENDBRANCH  20  21
ENDBRANCH   4  20
TORSDOF 8
ENDMDL
MODEL 4
REMARK VINA RESULT:    -7.941      1.664      1.966
REMARK INTER + INTRA:         -12.488
REMARK INTER:                 -11.391
REMARK INTRA:                  -1.097
REMARK UNBOUND:                -1.066
REMARK  Name = 
REMARK  8 active torsions:
REMARK  status: ('A' for Active; 'I' for Inactive)
REMARK    1  A    between atoms: N_1  and  C_2
REMARK    2  A    between atoms: C_2  and  N_3
REMARK    3  A    between atoms: C_2  and  C_11
REMARK    4  A    between atoms: N_3  and  C_4
REMARK    5  A    between atoms: C_4  and  C_5
REMARK    6  A    between atoms: C_14  and  C_15
REMARK    7  A    between atoms: C_15  and  N_16
REMARK    8  A    between atoms: C_17  and  C_19
REMARK                            x       y       z     vdW  Elec       q    Type
REMARK                         _______ _______ _______ _____ _____    ______ ____
ROOT
ATOM      1  C   UNL     1      44.946   6.196  11.598  0.00  0.00    +0.000 A 
ATOM      2  C   UNL     1      45.190   7.583  11.626  0.00  0.00    +0.000 A 
ATOM      3  C   UNL     1      46.387   8.096  12.132  0.00  0.00    +0.000 A 
ATOM      4  C   UNL     1      47.389   7.228  12.575  0.00  0.00    +0.000 A 
ATOM      5  C   UNL     1      47.168   5.848  12.506  0.00  0.00    +0.000 A 
ATOM      6  C   UNL     1      45.960   5.337  12.041  0.00  0.00    +0.000 A 
ENDROOT
BRANCH   1   7
ATOM      7  C   UNL     1      43.576   5.682  11.196  0.00  0.00    +0.000 C 
BRANCH   7   8
ATOM      8  N   UNL     1      42.603   6.741  11.041  0.00  0.00    +0.000 NA
ATOM      9  H   UNL     1      41.766   6.451  11.536  0.00  0.00    +0.000 HD
ATOM     10  H   UNL     1      42.328   6.772  10.064  0.00  0.00    +0.000 HD
ENDBRANCH   7   8
BRANCH   7  11
ATOM     11  N   UNL     1      43.558   5.019   9.904  0.00  0.00    +0.000 NA
ATOM     12  H   UNL     1      44.247   5.475   9.308  0.00  0.00    +0.000 HD
BRANCH  11  13
ATOM     13  C   UNL     1      43.977   3.609  10.017  0.00  0.00    +0.000 C 
BRANCH  13  14
ATOM     14  C   UNL     1      45.064   3.209   9.039  0.00  0.00    +0.000 A 
ATOM     15  C   UNL     1      45.677   4.157   8.226  0.00  0.00    +0.000 A 
ATOM     16  C   UNL     1      46.622   3.732   7.295  0.00  0.00    +0.000 A 
ATOM     17  C   UNL     1      46.930   2.379   7.202  0.00  0.00    +0.000 A 
ATOM     18  C   UNL     1      46.281   1.502   8.052  0.00  0.00    +0.000 A 
ATOM     19  N   UNL     1      45.360   1.885   8.961  0.00  0.00    +0.000 NA
ENDBRANCH  13  14
ENDBRANCH  11  13
ENDBRANCH   7  11
ENDBRANCH   1   7
BRANCH   4  20
ATOM     20  C   UNL     1      48.666   7.742  13.177  0.00  0.00    +0.000 C 
BRANCH  20  21
ATOM     21  N   UNL     1      49.055   7.006  14.355  0.00  0.00    +0.000 N 
ATOM     22  C   UNL     1      48.810   7.443  15.631  0.00  0.00    +0.000 C 
ATOM     23  O   UNL     1      48.281   8.525  15.873  0.00  0.00    +0.000 OA
ATOM     24  H   UNL     1      49.598   6.163  14.205  0.00  0.00    +0.000 HD
BRANCH  22  25
ATOM     25  C   UNL     1      49.134   6.511  16.718  0.00  0.00    +0.000 A 
ATOM     26  C   UNL     1      50.103   6.871  17.647  0.00  0.00    +0.000 A 
ATOM     27  S   UNL     1      50.313   5.736  18.898  0.00  0.00    +0.000 S 
ATOM     28  C   UNL     1      49.157   4.693  18.210  0.00  0.00    +0.000 A 
ATOM     29  N   UNL     1      48.861   3.502  18.798  0.00  0.00    +0.000 NA
ATOM     30  C   UNL     1      47.997   2.793  18.157  0.00  0.00    +0.000 A 
ATOM     31  N   UNL     1      47.391   3.165  16.986  0.00  0.00    +0.000 N 
ATOM     32  C   UNL     1      47.609   4.390  16.393  0.00  0.00    +0.000 A 
ATOM     33  O   UNL     1      46.965   4.739  15.405  0.00  0.00    +0.000 OA
ATOM     34  C   UNL     1      48.606   5.215  17.056  0.00  0.00    +0.000 A 
ATOM     35  H   UNL     1      46.703   2.576  16.548  0.00  0.00    +0.000 HD
ENDBRANCH  22  25
ENDBRANCH  20  21
ENDBRANCH   4  20
TORSDOF 8
ENDMDL
MODEL 5
REMARK VINA RESULT:    -7.780      2.977      5.051
REMARK INTER + INTRA:         -12.256
REMARK INTER:                 -11.384
REMARK INTRA:                  -0.872
REMARK UNBOUND:                -1.066
REMARK  Name = 
REMARK  8 active torsions:
REMARK  status: ('A' for Active; 'I' for Inactive)
REMARK    1  A    between atoms: N_1  and  C_2
REMARK    2  A    between atoms: C_2  and  N_3
REMARK    3  A    between atoms: C_2  and  C_11
REMARK    4  A    between atoms: N_3  and  C_4
REMARK    5  A    between atoms: C_4  and  C_5
REMARK    6  A    between atoms: C_14  and  C_15
REMARK    7  A    between atoms: C_15  and  N_16
REMARK    8  A    between atoms: C_17  and  C_19
REMARK                            x       y       z     vdW  Elec       q    Type
REMARK                         _______ _______ _______ _____ _____    ______ ____
ROOT
ATOM      1  C   UNL     1      45.392   3.287   8.145  0.00  0.00    +0.000 A 
ATOM      2  C   UNL     1      44.830   2.234   8.894  0.00  0.00    +0.000 A 
ATOM      3  C   UNL     1      44.339   2.448  10.184  0.00  0.00    +0.000 A 
ATOM      4  C   UNL     1      44.352   3.733  10.734  0.00  0.00    +0.000 A 
ATOM      5  C   UNL     1      44.868   4.789   9.976  0.00  0.00    +0.000 A 
ATOM      6  C   UNL     1      45.396   4.569   8.707  0.00  0.00    +0.000 A 
ENDROOT
BRANCH   1   7
ATOM      7  C   UNL     1      46.064   2.989   6.817  0.00  0.00    +0.000 C 
BRANCH   7   8
ATOM      8  N   UNL     1      46.971   4.036   6.400  0.00  0.00    +0.000 NA
ATOM      9  H   UNL     1      47.504   3.673   5.617  0.00  0.00    +0.000 HD
ATOM     10  H   UNL     1      47.655   4.168   7.139  0.00  0.00    +0.000 HD
ENDBRANCH   7   8
BRANCH   7  11
ATOM     11  N   UNL     1      46.905   1.806   6.842  0.00  0.00    +0.000 NA
ATOM     12  H   UNL     1      46.298   0.988   6.835  0.00  0.00    +0.000 HD
BRANCH  11  13
ATOM     13  C   UNL     1      47.739   1.713   5.629  0.00  0.00    +0.000 C 
BRANCH  13  14
ATOM     14  C   UNL     1      47.109   0.911   4.507  0.00  0.00    +0.000 A 
ATOM     15  C   UNL     1      46.250   1.515   3.594  0.00  0.00    +0.000 A 
ATOM     16  C   UNL     1      45.641   0.724   2.622  0.00  0.00    +0.000 A 
ATOM     17  C   UNL     1      45.905  -0.641   2.587  0.00  0.00    +0.000 A 
ATOM     18  C   UNL     1      46.776  -1.162   3.526  0.00  0.00    +0.000 A 
ATOM     19  N   UNL     1      47.378  -0.421   4.480  0.00  0.00    +0.000 NA
ENDBRANCH  13  14
ENDBRANCH  11  13
ENDBRANCH   7  11
ENDBRANCH   1   7
BRANCH   4  20
ATOM     20  C   UNL     1      43.885   3.992  12.138  0.00  0.00    +0.000 C 
BRANCH  20  21
ATOM     21  N   UNL     1      44.856   4.720  12.917  0.00  0.00    +0.000 N 
ATOM     22  C   UNL     1      46.007   4.155  13.404  0.00  0.00    +0.000 C 
ATOM     23  O   UNL     1      46.278   2.965  13.256  0.00  0.00    +0.000 OA
ATOM     24  H   UNL     1      44.619   5.674  13.163  0.00  0.00    +0.000 HD
BRANCH  22  25
ATOM     25  C   UNL     1      46.963   5.063  14.049  0.00  0.00    +0.000 A 
ATOM     26  C   UNL     1      47.369   4.798  15.352  0.00  0.00    +0.000 A 
ATOM     27  S   UNL     1      48.543   5.881  15.940  0.00  0.00    +0.000 S 
ATOM     28  C   UNL     1      48.508   6.779  14.495  0.00  0.00    +0.000 A 
ATOM     29  N   UNL     1      49.293   7.880  14.344  0.00  0.00    +0.000 NA
ATOM     30  C   UNL     1      49.144   8.489  13.217  0.00  0.00    +0.000 A 
ATOM     31  N   UNL     1      48.289   8.097  12.221  0.00  0.00    +0.000 N 
ATOM     32  C   UNL     1      47.527   6.951  12.305  0.00  0.00    +0.000 A 
ATOM     33  O   UNL     1      46.856   6.567  11.348  0.00  0.00    +0.000 OA
ATOM     34  C   UNL     1      47.629   6.246  13.572  0.00  0.00    +0.000 A 
ATOM     35  H   UNL     1      48.239   8.602  11.352  0.00  0.00    +0.000 HD
ENDBRANCH  22  25
ENDBRANCH  20  21
ENDBRANCH   4  20
TORSDOF 8
ENDMDL
MODEL 6
REMARK VINA RESULT:    -7.608      1.771      2.178
REMARK INTER + INTRA:         -12.009
REMARK INTER:                 -10.914
REMARK INTRA:                  -1.095
REMARK UNBOUND:                -1.066
REMARK  Name = 
REMARK  8 active torsions:
REMARK  status: ('A' for Active; 'I' for Inactive)
REMARK    1  A    between atoms: N_1  and  C_2
REMARK    2  A    between atoms: C_2  and  N_3
REMARK    3  A    between atoms: C_2  and  C_11
REMARK    4  A    between atoms: N_3  and  C_4
REMARK    5  A    between atoms: C_4  and  C_5
REMARK    6  A    between atoms: C_14  and  C_15
REMARK    7  A    between atoms: C_15  and  N_16
REMARK    8  A    between atoms: C_17  and  C_19
REMARK                            x       y       z     vdW  Elec       q    Type
REMARK                         _______ _______ _______ _____ _____    ______ ____
ROOT
ATOM      1  C   UNL     1      45.000   4.581  12.179  0.00  0.00    +0.000 A 
ATOM      2  C   UNL     1      45.774   4.547  13.355  0.00  0.00    +0.000 A 
ATOM      3  C   UNL     1      46.722   5.537  13.626  0.00  0.00    +0.000 A 
ATOM      4  C   UNL     1      46.879   6.614  12.748  0.00  0.00    +0.000 A 
ATOM      5  C   UNL     1      46.079   6.676  11.602  0.00  0.00    +0.000 A 
ATOM      6  C   UNL     1      45.165   5.668  11.310  0.00  0.00    +0.000 A 
ENDROOT
BRANCH   1   7
ATOM      7  C   UNL     1      44.101   3.408  11.837  0.00  0.00    +0.000 C 
BRANCH   7   8
ATOM      8  N   UNL     1      42.919   3.802  11.101  0.00  0.00    +0.000 NA
ATOM      9  H   UNL     1      42.327   4.319  11.744  0.00  0.00    +0.000 HD
ATOM     10  H   UNL     1      42.392   2.962  10.883  0.00  0.00    +0.000 HD
ENDBRANCH   7   8
BRANCH   7  11
ATOM     11  N   UNL     1      44.726   2.429  10.965  0.00  0.00    +0.000 NA
ATOM     12  H   UNL     1      44.393   1.506  11.239  0.00  0.00    +0.000 HD
BRANCH  11  13
ATOM     13  C   UNL     1      44.316   2.618   9.561  0.00  0.00    +0.000 C 
BRANCH  13  14
ATOM     14  C   UNL     1      45.458   2.534   8.568  0.00  0.00    +0.000 A 
ATOM     15  C   UNL     1      45.847   3.649   7.833  0.00  0.00    +0.000 A 
ATOM     16  C   UNL     1      46.856   3.507   6.882  0.00  0.00    +0.000 A 
ATOM     17  C   UNL     1      47.447   2.262   6.693  0.00  0.00    +0.000 A 
ATOM     18  C   UNL     1      47.007   1.206   7.470  0.00  0.00    +0.000 A 
ATOM     19  N   UNL     1      46.030   1.314   8.396  0.00  0.00    +0.000 NA
ENDBRANCH  13  14
ENDBRANCH  11  13
ENDBRANCH   7  11
ENDBRANCH   1   7
BRANCH   4  20
ATOM     20  C   UNL     1      47.924   7.669  12.976  0.00  0.00    +0.000 C 
BRANCH  20  21
ATOM     21  N   UNL     1      49.041   7.180  13.747  0.00  0.00    +0.000 N 
ATOM     22  C   UNL     1      49.495   7.792  14.887  0.00  0.00    +0.000 C 
ATOM     23  O   UNL     1      49.013   8.838  15.316  0.00  0.00    +0.000 OA
ATOM     24  H   UNL     1      49.542   6.385  13.367  0.00  0.00    +0.000 HD
BRANCH  22  25
ATOM     25  C   UNL     1      50.542   7.089  15.638  0.00  0.00    +0.000 A 
ATOM     26  C   UNL     1      51.867   7.474  15.466  0.00  0.00    +0.000 A 
ATOM     27  S   UNL     1      52.962   6.634  16.461  0.00  0.00    +0.000 S 
ATOM     28  C   UNL     1      51.712   5.683  17.116  0.00  0.00    +0.000 A 
ATOM     29  N   UNL     1      51.982   4.728  18.047  0.00  0.00    +0.000 NA
ATOM     30  C   UNL     1      50.953   4.056  18.434  0.00  0.00    +0.000 A 
ATOM     31  N   UNL     1      49.674   4.253  17.985  0.00  0.00    +0.000 N 
ATOM     32  C   UNL     1      49.345   5.254  17.095  0.00  0.00    +0.000 A 
ATOM     33  O   UNL     1      48.172   5.477  16.800  0.00  0.00    +0.000 OA
ATOM     34  C   UNL     1      50.476   6.019  16.597  0.00  0.00    +0.000 A 
ATOM     35  H   UNL     1      48.908   3.711  18.347  0.00  0.00    +0.000 HD
ENDBRANCH  22  25
ENDBRANCH  20  21
ENDBRANCH   4  20
TORSDOF 8
ENDMDL
MODEL 7
REMARK VINA RESULT:    -7.594      1.791      2.528
REMARK INTER + INTRA:         -11.989
REMARK INTER:                 -11.175
REMARK INTRA:                  -0.814
REMARK UNBOUND:                -1.066
REMARK  Name = 
REMARK  8 active torsions:
REMARK  status: ('A' for Active; 'I' for Inactive)
REMARK    1  A    between atoms: N_1  and  C_2
REMARK    2  A    between atoms: C_2  and  N_3
REMARK    3  A    between atoms: C_2  and  C_11
REMARK    4  A    between atoms: N_3  and  C_4
REMARK    5  A    between atoms: C_4  and  C_5
REMARK    6  A    between atoms: C_14  and  C_15
REMARK    7  A    between atoms: C_15  and  N_16
REMARK    8  A    between atoms: C_17  and  C_19
REMARK                            x       y       z     vdW  Elec       q    Type
REMARK                         _______ _______ _______ _____ _____    ______ ____
ROOT
ATOM      1  C   UNL     1      44.510   5.700  12.133  0.00  0.00    +0.000 A 
ATOM      2  C   UNL     1      44.881   4.730  13.084  0.00  0.00    +0.000 A 
ATOM      3  C   UNL     1      46.083   4.830  13.788  0.00  0.00    +0.000 A 
ATOM      4  C   UNL     1      46.919   5.934  13.592  0.00  0.00    +0.000 A 
ATOM      5  C   UNL     1      46.532   6.923  12.681  0.00  0.00    +0.000 A 
ATOM      6  C   UNL     1      45.355   6.802  11.949  0.00  0.00    +0.000 A 
ENDROOT
BRANCH   1   7
ATOM      7  C   UNL     1      43.282   5.476  11.270  0.00  0.00    +0.000 C 
BRANCH   7   8
ATOM      8  N   UNL     1      42.536   6.692  11.030  0.00  0.00    +0.000 NA
ATOM      9  H   UNL     1      42.195   6.648  10.075  0.00  0.00    +0.000 HD
ATOM     10  H   UNL     1      43.193   7.467  11.034  0.00  0.00    +0.000 HD
ENDBRANCH   7   8
BRANCH   7  11
ATOM     11  N   UNL     1      43.588   5.001   9.933  0.00  0.00    +0.000 NA
ATOM     12  H   UNL     1      44.405   5.509   9.598  0.00  0.00    +0.000 HD
BRANCH  11  13
ATOM     13  C   UNL     1      43.962   3.574   9.942  0.00  0.00    +0.000 C 
BRANCH  13  14
ATOM     14  C   UNL     1      45.015   3.206   8.914  0.00  0.00    +0.000 A 
ATOM     15  C   UNL     1      45.462   1.895   8.789  0.00  0.00    +0.000 A 
ATOM     16  C   UNL     1      46.479   1.617   7.878  0.00  0.00    +0.000 A 
ATOM     17  C   UNL     1      47.018   2.650   7.119  0.00  0.00    +0.000 A 
ATOM     18  C   UNL     1      46.513   3.925   7.299  0.00  0.00    +0.000 A 
ATOM     19  N   UNL     1      45.530   4.224   8.175  0.00  0.00    +0.000 NA
ENDBRANCH  13  14
ENDBRANCH  11  13
ENDBRANCH   7  11
ENDBRANCH   1   7
BRANCH   4  20
ATOM     20  C   UNL     1      48.245   6.050  14.289  0.00  0.00    +0.000 C 
BRANCH  20  21
ATOM     21  N   UNL     1      48.104   6.300  15.703  0.00  0.00    +0.000 N 
ATOM     22  C   UNL     1      48.529   5.424  16.668  0.00  0.00    +0.000 C 
ATOM     23  O   UNL     1      49.021   4.330  16.403  0.00  0.00    +0.000 OA
ATOM     24  H   UNL     1      47.599   7.138  15.968  0.00  0.00    +0.000 HD
BRANCH  22  25
ATOM     25  C   UNL     1      48.451   5.889  18.058  0.00  0.00    +0.000 A 
ATOM     26  C   UNL     1      47.291   5.647  18.785  0.00  0.00    +0.000 A 
ATOM     27  S   UNL     1      47.374   6.164  20.405  0.00  0.00    +0.000 S 
ATOM     28  C   UNL     1      48.943   6.784  20.177  0.00  0.00    +0.000 A 
ATOM     29  N   UNL     1      49.603   7.391  21.200  0.00  0.00    +0.000 NA
ATOM     30  C   UNL     1      50.767   7.846  20.886  0.00  0.00    +0.000 A 
ATOM     31  N   UNL     1      51.339   7.747  19.644  0.00  0.00    +0.000 N 
ATOM     32  C   UNL     1      50.735   7.081  18.599  0.00  0.00    +0.000 A 
ATOM     33  O   UNL     1      51.323   6.912  17.533  0.00  0.00    +0.000 OA
ATOM     34  C   UNL     1      49.402   6.579  18.890  0.00  0.00    +0.000 A 
ATOM     35  H   UNL     1      52.264   8.102  19.470  0.00  0.00    +0.000 HD
ENDBRANCH  22  25
ENDBRANCH  20  21
ENDBRANCH   4  20
TORSDOF 8
ENDMDL
MODEL 8
REMARK VINA RESULT:    -7.169      3.415      8.565
REMARK INTER + INTRA:         -11.379
REMARK INTER:                  -9.867
REMARK INTRA:                  -1.512
REMARK UNBOUND:                -1.066
REMARK  Name = 
REMARK  8 active torsions:
REMARK  status: ('A' for Active; 'I' for Inactive)
REMARK    1  A    between atoms: N_1  and  C_2
REMARK    2  A    between atoms: C_2  and  N_3
REMARK    3  A    between atoms: C_2  and  C_11
REMARK    4  A    between atoms: N_3  and  C_4
REMARK    5  A    between atoms: C_4  and  C_5
REMARK    6  A    between atoms: C_14  and  C_15
REMARK    7  A    between atoms: C_15  and  N_16
REMARK    8  A    between atoms: C_17  and  C_19
REMARK                            x       y       z     vdW  Elec       q    Type
REMARK                         _______ _______ _______ _____ _____    ______ ____
ROOT
ATOM      1  C   UNL     1      48.729   7.976  16.418  0.00  0.00    +0.000 A 
ATOM      2  C   UNL     1      48.953   6.806  15.665  0.00  0.00    +0.000 A 
ATOM      3  C   UNL     1      48.848   6.812  14.272  0.00  0.00    +0.000 A 
ATOM      4  C   UNL     1      48.564   8.002  13.597  0.00  0.00    +0.000 A 
ATOM      5  C   UNL     1      48.386   9.176  14.338  0.00  0.00    +0.000 A 
ATOM      6  C   UNL     1      48.450   9.162  15.728  0.00  0.00    +0.000 A 
ENDROOT
BRANCH   1   7
ATOM      7  C   UNL     1      48.690   7.898  17.933  0.00  0.00    +0.000 C 
BRANCH   7   8
ATOM      8  N   UNL     1      48.874   9.187  18.565  0.00  0.00    +0.000 NA
ATOM      9  H   UNL     1      48.497   9.885  17.933  0.00  0.00    +0.000 HD
ATOM     10  H   UNL     1      49.871   9.379  18.597  0.00  0.00    +0.000 HD
ENDBRANCH   7   8
BRANCH   7  11
ATOM     11  N   UNL     1      47.416   7.445  18.461  0.00  0.00    +0.000 NA
ATOM     12  H   UNL     1      46.833   7.164  17.674  0.00  0.00    +0.000 HD
BRANCH  11  13
ATOM     13  C   UNL     1      47.579   6.247  19.305  0.00  0.00    +0.000 C 
BRANCH  13  14
ATOM     14  C   UNL     1      47.921   4.989  18.532  0.00  0.00    +0.000 A 
ATOM     15  C   UNL     1      49.204   4.452  18.573  0.00  0.00    +0.000 A 
ATOM     16  C   UNL     1      49.490   3.335  17.792  0.00  0.00    +0.000 A 
ATOM     17  C   UNL     1      48.492   2.785  16.995  0.00  0.00    +0.000 A 
ATOM     18  C   UNL     1      47.241   3.373  17.016  0.00  0.00    +0.000 A 
ATOM     19  N   UNL     1      46.936   4.457  17.761  0.00  0.00    +0.000 NA
ENDBRANCH  13  14
ENDBRANCH  11  13
ENDBRANCH   7  11
ENDBRANCH   1   7
BRANCH   4  20
ATOM     20  C   UNL     1      48.388   8.038  12.105  0.00  0.00    +0.000 C 
BRANCH  20  21
ATOM     21  N   UNL     1      47.627   6.915  11.614  0.00  0.00    +0.000 N 
ATOM     22  C   UNL     1      46.259   6.914  11.524  0.00  0.00    +0.000 C 
ATOM     23  O   UNL     1      45.567   7.856  11.903  0.00  0.00    +0.000 OA
ATOM     24  H   UNL     1      48.148   6.073  11.398  0.00  0.00    +0.000 HD
BRANCH  22  25
ATOM     25  C   UNL     1      45.644   5.755  10.865  0.00  0.00    +0.000 A 
ATOM     26  C   UNL     1      45.833   5.579   9.499  0.00  0.00    +0.000 A 
ATOM     27  S   UNL     1      45.139   4.150   8.887  0.00  0.00    +0.000 S 
ATOM     28  C   UNL     1      44.509   3.745  10.415  0.00  0.00    +0.000 A 
ATOM     29  N   UNL     1      43.776   2.611  10.584  0.00  0.00    +0.000 NA
ATOM     30  C   UNL     1      43.328   2.440  11.780  0.00  0.00    +0.000 A 
ATOM     31  N   UNL     1      43.550   3.293  12.830  0.00  0.00    +0.000 N 
ATOM     32  C   UNL     1      44.342   4.416  12.720  0.00  0.00    +0.000 A 
ATOM     33  O   UNL     1      44.614   5.098  13.707  0.00  0.00    +0.000 OA
ATOM     34  C   UNL     1      44.843   4.676  11.380  0.00  0.00    +0.000 A 
ATOM     35  H   UNL     1      43.194   3.089  13.748  0.00  0.00    +0.000 HD
ENDBRANCH  22  25
ENDBRANCH  20  21
ENDBRANCH   4  20
TORSDOF 8
ENDMDL
MODEL 9
REMARK VINA RESULT:    -7.099      1.927      2.574
REMARK INTER + INTRA:         -11.277
REMARK INTER:                 -10.491
REMARK INTRA:                  -0.786
REMARK UNBOUND:                -1.066
REMARK  Name = 
REMARK  8 active torsions:
REMARK  status: ('A' for Active; 'I' for Inactive)
REMARK    1  A    between atoms: N_1  and  C_2
REMARK    2  A    between atoms: C_2  and  N_3
REMARK    3  A    between atoms: C_2  and  C_11
REMARK    4  A    between atoms: N_3  and  C_4
REMARK    5  A    between atoms: C_4  and  C_5
REMARK    6  A    between atoms: C_14  and  C_15
REMARK    7  A    between atoms: C_15  and  N_16
REMARK    8  A    between atoms: C_17  and  C_19
REMARK                            x       y       z     vdW  Elec       q    Type
REMARK                         _______ _______ _______ _____ _____    ______ ____
ROOT
ATOM      1  C   UNL     1      45.809   5.242  12.359  0.00  0.00    +0.000 A 
ATOM      2  C   UNL     1      46.960   5.162  13.167  0.00  0.00    +0.000 A 
ATOM      3  C   UNL     1      47.565   6.312  13.679  0.00  0.00    +0.000 A 
ATOM      4  C   UNL     1      46.999   7.567  13.435  0.00  0.00    +0.000 A 
ATOM      5  C   UNL     1      45.830   7.647  12.671  0.00  0.00    +0.000 A 
ATOM      6  C   UNL     1      45.252   6.505  12.126  0.00  0.00    +0.000 A 
ENDROOT
BRANCH   1   7
ATOM      7  C   UNL     1      45.275   3.991  11.685  0.00  0.00    +0.000 C 
BRANCH   7   8
ATOM      8  N   UNL     1      45.255   2.844  12.568  0.00  0.00    +0.000 NA
ATOM      9  H   UNL     1      44.959   2.047  12.014  0.00  0.00    +0.000 HD
ATOM     10  H   UNL     1      44.509   2.982  13.242  0.00  0.00    +0.000 HD
ENDBRANCH   7   8
BRANCH   7  11
ATOM     11  N   UNL     1      43.894   4.105  11.254  0.00  0.00    +0.000 NA
ATOM     12  H   UNL     1      43.503   4.948  11.672  0.00  0.00    +0.000 HD
BRANCH  11  13
ATOM     13  C   UNL     1      43.799   4.286   9.793  0.00  0.00    +0.000 C 
BRANCH  13  14
ATOM     14  C   UNL     1      44.866   3.546   9.010  0.00  0.00    +0.000 A 
ATOM     15  C   UNL     1      45.697   4.222   8.122  0.00  0.00    +0.000 A 
ATOM     16  C   UNL     1      46.616   3.490   7.374  0.00  0.00    +0.000 A 
ATOM     17  C   UNL     1      46.683   2.110   7.533  0.00  0.00    +0.000 A 
ATOM     18  C   UNL     1      45.826   1.515   8.441  0.00  0.00    +0.000 A 
ATOM     19  N   UNL     1      44.924   2.199   9.177  0.00  0.00    +0.000 NA
ENDBRANCH  13  14
ENDBRANCH  11  13
ENDBRANCH   7  11
ENDBRANCH   1   7
BRANCH   4  20
ATOM     20  C   UNL     1      47.650   8.831  13.922  0.00  0.00    +0.000 C 
BRANCH  20  21
ATOM     21  N   UNL     1      47.407   9.071  15.323  0.00  0.00    +0.000 N 
ATOM     22  C   UNL     1      48.358   8.891  16.294  0.00  0.00    +0.000 C 
ATOM     23  O   UNL     1      49.483   8.461  16.051  0.00  0.00    +0.000 OA
ATOM     24  H   UNL     1      46.459   9.316  15.584  0.00  0.00    +0.000 HD
BRANCH  22  25
ATOM     25  C   UNL     1      48.001   9.321  17.652  0.00  0.00    +0.000 A 
ATOM     26  C   UNL     1      47.785  10.672  17.895  0.00  0.00    +0.000 A 
ATOM     27  S   UNL     1      47.294  11.015  19.488  0.00  0.00    +0.000 S 
ATOM     28  C   UNL     1      47.411   9.375  19.928  0.00  0.00    +0.000 A 
ATOM     29  N   UNL     1      47.131   8.976  21.198  0.00  0.00    +0.000 NA
ATOM     30  C   UNL     1      47.292   7.715  21.408  0.00  0.00    +0.000 A 
ATOM     31  N   UNL     1      47.702   6.810  20.464  0.00  0.00    +0.000 N 
ATOM     32  C   UNL     1      47.930   7.158  19.150  0.00  0.00    +0.000 A 
ATOM     33  O   UNL     1      48.186   6.303  18.304  0.00  0.00    +0.000 OA
ATOM     34  C   UNL     1      47.798   8.578  18.868  0.00  0.00    +0.000 A 
ATOM     35  H   UNL     1      47.784   5.832  20.685  0.00  0.00    +0.000 HD
ENDBRANCH  22  25
ENDBRANCH  20  21
ENDBRANCH   4  20
TORSDOF 8
ENDMDL
