MODEL 1
REMARK VINA RESULT:    -8.225      0.000      0.000
REMARK INTER + INTRA:         -12.697
REMARK INTER:                 -11.592
REMARK INTRA:                  -1.105
REMARK UNBOUND:                -1.105
REMARK  Name = 
REMARK  7 active torsions:
REMARK  status: ('A' for Active; 'I' for Inactive)
REMARK    1  A    between atoms: C_2  and  C_20
REMARK    2  A    between atoms: N_3  and  C_4
REMARK    3  A    between atoms: C_4  and  C_5
REMARK    4  A    between atoms: C_8  and  C_9
REMARK    5  A    between atoms: C_9  and  N_10
REMARK    6  A    between atoms: N_10  and  C_11
REMARK    7  A    between atoms: C_11  and  C_12
REMARK                            x       y       z     vdW  Elec       q    Type
REMARK                         _______ _______ _______ _____ _____    ______ ____
ROOT
ATOM      1  C   UNL     1      48.220   6.519  13.374  0.00  0.00    +0.000 C 
ENDROOT
BRANCH   1   2
ATOM      2  C   UNL     1      46.995   5.905  12.746  0.00  0.00    +0.000 A 
ATOM      3  C   UNL     1      46.448   6.477  11.594  0.00  0.00    +0.000 A 
ATOM      4  C   UNL     1      45.310   5.928  11.003  0.00  0.00    +0.000 A 
ATOM      5  C   UNL     1      44.696   4.781  11.535  0.00  0.00    +0.000 A 
ATOM      6  C   UNL     1      45.222   4.236  12.715  0.00  0.00    +0.000 A 
ATOM      7  C   UNL     1      46.358   4.795  13.317  0.00  0.00    +0.000 A 
BRANCH   5   8
ATOM      8  C   UNL     1      43.467   4.173  10.883  0.00  0.00    +0.000 C 
BRANCH   8   9
ATOM      9  N   UNL     1      43.799   3.631   9.569  0.00  0.00    +0.000 NA
ATOM     10  H   UNL     1      44.341   4.323   9.054  0.00  0.00    +0.000 HD
BRANCH   9  11
ATOM     11  C   UNL     1      44.503   2.354   9.585  0.00  0.00    +0.000 C 
BRANCH  11  12
ATOM     12  C   UNL     1      45.746   2.476   8.672  0.00  0.00    +0.000 C 
ATOM     13  C   UNL     1      45.512   3.490   7.534  0.00  0.00    +0.000 C 
ATOM     14  C   UNL     1      46.725   3.608   6.616  0.00  0.00    +0.000 C 
ATOM     15  C   UNL     1      47.141   2.252   6.060  0.00  0.00    +0.000 C 
ATOM     16  C   UNL     1      47.383   1.245   7.181  0.00  0.00    +0.000 C 
ATOM     17  C   UNL     1      46.165   1.113   8.097  0.00  0.00    +0.000 C 
ENDBRANCH  11  12
ENDBRANCH   9  11
ENDBRANCH   8   9
ENDBRANCH   5   8
ENDBRANCH   1   2
BRANCH   1  20
ATOM     18  O   UNL     1      50.342   6.821  15.220  0.00  0.00    +0.000 OA
ATOM     19  C   UNL     1      49.187   6.761  15.633  0.00  0.00    +0.000 C 
ATOM     20  N   UNL     1      48.112   6.543  14.809  0.00  0.00    +0.000 N 
ATOM     21  H   UNL     1      47.182   6.706  15.171  0.00  0.00    +0.000 HD
BRANCH  19  22
ATOM     22  C   UNL     1      48.880   6.856  17.066  0.00  0.00    +0.000 A 
ATOM     23  C   UNL     1      48.502   8.071  17.618  0.00  0.00    +0.000 A 
ATOM     24  S   UNL     1      48.225   7.997  19.302  0.00  0.00    +0.000 S 
ATOM     25  C   UNL     1      48.551   6.327  19.339  0.00  0.00    +0.000 A 
ATOM     26  N   UNL     1      48.470   5.621  20.500  0.00  0.00    +0.000 NA
ATOM     27  C   UNL     1      48.701   4.357  20.372  0.00  0.00    +0.000 A 
ATOM     28  N   UNL     1      49.013   3.735  19.193  0.00  0.00    +0.000 N 
ATOM     29  C   UNL     1      49.184   4.417  18.012  0.00  0.00    +0.000 A 
ATOM     30  O   UNL     1      49.604   3.849  17.011  0.00  0.00    +0.000 OA
ATOM     31  C   UNL     1      48.891   5.835  18.091  0.00  0.00    +0.000 A 
ATOM     32  H   UNL     1      49.214   2.745  19.165  0.00  0.00    +0.000 HD
ENDBRANCH  19  22
ENDBRANCH   1  20
TORSDOF 7
ENDMDL
MODEL 2
REMARK VINA RESULT:    -7.802      1.723      2.998
REMARK INTER + INTRA:         -12.100
REMARK INTER:                 -10.874
REMARK INTRA:                  -1.226
REMARK UNBOUND:                -1.105
REMARK  Name = 
REMARK  7 active torsions:
REMARK  status: ('A' for Active; 'I' for Inactive)
REMARK    1  A    between atoms: C_2  and  C_20
REMARK    2  A    between atoms: N_3  and  C_4
REMARK    3  A    between atoms: C_4  and  C_5
REMARK    4  A    between atoms: C_8  and  C_9
REMARK    5  A    between atoms: C_9  and  N_10
REMARK    6  A    between atoms: N_10  and  C_11
REMARK    7  A    between atoms: C_11  and  C_12
REMARK                            x       y       z     vdW  Elec       q    Type
REMARK                         _______ _______ _______ _____ _____    ______ ____
ROOT
ATOM      1  C   UNL     1      48.385   6.408  13.711  0.00  0.00    +0.000 C 
ENDROOT
BRANCH   1   2
ATOM      2  C   UNL     1      47.145   6.046  12.937  0.00  0.00    +0.000 A 
ATOM      3  C   UNL     1      46.300   5.040  13.416  0.00  0.00    +0.000 A 
ATOM      4  C   UNL     1      45.150   4.686  12.708  0.00  0.00    +0.000 A 
ATOM      5  C   UNL     1      44.802   5.338  11.513  0.00  0.00    +0.000 A 
ATOM      6  C   UNL     1      45.674   6.315  11.015  0.00  0.00    +0.000 A 
ATOM      7  C   UNL     1      46.837   6.663  11.717  0.00  0.00    +0.000 A 
BRANCH   5   8
ATOM      8  C   UNL     1      43.542   4.963  10.752  0.00  0.00    +0.000 C 
BRANCH   8   9
ATOM      9  N   UNL     1      43.880   4.389   9.453  0.00  0.00    +0.000 NA
ATOM     10  H   UNL     1      44.590   4.970   9.011  0.00  0.00    +0.000 HD
BRANCH   9  11
ATOM     11  C   UNL     1      44.318   2.998   9.485  0.00  0.00    +0.000 C 
BRANCH  11  12
ATOM     12  C   UNL     1      45.185   2.737   8.231  0.00  0.00    +0.000 C 
ATOM     13  C   UNL     1      46.073   1.489   8.410  0.00  0.00    +0.000 C 
ATOM     14  C   UNL     1      46.946   1.228   7.186  0.00  0.00    +0.000 C 
ATOM     15  C   UNL     1      47.787   2.447   6.829  0.00  0.00    +0.000 C 
ATOM     16  C   UNL     1      46.916   3.685   6.641  0.00  0.00    +0.000 C 
ATOM     17  C   UNL     1      46.047   3.958   7.871  0.00  0.00    +0.000 C 
ENDBRANCH  11  12
ENDBRANCH   9  11
ENDBRANCH   8   9
ENDBRANCH   5   8
ENDBRANCH   1   2
BRANCH   1  20
ATOM     18  O   UNL     1      49.922   5.893  16.030  0.00  0.00    +0.000 OA
ATOM     19  C   UNL     1      48.898   6.564  16.122  0.00  0.00    +0.000 C 
ATOM     20  N   UNL     1      48.062   6.796  15.059  0.00  0.00    +0.000 N 
ATOM     21  H   UNL     1      47.354   7.513  15.146  0.00  0.00    +0.000 HD
BRANCH  19  22
ATOM     22  C   UNL     1      48.458   7.117  17.409  0.00  0.00    +0.000 A 
ATOM     23  C   UNL     1      48.368   6.297  18.525  0.00  0.00    +0.000 A 
ATOM     24  S   UNL     1      47.801   7.104  19.919  0.00  0.00    +0.000 S 
ATOM     25  C   UNL     1      47.705   8.588  19.090  0.00  0.00    +0.000 A 
ATOM     26  N   UNL     1      47.299   9.721  19.724  0.00  0.00    +0.000 NA
ATOM     27  C   UNL     1      47.316  10.780  18.985  0.00  0.00    +0.000 A 
ATOM     28  N   UNL     1      47.693  10.808  17.669  0.00  0.00    +0.000 N 
ATOM     29  C   UNL     1      48.034   9.678  16.965  0.00  0.00    +0.000 A 
ATOM     30  O   UNL     1      48.225   9.721  15.757  0.00  0.00    +0.000 OA
ATOM     31  C   UNL     1      48.076   8.466  17.763  0.00  0.00    +0.000 A 
ATOM     32  H   UNL     1      47.654  11.666  17.136  0.00  0.00    +0.000 HD
ENDBRANCH  19  22
ENDBRANCH   1  20
TORSDOF 7
ENDMDL
MODEL 3
REMARK VINA RESULT:    -7.456      3.737      5.592
REMARK INTER + INTRA:         -11.613
REMARK INTER:                 -10.850
REMARK INTRA:                  -0.762
REMARK UNBOUND:                -1.105
REMARK  Name = 
REMARK  7 active torsions:
REMARK  status: ('A' for Active; 'I' for Inactive)
REMARK    1  A    between atoms: C_2  and  C_20
REMARK    2  A    between atoms: N_3  and  C_4
REMARK    3  A    between atoms: C_4  and  C_5
REMARK    4  A    between atoms: C_8  and  C_9
REMARK    5  A    between atoms: C_9  and  N_10
REMARK    6  A    between atoms: N_10  and  C_11
REMARK    7  A    between atoms: C_11  and  C_12
REMARK                            x       y       z     vdW  Elec       q    Type
REMARK                         _______ _______ _______ _____ _____    ______ ____
ROOT
ATOM      1  C   UNL     1      47.732   6.233  13.866  0.00  0.00    +0.000 C 
ENDROOT
BRANCH   1   2
ATOM      2  C   UNL     1      46.660   5.464  13.139  0.00  0.00    +0.000 A 
ATOM      3  C   UNL     1      46.550   4.083  13.328  0.00  0.00    +0.000 A 
ATOM      4  C   UNL     1      45.568   3.353  12.658  0.00  0.00    +0.000 A 
ATOM      5  C   UNL     1      44.656   3.983  11.795  0.00  0.00    +0.000 A 
ATOM      6  C   UNL     1      44.796   5.361  11.575  0.00  0.00    +0.000 A 
ATOM      7  C   UNL     1      45.791   6.093  12.237  0.00  0.00    +0.000 A 
BRANCH   5   8
ATOM      8  C   UNL     1      43.576   3.191  11.078  0.00  0.00    +0.000 C 
BRANCH   8   9
ATOM      9  N   UNL     1      43.901   3.045   9.663  0.00  0.00    +0.000 NA
ATOM     10  H   UNL     1      44.428   3.863   9.359  0.00  0.00    +0.000 HD
BRANCH   9  11
ATOM     11  C   UNL     1      44.623   1.827   9.315  0.00  0.00    +0.000 C 
BRANCH  11  12
ATOM     12  C   UNL     1      45.875   2.225   8.498  0.00  0.00    +0.000 C 
ATOM     13  C   UNL     1      45.556   3.344   7.486  0.00  0.00    +0.000 C 
ATOM     14  C   UNL     1      46.779   3.734   6.661  0.00  0.00    +0.000 C 
ATOM     15  C   UNL     1      47.392   2.527   5.962  0.00  0.00    +0.000 C 
ATOM     16  C   UNL     1      47.719   1.418   6.957  0.00  0.00    +0.000 C 
ATOM     17  C   UNL     1      46.493   1.014   7.779  0.00  0.00    +0.000 C 
ENDBRANCH  11  12
ENDBRANCH   9  11
ENDBRANCH   8   9
ENDBRANCH   5   8
ENDBRANCH   1   2
BRANCH   1  20
ATOM     18  O   UNL     1      49.238   7.227  11.687  0.00  0.00    +0.000 OA
ATOM     19  C   UNL     1      48.496   7.986  12.304  0.00  0.00    +0.000 C 
ATOM     20  N   UNL     1      47.790   7.598  13.414  0.00  0.00    +0.000 N 
ATOM     21  H   UNL     1      47.050   8.199  13.753  0.00  0.00    +0.000 HD
BRANCH  19  22
ATOM     22  C   UNL     1      48.363   9.399  11.927  0.00  0.00    +0.000 A 
ATOM     23  C   UNL     1      49.469  10.109  11.482  0.00  0.00    +0.000 A 
ATOM     24  S   UNL     1      49.132  11.746  11.131  0.00  0.00    +0.000 S 
ATOM     25  C   UNL     1      47.485  11.547  11.513  0.00  0.00    +0.000 A 
ATOM     26  N   UNL     1      46.609  12.583  11.403  0.00  0.00    +0.000 NA
ATOM     27  C   UNL     1      45.386  12.277  11.684  0.00  0.00    +0.000 A 
ATOM     28  N   UNL     1      44.960  11.035  12.072  0.00  0.00    +0.000 N 
ATOM     29  C   UNL     1      45.818   9.981  12.274  0.00  0.00    +0.000 A 
ATOM     30  O   UNL     1      45.421   8.929  12.759  0.00  0.00    +0.000 OA
ATOM     31  C   UNL     1      47.199  10.258  11.927  0.00  0.00    +0.000 A 
ATOM     32  H   UNL     1      43.992  10.869  12.308  0.00  0.00    +0.000 HD
ENDBRANCH  19  22
ENDBRANCH   1  20
TORSDOF 7
ENDMDL
MODEL 4
REMARK VINA RESULT:    -7.376      1.787      3.169
REMARK INTER + INTRA:         -11.500
REMARK INTER:                 -10.362
REMARK INTRA:                  -1.138
REMARK UNBOUND:                -1.105
REMARK  Name = 
REMARK  7 active torsions:
REMARK  status: ('A' for Active; 'I' for Inactive)
REMARK    1  A    between atoms: C_2  and  C_20
REMARK    2  A    between atoms: N_3  and  C_4
REMARK    3  A    between atoms: C_4  and  C_5
REMARK    4  A    between atoms: C_8  and  C_9
REMARK    5  A    between atoms: C_9  and  N_10
REMARK    6  A    between atoms: N_10  and  C_11
REMARK    7  A    between atoms: C_11  and  C_12
REMARK                            x       y       z     vdW  Elec       q    Type
REMARK                         _______ _______ _______ _____ _____    ______ ____
ROOT
ATOM      1  C   UNL     1      47.222   3.988  14.820  0.00  0.00    +0.000 C 
ENDROOT
BRANCH   1   2
ATOM      2  C   UNL     1      46.299   4.242  13.657  0.00  0.00    +0.000 A 
ATOM      3  C   UNL     1      45.881   5.547  13.379  0.00  0.00    +0.000 A 
ATOM      4  C   UNL     1      45.019   5.801  12.311  0.00  0.00    +0.000 A 
ATOM      5  C   UNL     1      44.565   4.763  11.480  0.00  0.00    +0.000 A 
ATOM      6  C   UNL     1      44.952   3.452  11.789  0.00  0.00    +0.000 A 
ATOM      7  C   UNL     1      45.807   3.193  12.869  0.00  0.00    +0.000 A 
BRANCH   5   8
ATOM      8  C   UNL     1      43.640   5.042  10.308  0.00  0.00    +0.000 C 
BRANCH   8   9
ATOM      9  N   UNL     1      43.983   4.193   9.171  0.00  0.00    +0.000 NA
ATOM     10  H   UNL     1      43.259   4.285   8.461  0.00  0.00    +0.000 HD
BRANCH   9  11
ATOM     11  C   UNL     1      45.295   4.442   8.585  0.00  0.00    +0.000 C 
BRANCH  11  12
ATOM     12  C   UNL     1      45.656   3.239   7.681  0.00  0.00    +0.000 C 
ATOM     13  C   UNL     1      46.130   2.031   8.514  0.00  0.00    +0.000 C 
ATOM     14  C   UNL     1      46.504   0.843   7.634  0.00  0.00    +0.000 C 
ATOM     15  C   UNL     1      47.546   1.226   6.589  0.00  0.00    +0.000 C 
ATOM     16  C   UNL     1      47.081   2.416   5.754  0.00  0.00    +0.000 C 
ATOM     17  C   UNL     1      46.715   3.615   6.632  0.00  0.00    +0.000 C 
ENDBRANCH  11  12
ENDBRANCH   9  11
ENDBRANCH   8   9
ENDBRANCH   5   8
ENDBRANCH   1   2
BRANCH   1  20
ATOM     18  O   UNL     1      49.322   4.481  16.650  0.00  0.00    +0.000 OA
ATOM     19  C   UNL     1      48.506   5.367  16.416  0.00  0.00    +0.000 C 
ATOM     20  N   UNL     1      47.421   5.182  15.598  0.00  0.00    +0.000 N 
ATOM     21  H   UNL     1      46.905   5.995  15.284  0.00  0.00    +0.000 HD
BRANCH  19  22
ATOM     22  C   UNL     1      48.602   6.685  17.056  0.00  0.00    +0.000 A 
ATOM     23  C   UNL     1      48.586   6.790  18.439  0.00  0.00    +0.000 A 
ATOM     24  S   UNL     1      48.666   8.401  19.001  0.00  0.00    +0.000 S 
ATOM     25  C   UNL     1      48.777   9.008  17.415  0.00  0.00    +0.000 A 
ATOM     26  N   UNL     1      48.894  10.344  17.181  0.00  0.00    +0.000 NA
ATOM     27  C   UNL     1      49.012  10.657  15.934  0.00  0.00    +0.000 A 
ATOM     28  N   UNL     1      49.015   9.760  14.899  0.00  0.00    +0.000 N 
ATOM     29  C   UNL     1      48.820   8.412  15.080  0.00  0.00    +0.000 A 
ATOM     30  O   UNL     1      48.685   7.661  14.122  0.00  0.00    +0.000 OA
ATOM     31  C   UNL     1      48.728   8.001  16.468  0.00  0.00    +0.000 A 
ATOM     32  H   UNL     1      49.080  10.074  13.941  0.00  0.00    +0.000 HD
ENDBRANCH  19  22
ENDBRANCH   1  20
TORSDOF 7
ENDMDL
MODEL 5
REMARK VINA RESULT:    -7.354      1.463      2.280
REMARK INTER + INTRA:         -11.469
REMARK INTER:                 -10.523
REMARK INTRA:                  -0.946
REMARK UNBOUND:                -1.105
REMARK  Name = 
REMARK  7 active torsions:
REMARK  status: ('A' for Active; 'I' for Inactive)
REMARK    1  A    between atoms: C_2  and  C_20
REMARK    2  A    between atoms: N_3  and  C_4
REMARK    3  A    between atoms: C_4  and  C_5
REMARK    4  A    between atoms: C_8  and  C_9
REMARK    5  A    between atoms: C_9  and  N_10
REMARK    6  A    between atoms: N_10  and  C_11
REMARK    7  A    between atoms: C_11  and  C_12
REMARK                            x       y       z     vdW  Elec       q    Type
REMARK                         _______ _______ _______ _____ _____    ______ ____
ROOT
ATOM      1  C   UNL     1      47.421   4.282  14.815  0.00  0.00    +0.000 C 
ENDROOT
BRANCH   1   2
ATOM      2  C   UNL     1      46.425   4.515  13.709  0.00  0.00    +0.000 A 
ATOM      3  C   UNL     1      45.843   3.421  13.061  0.00  0.00    +0.000 A 
ATOM      4  C   UNL     1      44.925   3.617  12.028  0.00  0.00    +0.000 A 
ATOM      5  C   UNL     1      44.549   4.910  11.626  0.00  0.00    +0.000 A 
ATOM      6  C   UNL     1      45.167   6.003  12.248  0.00  0.00    +0.000 A 
ATOM      7  C   UNL     1      46.099   5.808  13.277  0.00  0.00    +0.000 A 
BRANCH   5   8
ATOM      8  C   UNL     1      43.537   5.123  10.513  0.00  0.00    +0.000 C 
BRANCH   8   9
ATOM      9  N   UNL     1      43.861   4.290   9.359  0.00  0.00    +0.000 NA
ATOM     10  H   UNL     1      43.112   4.371   8.674  0.00  0.00    +0.000 HD
BRANCH   9  11
ATOM     11  C   UNL     1      45.146   4.573   8.732  0.00  0.00    +0.000 C 
BRANCH  11  12
ATOM     12  C   UNL     1      45.544   3.350   7.872  0.00  0.00    +0.000 C 
ATOM     13  C   UNL     1      45.900   2.134   8.752  0.00  0.00    +0.000 C 
ATOM     14  C   UNL     1      46.309   0.925   7.917  0.00  0.00    +0.000 C 
ATOM     15  C   UNL     1      47.452   1.262   6.966  0.00  0.00    +0.000 C 
ATOM     16  C   UNL     1      47.104   2.459   6.085  0.00  0.00    +0.000 C 
ATOM     17  C   UNL     1      46.704   3.679   6.919  0.00  0.00    +0.000 C 
ENDBRANCH  11  12
ENDBRANCH   9  11
ENDBRANCH   8   9
ENDBRANCH   5   8
ENDBRANCH   1   2
BRANCH   1  20
ATOM     18  O   UNL     1      49.607   5.059  16.434  0.00  0.00    +0.000 OA
ATOM     19  C   UNL     1      48.592   5.749  16.420  0.00  0.00    +0.000 C 
ATOM     20  N   UNL     1      47.465   5.401  15.718  0.00  0.00    +0.000 N 
ATOM     21  H   UNL     1      46.745   6.099  15.581  0.00  0.00    +0.000 HD
BRANCH  19  22
ATOM     22  C   UNL     1      48.491   6.979  17.216  0.00  0.00    +0.000 A 
ATOM     23  C   UNL     1      48.701   8.214  16.620  0.00  0.00    +0.000 A 
ATOM     24  S   UNL     1      48.582   9.525  17.708  0.00  0.00    +0.000 S 
ATOM     25  C   UNL     1      48.196   8.488  19.002  0.00  0.00    +0.000 A 
ATOM     26  N   UNL     1      47.946   8.981  20.246  0.00  0.00    +0.000 NA
ATOM     27  C   UNL     1      47.625   8.085  21.118  0.00  0.00    +0.000 A 
ATOM     28  N   UNL     1      47.538   6.742  20.865  0.00  0.00    +0.000 N 
ATOM     29  C   UNL     1      47.859   6.190  19.648  0.00  0.00    +0.000 A 
ATOM     30  O   UNL     1      47.909   4.976  19.500  0.00  0.00    +0.000 OA
ATOM     31  C   UNL     1      48.182   7.159  18.618  0.00  0.00    +0.000 A 
ATOM     32  H   UNL     1      47.311   6.089  21.601  0.00  0.00    +0.000 HD
ENDBRANCH  19  22
ENDBRANCH   1  20
TORSDOF 7
ENDMDL
MODEL 6
REMARK VINA RESULT:    -7.282      3.493      8.467
REMARK INTER + INTRA:         -11.367
REMARK INTER:                  -9.732
REMARK INTRA:                  -1.636
REMARK UNBOUND:                -1.105
REMARK  Name = 
REMARK  7 active torsions:
REMARK  status: ('A' for Active; 'I' for Inactive)
REMARK    1  A    between atoms: C_2  and  C_20
REMARK    2  A    between atoms: N_3  and  C_4
REMARK    3  A    between atoms: C_4  and  C_5
REMARK    4  A    between atoms: C_8  and  C_9
REMARK    5  A    between atoms: C_9  and  N_10
REMARK    6  A    between atoms: N_10  and  C_11
REMARK    7  A    between atoms: C_11  and  C_12
REMARK                            x       y       z     vdW  Elec       q    Type
REMARK                         _______ _______ _______ _____ _____    ______ ____
ROOT
ATOM      1  C   UNL     1      48.423   8.015  11.959  0.00  0.00    +0.000 C 
ENDROOT
BRANCH   1   2
ATOM      2  C   UNL     1      48.511   8.004  13.463  0.00  0.00    +0.000 A 
ATOM      3  C   UNL     1      48.250   9.176  14.179  0.00  0.00    +0.000 A 
ATOM      4  C   UNL     1      48.334   9.188  15.572  0.00  0.00    +0.000 A 
ATOM      5  C   UNL     1      48.663   8.026  16.290  0.00  0.00    +0.000 A 
ATOM      6  C   UNL     1      48.966   6.864  15.566  0.00  0.00    +0.000 A 
ATOM      7  C   UNL     1      48.895   6.854  14.166  0.00  0.00    +0.000 A 
BRANCH   5   8
ATOM      8  C   UNL     1      48.739   8.035  17.807  0.00  0.00    +0.000 C 
BRANCH   8   9
ATOM      9  N   UNL     1      47.785   7.086  18.373  0.00  0.00    +0.000 NA
ATOM     10  H   UNL     1      47.381   6.534  17.618  0.00  0.00    +0.000 HD
BRANCH   9  11
ATOM     11  C   UNL     1      48.323   6.206  19.404  0.00  0.00    +0.000 C 
BRANCH  11  12
ATOM     12  C   UNL     1      48.325   4.761  18.854  0.00  0.00    +0.000 C 
ATOM     13  C   UNL     1      49.688   4.396  18.232  0.00  0.00    +0.000 C 
ATOM     14  C   UNL     1      49.699   2.978  17.671  0.00  0.00    +0.000 C 
ATOM     15  C   UNL     1      48.570   2.763  16.670  0.00  0.00    +0.000 C 
ATOM     16  C   UNL     1      47.216   3.114  17.279  0.00  0.00    +0.000 C 
ATOM     17  C   UNL     1      47.196   4.540  17.834  0.00  0.00    +0.000 C 
ENDBRANCH  11  12
ENDBRANCH   9  11
ENDBRANCH   8   9
ENDBRANCH   5   8
ENDBRANCH   1   2
BRANCH   1  20
ATOM     18  O   UNL     1      45.601   7.832  11.867  0.00  0.00    +0.000 OA
ATOM     19  C   UNL     1      46.280   6.920  11.404  0.00  0.00    +0.000 C 
ATOM     20  N   UNL     1      47.649   6.901  11.476  0.00  0.00    +0.000 N 
ATOM     21  H   UNL     1      48.156   6.236  10.906  0.00  0.00    +0.000 HD
BRANCH  19  22
ATOM     22  C   UNL     1      45.659   5.739  10.791  0.00  0.00    +0.000 A 
ATOM     23  C   UNL     1      45.832   5.485   9.438  0.00  0.00    +0.000 A 
ATOM     24  S   UNL     1      45.004   4.093   8.895  0.00  0.00    +0.000 S 
ATOM     25  C   UNL     1      44.429   3.755  10.461  0.00  0.00    +0.000 A 
ATOM     26  N   UNL     1      43.656   2.663  10.705  0.00  0.00    +0.000 NA
ATOM     27  C   UNL     1      43.327   2.508  11.944  0.00  0.00    +0.000 A 
ATOM     28  N   UNL     1      43.694   3.349  12.961  0.00  0.00    +0.000 N 
ATOM     29  C   UNL     1      44.406   4.506  12.752  0.00  0.00    +0.000 A 
ATOM     30  O   UNL     1      44.591   5.305  13.661  0.00  0.00    +0.000 OA
ATOM     31  C   UNL     1      44.840   4.703  11.382  0.00  0.00    +0.000 A 
ATOM     32  H   UNL     1      43.378   3.189  13.906  0.00  0.00    +0.000 HD
ENDBRANCH  19  22
ENDBRANCH   1  20
TORSDOF 7
ENDMDL
MODEL 7
REMARK VINA RESULT:    -7.186      3.203      8.891
REMARK INTER + INTRA:         -11.232
REMARK INTER:                  -9.536
REMARK INTRA:                  -1.695
REMARK UNBOUND:                -1.105
REMARK  Name = 
REMARK  7 active torsions:
REMARK  status: ('A' for Active; 'I' for Inactive)
REMARK    1  A    between atoms: C_2  and  C_20
REMARK    2  A    between atoms: N_3  and  C_4
REMARK    3  A    between atoms: C_4  and  C_5
REMARK    4  A    between atoms: C_8  and  C_9
REMARK    5  A    between atoms: C_9  and  N_10
REMARK    6  A    between atoms: N_10  and  C_11
REMARK    7  A    between atoms: C_11  and  C_12
REMARK                            x       y       z     vdW  Elec       q    Type
REMARK                         _______ _______ _______ _____ _____    ______ ____
ROOT
ATOM      1  C   UNL     1      47.490   7.773  12.165  0.00  0.00    +0.000 C 
ENDROOT
BRANCH   1   2
ATOM      2  C   UNL     1      48.006   7.862  13.578  0.00  0.00    +0.000 A 
ATOM      3  C   UNL     1      47.870   9.058  14.289  0.00  0.00    +0.000 A 
ATOM      4  C   UNL     1      48.348   9.162  15.596  0.00  0.00    +0.000 A 
ATOM      5  C   UNL     1      48.959   8.071  16.236  0.00  0.00    +0.000 A 
ATOM      6  C   UNL     1      49.132   6.887  15.505  0.00  0.00    +0.000 A 
ATOM      7  C   UNL     1      48.664   6.785  14.187  0.00  0.00    +0.000 A 
BRANCH   5   8
ATOM      8  C   UNL     1      49.464   8.179  17.664  0.00  0.00    +0.000 C 
BRANCH   8   9
ATOM      9  N   UNL     1      49.847   6.866  18.174  0.00  0.00    +0.000 NA
ATOM     10  H   UNL     1      50.759   6.938  18.621  0.00  0.00    +0.000 HD
BRANCH   9  11
ATOM     11  C   UNL     1      48.889   6.252  19.086  0.00  0.00    +0.000 C 
BRANCH  11  12
ATOM     12  C   UNL     1      48.700   4.775  18.666  0.00  0.00    +0.000 C 
ATOM     13  C   UNL     1      49.933   4.242  17.909  0.00  0.00    +0.000 C 
ATOM     14  C   UNL     1      49.753   2.791  17.475  0.00  0.00    +0.000 C 
ATOM     15  C   UNL     1      48.486   2.606  16.649  0.00  0.00    +0.000 C 
ATOM     16  C   UNL     1      47.259   3.123  17.395  0.00  0.00    +0.000 C 
ATOM     17  C   UNL     1      47.429   4.583  17.822  0.00  0.00    +0.000 C 
ENDBRANCH  11  12
ENDBRANCH   9  11
ENDBRANCH   8   9
ENDBRANCH   5   8
ENDBRANCH   1   2
BRANCH   1  20
ATOM     18  O   UNL     1      44.684   7.433  12.282  0.00  0.00    +0.000 OA
ATOM     19  C   UNL     1      45.394   6.483  11.963  0.00  0.00    +0.000 C 
ATOM     20  N   UNL     1      46.764   6.548  11.953  0.00  0.00    +0.000 N 
ATOM     21  H   UNL     1      47.282   5.811  11.492  0.00  0.00    +0.000 HD
BRANCH  19  22
ATOM     22  C   UNL     1      44.817   5.175  11.627  0.00  0.00    +0.000 A 
ATOM     23  C   UNL     1      44.055   4.490  12.562  0.00  0.00    +0.000 A 
ATOM     24  S   UNL     1      43.503   2.971  12.010  0.00  0.00    +0.000 S 
ATOM     25  C   UNL     1      44.222   3.202  10.484  0.00  0.00    +0.000 A 
ATOM     26  N   UNL     1      44.109   2.263   9.505  0.00  0.00    +0.000 NA
ATOM     27  C   UNL     1      44.667   2.590   8.388  0.00  0.00    +0.000 A 
ATOM     28  N   UNL     1      45.334   3.764   8.160  0.00  0.00    +0.000 N 
ATOM     29  C   UNL     1      45.542   4.706   9.140  0.00  0.00    +0.000 A 
ATOM     30  O   UNL     1      46.264   5.674   8.939  0.00  0.00    +0.000 OA
ATOM     31  C   UNL     1      44.895   4.408  10.404  0.00  0.00    +0.000 A 
ATOM     32  H   UNL     1      45.775   3.946   7.270  0.00  0.00    +0.000 HD
ENDBRANCH  19  22
ENDBRANCH   1  20
TORSDOF 7
ENDMDL
MODEL 8
REMARK VINA RESULT:    -7.065      3.840      9.486
REMARK INTER + INTRA:         -11.062
REMARK INTER:                  -9.226
REMARK INTRA:                  -1.836
REMARK UNBOUND:                -1.105
REMARK  Name = 
REMARK  7 active torsions:
REMARK  status: ('A' for Active; 'I' for Inactive)
REMARK    1  A    between atoms: C_2  and  C_20
REMARK    2  A    between atoms: N_3  and  C_4
REMARK    3  A    between atoms: C_4  and  C_5
REMARK    4  A    between atoms: C_8  and  C_9
REMARK    5  A    between atoms: C_9  and  N_10
REMARK    6  A    between atoms: N_10  and  C_11
REMARK    7  A    between atoms: C_11  and  C_12
REMARK                            x       y       z     vdW  Elec       q    Type
REMARK                         _______ _______ _______ _____ _____    ______ ____
ROOT
ATOM      1  C   UNL     1      47.395   3.614  16.633  0.00  0.00    +0.000 C 
ENDROOT
BRANCH   1   2
ATOM      2  C   UNL     1      47.718   4.309  17.930  0.00  0.00    +0.000 A 
ATOM      3  C   UNL     1      46.915   5.367  18.367  0.00  0.00    +0.000 A 
ATOM      4  C   UNL     1      47.203   6.028  19.561  0.00  0.00    +0.000 A 
ATOM      5  C   UNL     1      48.290   5.640  20.362  0.00  0.00    +0.000 A 
ATOM      6  C   UNL     1      49.119   4.609  19.900  0.00  0.00    +0.000 A 
ATOM      7  C   UNL     1      48.838   3.952  18.693  0.00  0.00    +0.000 A 
BRANCH   5   8
ATOM      8  C   UNL     1      48.594   6.349  21.671  0.00  0.00    +0.000 C 
BRANCH   8   9
ATOM      9  N   UNL     1      48.709   7.789  21.459  0.00  0.00    +0.000 NA
ATOM     10  H   UNL     1      48.564   8.265  22.348  0.00  0.00    +0.000 HD
BRANCH   9  11
ATOM     11  C   UNL     1      49.961   8.228  20.854  0.00  0.00    +0.000 C 
BRANCH  11  12
ATOM     12  C   UNL     1      49.628   8.964  19.535  0.00  0.00    +0.000 C 
ATOM     13  C   UNL     1      48.162   9.440  19.510  0.00  0.00    +0.000 C 
ATOM     14  C   UNL     1      47.815  10.154  18.207  0.00  0.00    +0.000 C 
ATOM     15  C   UNL     1      48.125   9.285  16.993  0.00  0.00    +0.000 C 
ATOM     16  C   UNL     1      49.577   8.816  17.005  0.00  0.00    +0.000 C 
ATOM     17  C   UNL     1      49.927   8.090  18.306  0.00  0.00    +0.000 C 
ENDBRANCH  11  12
ENDBRANCH   9  11
ENDBRANCH   8   9
ENDBRANCH   5   8
ENDBRANCH   1   2
BRANCH   1  20
ATOM     18  O   UNL     1      47.178   3.181  13.846  0.00  0.00    +0.000 OA
ATOM     19  C   UNL     1      46.757   4.229  14.328  0.00  0.00    +0.000 C 
ATOM     20  N   UNL     1      46.891   4.543  15.656  0.00  0.00    +0.000 N 
ATOM     21  H   UNL     1      46.353   5.315  16.029  0.00  0.00    +0.000 HD
BRANCH  19  22
ATOM     22  C   UNL     1      46.131   5.259  13.490  0.00  0.00    +0.000 A 
ATOM     23  C   UNL     1      46.801   6.445  13.228  0.00  0.00    +0.000 A 
ATOM     24  S   UNL     1      45.902   7.539  12.272  0.00  0.00    +0.000 S 
ATOM     25  C   UNL     1      44.608   6.442  12.135  0.00  0.00    +0.000 A 
ATOM     26  N   UNL     1      43.497   6.753  11.413  0.00  0.00    +0.000 NA
ATOM     27  C   UNL     1      42.616   5.812  11.360  0.00  0.00    +0.000 A 
ATOM     28  N   UNL     1      42.738   4.591  11.968  0.00  0.00    +0.000 N 
ATOM     29  C   UNL     1      43.803   4.261  12.772  0.00  0.00    +0.000 A 
ATOM     30  O   UNL     1      43.808   3.218  13.414  0.00  0.00    +0.000 OA
ATOM     31  C   UNL     1      44.845   5.268  12.828  0.00  0.00    +0.000 A 
ATOM     32  H   UNL     1      41.996   3.907  11.913  0.00  0.00    +0.000 HD
ENDBRANCH  19  22
ENDBRANCH   1  20
TORSDOF 7
ENDMDL
MODEL 9
REMARK VINA RESULT:    -6.962      3.546      8.577
REMARK INTER + INTRA:         -10.916
REMARK INTER:                  -8.742
REMARK INTRA:                  -2.174
REMARK UNBOUND:                -1.105
REMARK  Name = 
REMARK  7 active torsions:
REMARK  status: ('A' for Active; 'I' for Inactive)
REMARK    1  A    between atoms: C_2  and  C_20
REMARK    2  A    between atoms: N_3  and  C_4
REMARK    3  A    between atoms: C_4  and  C_5
REMARK    4  A    between atoms: C_8  and  C_9
REMARK    5  A    between atoms: C_9  and  N_10
REMARK    6  A    between atoms: N_10  and  C_11
REMARK    7  A    between atoms: C_11  and  C_12
REMARK                            x       y       z     vdW  Elec       q    Type
REMARK                         _______ _______ _______ _____ _____    ______ ____
ROOT
ATOM      1  C   UNL     1      48.423   8.547  14.652  0.00  0.00    +0.000 C 
ENDROOT
BRANCH   1   2
ATOM      2  C   UNL     1      49.004   8.044  15.947  0.00  0.00    +0.000 A 
ATOM      3  C   UNL     1      50.061   7.128  15.922  0.00  0.00    +0.000 A 
ATOM      4  C   UNL     1      50.607   6.645  17.111  0.00  0.00    +0.000 A 
ATOM      5  C   UNL     1      50.127   7.076  18.359  0.00  0.00    +0.000 A 
ATOM      6  C   UNL     1      49.040   7.961  18.381  0.00  0.00    +0.000 A 
ATOM      7  C   UNL     1      48.481   8.437  17.187  0.00  0.00    +0.000 A 
BRANCH   5   8
ATOM      8  C   UNL     1      50.733   6.563  19.654  0.00  0.00    +0.000 C 
BRANCH   8   9
ATOM      9  N   UNL     1      50.497   5.129  19.798  0.00  0.00    +0.000 NA
ATOM     10  H   UNL     1      51.143   4.757  20.493  0.00  0.00    +0.000 HD
BRANCH   9  11
ATOM     11  C   UNL     1      49.128   4.757  20.135  0.00  0.00    +0.000 C 
BRANCH  11  12
ATOM     12  C   UNL     1      48.587   3.842  19.011  0.00  0.00    +0.000 C 
ATOM     13  C   UNL     1      49.728   3.291  18.133  0.00  0.00    +0.000 C 
ATOM     14  C   UNL     1      49.206   2.399  17.011  0.00  0.00    +0.000 C 
ATOM     15  C   UNL     1      48.166   3.119  16.161  0.00  0.00    +0.000 C 
ATOM     16  C   UNL     1      47.028   3.661  17.021  0.00  0.00    +0.000 C 
ATOM     17  C   UNL     1      47.545   4.566  18.142  0.00  0.00    +0.000 C 
ENDBRANCH  11  12
ENDBRANCH   9  11
ENDBRANCH   8   9
ENDBRANCH   5   8
ENDBRANCH   1   2
BRANCH   1  20
ATOM     18  O   UNL     1      48.863   6.464  12.789  0.00  0.00    +0.000 OA
ATOM     19  C   UNL     1      47.748   6.607  13.282  0.00  0.00    +0.000 C 
ATOM     20  N   UNL     1      47.437   7.634  14.135  0.00  0.00    +0.000 N 
ATOM     21  H   UNL     1      46.574   7.584  14.662  0.00  0.00    +0.000 HD
BRANCH  19  22
ATOM     22  C   UNL     1      46.638   5.710  12.935  0.00  0.00    +0.000 A 
ATOM     23  C   UNL     1      46.714   4.358  13.236  0.00  0.00    +0.000 A 
ATOM     24  S   UNL     1      45.350   3.468  12.722  0.00  0.00    +0.000 S 
ATOM     25  C   UNL     1      44.590   4.869  12.126  0.00  0.00    +0.000 A 
ATOM     26  N   UNL     1      43.354   4.811  11.560  0.00  0.00    +0.000 NA
ATOM     27  C   UNL     1      42.882   5.955  11.191  0.00  0.00    +0.000 A 
ATOM     28  N   UNL     1      43.535   7.151  11.329  0.00  0.00    +0.000 N 
ATOM     29  C   UNL     1      44.815   7.250  11.820  0.00  0.00    +0.000 A 
ATOM     30  O   UNL     1      45.419   8.315  11.794  0.00  0.00    +0.000 OA
ATOM     31  C   UNL     1      45.374   5.997  12.292  0.00  0.00    +0.000 A 
ATOM     32  H   UNL     1      43.123   8.009  10.991  0.00  0.00    +0.000 HD
ENDBRANCH  19  22
ENDBRANCH   1  20
TORSDOF 7
ENDMDL
