MODEL 1
REMARK VINA RESULT:    -7.788      0.000      0.000
REMARK INTER + INTRA:         -14.938
REMARK INTER:                 -13.480
REMARK INTRA:                  -1.458
REMARK UNBOUND:                -1.458
REMARK  Name = 
REMARK  13 active torsions:
REMARK  status: ('A' for Active; 'I' for Inactive)
REMARK    1  A    between atoms: C_2  and  C_3
REMARK    2  A    between atoms: C_3  and  C_4
REMARK    3  A    between atoms: C_4  and  N_5
REMARK    4  A    between atoms: C_4  and  C_24
REMARK    5  A    between atoms: N_5  and  C_6
REMARK    6  A    between atoms: C_6  and  C_7
REMARK    7  A    between atoms: C_11  and  C_12
REMARK    8  A    between atoms: C_12  and  N_13
REMARK    9  A    between atoms: N_13  and  C_14
REMARK   10  A    between atoms: N_13  and  C_17
REMARK   11  A    between atoms: C_14  and  C_15
REMARK   12  A    between atoms: C_15  and  O_16
REMARK   13  A    between atoms: C_24  and  C_26
REMARK                            x       y       z     vdW  Elec       q    Type
REMARK                         _______ _______ _______ _____ _____    ______ ____
ROOT
ATOM      1  N   UNL     1      49.111   5.756  15.635  0.00  0.00    +0.000 NA
ATOM      2  H   UNL     1      48.570   5.044  15.139  0.00  0.00    +0.000 HD
ENDROOT
BRANCH   1   3
ATOM      3  C   UNL     1      48.595   5.943  17.014  0.00  0.00    +0.000 C 
BRANCH   3   4
ATOM      4  C   UNL     1      48.996   4.743  17.918  0.00  0.00    +0.000 C 
ATOM      5  O   UNL     1      48.123   4.154  18.559  0.00  0.00    +0.000 OA
BRANCH   4   6
ATOM      6  C   UNL     1      50.431   4.377  18.055  0.00  0.00    +0.000 A 
ATOM      7  C   UNL     1      51.372   5.225  18.630  0.00  0.00    +0.000 A 
ATOM      8  S   UNL     1      52.902   4.505  18.847  0.00  0.00    +0.000 S 
ATOM      9  C   UNL     1      52.366   3.047  18.157  0.00  0.00    +0.000 A 
ATOM     10  N   UNL     1      53.186   1.963  18.112  0.00  0.00    +0.000 NA
ATOM     11  C   UNL     1      52.645   0.907  17.605  0.00  0.00    +0.000 A 
ATOM     12  N   UNL     1      51.373   0.845  17.105  0.00  0.00    +0.000 N 
ATOM     13  C   UNL     1      50.566   1.959  16.977  0.00  0.00    +0.000 A 
ATOM     14  O   UNL     1      49.577   1.941  16.256  0.00  0.00    +0.000 OA
ATOM     15  C   UNL     1      51.067   3.133  17.689  0.00  0.00    +0.000 A 
ATOM     16  H   UNL     1      51.046   0.024  16.619  0.00  0.00    +0.000 HD
ENDBRANCH   4   6
ENDBRANCH   3   4
BRANCH   3  17
ATOM     17  C   UNL     1      48.996   7.277  17.677  0.00  0.00    +0.000 C 
BRANCH  17  19
ATOM     18  N   UNL     1      47.522   7.677  20.001  0.00  0.00    +0.000 NA
ATOM     19  C   UNL     1      48.190   7.495  18.947  0.00  0.00    +0.000 C 
ENDBRANCH  17  19
ENDBRANCH   3  17
ENDBRANCH   1   3
BRANCH   1  20
ATOM     20  C   UNL     1      49.117   6.980  14.839  0.00  0.00    +0.000 C 
BRANCH  20  21
ATOM     21  C   UNL     1      48.035   6.966  13.791  0.00  0.00    +0.000 A 
ATOM     22  C   UNL     1      47.805   8.107  13.014  0.00  0.00    +0.000 A 
ATOM     23  C   UNL     1      46.685   8.176  12.190  0.00  0.00    +0.000 A 
ATOM     24  C   UNL     1      45.845   7.070  12.056  0.00  0.00    +0.000 A 
ATOM     25  C   UNL     1      46.172   5.854  12.672  0.00  0.00    +0.000 A 
ATOM     26  C   UNL     1      47.236   5.828  13.587  0.00  0.00    +0.000 A 
BRANCH  25  27
ATOM     27  C   UNL     1      45.490   4.566  12.240  0.00  0.00    +0.000 C 
BRANCH  27  28
ATOM     28  N   UNL     1      44.665   4.726  11.035  0.00  0.00    +0.000 N 
BRANCH  28  29
ATOM     29  C   UNL     1      45.092   4.042   9.858  0.00  0.00    +0.000 A 
ATOM     30  C   UNL     1      45.699   4.663   8.754  0.00  0.00    +0.000 A 
ATOM     31  C   UNL     1      46.162   3.927   7.656  0.00  0.00    +0.000 A 
ATOM     32  C   UNL     1      46.046   2.543   7.641  0.00  0.00    +0.000 A 
ATOM     33  C   UNL     1      45.454   1.897   8.721  0.00  0.00    +0.000 A 
ATOM     34  C   UNL     1      44.975   2.640   9.806  0.00  0.00    +0.000 A 
ENDBRANCH  28  29
BRANCH  28  35
ATOM     35  C   UNL     1      43.183   4.568  11.163  0.00  0.00    +0.000 C 
BRANCH  35  36
ATOM     36  C   UNL     1      42.413   5.620  11.976  0.00  0.00    +0.000 C 
BRANCH  36  37
ATOM     37  O   UNL     1      42.502   5.383  13.381  0.00  0.00    +0.000 OA
ATOM     38  H   UNL     1      42.262   6.215  13.826  0.00  0.00    +0.000 HD
ENDBRANCH  36  37
ENDBRANCH  35  36
ENDBRANCH  28  35
ENDBRANCH  27  28
ENDBRANCH  25  27
ENDBRANCH  20  21
ENDBRANCH   1  20
TORSDOF 13
ENDMDL
MODEL 2
REMARK VINA RESULT:    -7.432      1.817      2.360
REMARK INTER + INTRA:         -14.321
REMARK INTER:                 -12.262
REMARK INTRA:                  -2.060
REMARK UNBOUND:                -1.458
REMARK  Name = 
REMARK  13 active torsions:
REMARK  status: ('A' for Active; 'I' for Inactive)
REMARK    1  A    between atoms: C_2  and  C_3
REMARK    2  A    between atoms: C_3  and  C_4
REMARK    3  A    between atoms: C_4  and  N_5
REMARK    4  A    between atoms: C_4  and  C_24
REMARK    5  A    between atoms: N_5  and  C_6
REMARK    6  A    between atoms: C_6  and  C_7
REMARK    7  A    between atoms: C_11  and  C_12
REMARK    8  A    between atoms: C_12  and  N_13
REMARK    9  A    between atoms: N_13  and  C_14
REMARK   10  A    between atoms: N_13  and  C_17
REMARK   11  A    between atoms: C_14  and  C_15
REMARK   12  A    between atoms: C_15  and  O_16
REMARK   13  A    between atoms: C_24  and  C_26
REMARK                            x       y       z     vdW  Elec       q    Type
REMARK                         _______ _______ _______ _____ _____    ______ ____
ROOT
ATOM      1  N   UNL     1      49.729   6.540  15.169  0.00  0.00    +0.000 NA
ATOM      2  H   UNL     1      49.220   5.655  15.099  0.00  0.00    +0.000 HD
ENDROOT
BRANCH   1   3
ATOM      3  C   UNL     1      49.328   7.281  16.390  0.00  0.00    +0.000 C 
BRANCH   3   4
ATOM      4  C   UNL     1      48.651   6.328  17.415  0.00  0.00    +0.000 C 
ATOM      5  O   UNL     1      48.132   6.803  18.428  0.00  0.00    +0.000 OA
BRANCH   4   6
ATOM      6  C   UNL     1      48.707   4.858  17.197  0.00  0.00    +0.000 A 
ATOM      7  C   UNL     1      47.707   4.159  16.530  0.00  0.00    +0.000 A 
ATOM      8  S   UNL     1      48.092   2.523  16.238  0.00  0.00    +0.000 S 
ATOM      9  C   UNL     1      49.594   2.688  17.017  0.00  0.00    +0.000 A 
ATOM     10  N   UNL     1      50.473   1.652  17.048  0.00  0.00    +0.000 NA
ATOM     11  C   UNL     1      51.593   1.921  17.629  0.00  0.00    +0.000 A 
ATOM     12  N   UNL     1      51.900   3.118  18.215  0.00  0.00    +0.000 N 
ATOM     13  C   UNL     1      50.981   4.139  18.354  0.00  0.00    +0.000 A 
ATOM     14  O   UNL     1      51.174   5.058  19.140  0.00  0.00    +0.000 OA
ATOM     15  C   UNL     1      49.765   3.947  17.567  0.00  0.00    +0.000 A 
ATOM     16  H   UNL     1      52.747   3.231  18.752  0.00  0.00    +0.000 HD
ENDBRANCH   4   6
ENDBRANCH   3   4
BRANCH   3  17
ATOM     17  C   UNL     1      50.465   8.078  17.063  0.00  0.00    +0.000 C 
BRANCH  17  19
ATOM     18  N   UNL     1      52.933   6.990  16.384  0.00  0.00    +0.000 NA
ATOM     19  C   UNL     1      51.813   7.483  16.692  0.00  0.00    +0.000 C 
ENDBRANCH  17  19
ENDBRANCH   3  17
ENDBRANCH   1   3
BRANCH   1  20
ATOM     20  C   UNL     1      49.533   7.293  13.933  0.00  0.00    +0.000 C 
BRANCH  20  21
ATOM     21  C   UNL     1      48.120   7.172  13.427  0.00  0.00    +0.000 A 
ATOM     22  C   UNL     1      47.378   8.327  13.155  0.00  0.00    +0.000 A 
ATOM     23  C   UNL     1      46.016   8.234  12.884  0.00  0.00    +0.000 A 
ATOM     24  C   UNL     1      45.407   6.983  12.778  0.00  0.00    +0.000 A 
ATOM     25  C   UNL     1      46.176   5.813  12.850  0.00  0.00    +0.000 A 
ATOM     26  C   UNL     1      47.522   5.915  13.235  0.00  0.00    +0.000 A 
BRANCH  25  27
ATOM     27  C   UNL     1      45.605   4.488  12.371  0.00  0.00    +0.000 C 
BRANCH  27  28
ATOM     28  N   UNL     1      44.715   4.629  11.210  0.00  0.00    +0.000 N 
BRANCH  28  29
ATOM     29  C   UNL     1      45.149   4.047   9.983  0.00  0.00    +0.000 A 
ATOM     30  C   UNL     1      45.718   4.767   8.919  0.00  0.00    +0.000 A 
ATOM     31  C   UNL     1      46.192   4.129   7.765  0.00  0.00    +0.000 A 
ATOM     32  C   UNL     1      46.124   2.747   7.652  0.00  0.00    +0.000 A 
ATOM     33  C   UNL     1      45.572   2.004   8.689  0.00  0.00    +0.000 A 
ATOM     34  C   UNL     1      45.082   2.649   9.831  0.00  0.00    +0.000 A 
ENDBRANCH  28  29
BRANCH  28  35
ATOM     35  C   UNL     1      43.261   4.326  11.389  0.00  0.00    +0.000 C 
BRANCH  35  36
ATOM     36  C   UNL     1      42.366   5.419  11.997  0.00  0.00    +0.000 C 
BRANCH  36  37
ATOM     37  O   UNL     1      42.445   5.444  13.422  0.00  0.00    +0.000 OA
ATOM     38  H   UNL     1      41.670   5.939  13.741  0.00  0.00    +0.000 HD
ENDBRANCH  36  37
ENDBRANCH  35  36
ENDBRANCH  28  35
ENDBRANCH  27  28
ENDBRANCH  25  27
ENDBRANCH  20  21
ENDBRANCH   1  20
TORSDOF 13
ENDMDL
MODEL 3
REMARK VINA RESULT:    -7.221      2.857      4.877
REMARK INTER + INTRA:         -13.956
REMARK INTER:                 -11.856
REMARK INTRA:                  -2.100
REMARK UNBOUND:                -1.458
REMARK  Name = 
REMARK  13 active torsions:
REMARK  status: ('A' for Active; 'I' for Inactive)
REMARK    1  A    between atoms: C_2  and  C_3
REMARK    2  A    between atoms: C_3  and  C_4
REMARK    3  A    between atoms: C_4  and  N_5
REMARK    4  A    between atoms: C_4  and  C_24
REMARK    5  A    between atoms: N_5  and  C_6
REMARK    6  A    between atoms: C_6  and  C_7
REMARK    7  A    between atoms: C_11  and  C_12
REMARK    8  A    between atoms: C_12  and  N_13
REMARK    9  A    between atoms: N_13  and  C_14
REMARK   10  A    between atoms: N_13  and  C_17
REMARK   11  A    between atoms: C_14  and  C_15
REMARK   12  A    between atoms: C_15  and  O_16
REMARK   13  A    between atoms: C_24  and  C_26
REMARK                            x       y       z     vdW  Elec       q    Type
REMARK                         _______ _______ _______ _____ _____    ______ ____
ROOT
ATOM      1  N   UNL     1      48.444   6.499  16.353  0.00  0.00    +0.000 NA
ATOM      2  H   UNL     1      48.023   7.393  16.618  0.00  0.00    +0.000 HD
ENDROOT
BRANCH   1   3
ATOM      3  C   UNL     1      49.355   6.010  17.418  0.00  0.00    +0.000 C 
BRANCH   3   4
ATOM      4  C   UNL     1      49.804   7.181  18.337  0.00  0.00    +0.000 C 
ATOM      5  O   UNL     1      51.004   7.451  18.424  0.00  0.00    +0.000 OA
BRANCH   4   6
ATOM      6  C   UNL     1      48.791   7.904  19.151  0.00  0.00    +0.000 A 
ATOM      7  C   UNL     1      48.401   7.477  20.416  0.00  0.00    +0.000 A 
ATOM      8  S   UNL     1      47.376   8.574  21.223  0.00  0.00    +0.000 S 
ATOM      9  C   UNL     1      47.397   9.642  19.901  0.00  0.00    +0.000 A 
ATOM     10  N   UNL     1      46.767  10.844  19.974  0.00  0.00    +0.000 NA
ATOM     11  C   UNL     1      46.896  11.578  18.922  0.00  0.00    +0.000 A 
ATOM     12  N   UNL     1      47.566  11.205  17.788  0.00  0.00    +0.000 N 
ATOM     13  C   UNL     1      48.077   9.936  17.605  0.00  0.00    +0.000 A 
ATOM     14  O   UNL     1      48.387   9.535  16.491  0.00  0.00    +0.000 OA
ATOM     15  C   UNL     1      48.104   9.132  18.826  0.00  0.00    +0.000 A 
ATOM     16  H   UNL     1      47.537  11.776  16.957  0.00  0.00    +0.000 HD
ENDBRANCH   4   6
ENDBRANCH   3   4
BRANCH   3  17
ATOM     17  C   UNL     1      48.794   4.847  18.262  0.00  0.00    +0.000 C 
BRANCH  17  19
ATOM     18  N   UNL     1      46.661   3.644  16.944  0.00  0.00    +0.000 NA
ATOM     19  C   UNL     1      47.629   4.189  17.541  0.00  0.00    +0.000 C 
ENDBRANCH  17  19
ENDBRANCH   3  17
ENDBRANCH   1   3
BRANCH   1  20
ATOM     20  C   UNL     1      49.090   6.653  15.052  0.00  0.00    +0.000 C 
BRANCH  20  21
ATOM     21  C   UNL     1      48.085   6.669  13.931  0.00  0.00    +0.000 A 
ATOM     22  C   UNL     1      48.049   7.750  13.044  0.00  0.00    +0.000 A 
ATOM     23  C   UNL     1      47.003   7.874  12.135  0.00  0.00    +0.000 A 
ATOM     24  C   UNL     1      46.042   6.867  12.033  0.00  0.00    +0.000 A 
ATOM     25  C   UNL     1      46.174   5.684  12.773  0.00  0.00    +0.000 A 
ATOM     26  C   UNL     1      47.166   5.619  13.765  0.00  0.00    +0.000 A 
BRANCH  25  27
ATOM     27  C   UNL     1      45.367   4.451  12.402  0.00  0.00    +0.000 C 
BRANCH  27  28
ATOM     28  N   UNL     1      44.615   4.608  11.149  0.00  0.00    +0.000 N 
BRANCH  28  29
ATOM     29  C   UNL     1      45.107   3.915  10.004  0.00  0.00    +0.000 A 
ATOM     30  C   UNL     1      45.019   2.525   9.818  0.00  0.00    +0.000 A 
ATOM     31  C   UNL     1      45.457   1.908   8.638  0.00  0.00    +0.000 A 
ATOM     32  C   UNL     1      45.980   2.672   7.603  0.00  0.00    +0.000 A 
ATOM     33  C   UNL     1      46.076   4.050   7.753  0.00  0.00    +0.000 A 
ATOM     34  C   UNL     1      45.656   4.657   8.942  0.00  0.00    +0.000 A 
ENDBRANCH  28  29
BRANCH  28  35
ATOM     35  C   UNL     1      43.127   4.460  11.189  0.00  0.00    +0.000 C 
BRANCH  35  36
ATOM     36  C   UNL     1      42.303   5.613  11.784  0.00  0.00    +0.000 C 
BRANCH  36  37
ATOM     37  O   UNL     1      42.617   6.866  11.174  0.00  0.00    +0.000 OA
ATOM     38  H   UNL     1      43.587   6.950  11.182  0.00  0.00    +0.000 HD
ENDBRANCH  36  37
ENDBRANCH  35  36
ENDBRANCH  28  35
ENDBRANCH  27  28
ENDBRANCH  25  27
ENDBRANCH  20  21
ENDBRANCH   1  20
TORSDOF 13
ENDMDL
MODEL 4
REMARK VINA RESULT:    -7.199      2.078      2.939
REMARK INTER + INTRA:         -13.918
REMARK INTER:                 -11.959
REMARK INTRA:                  -1.960
REMARK UNBOUND:                -1.458
REMARK  Name = 
REMARK  13 active torsions:
REMARK  status: ('A' for Active; 'I' for Inactive)
REMARK    1  A    between atoms: C_2  and  C_3
REMARK    2  A    between atoms: C_3  and  C_4
REMARK    3  A    between atoms: C_4  and  N_5
REMARK    4  A    between atoms: C_4  and  C_24
REMARK    5  A    between atoms: N_5  and  C_6
REMARK    6  A    between atoms: C_6  and  C_7
REMARK    7  A    between atoms: C_11  and  C_12
REMARK    8  A    between atoms: C_12  and  N_13
REMARK    9  A    between atoms: N_13  and  C_14
REMARK   10  A    between atoms: N_13  and  C_17
REMARK   11  A    between atoms: C_14  and  C_15
REMARK   12  A    between atoms: C_15  and  O_16
REMARK   13  A    between atoms: C_24  and  C_26
REMARK                            x       y       z     vdW  Elec       q    Type
REMARK                         _______ _______ _______ _____ _____    ______ ____
ROOT
ATOM      1  N   UNL     1      50.124   7.232  13.910  0.00  0.00    +0.000 NA
ATOM      2  H   UNL     1      49.651   6.357  14.148  0.00  0.00    +0.000 HD
ENDROOT
BRANCH   1   3
ATOM      3  C   UNL     1      49.885   8.261  14.953  0.00  0.00    +0.000 C 
BRANCH   3   4
ATOM      4  C   UNL     1      49.290   7.614  16.236  0.00  0.00    +0.000 C 
ATOM      5  O   UNL     1      48.452   8.237  16.891  0.00  0.00    +0.000 OA
BRANCH   4   6
ATOM      6  C   UNL     1      49.798   6.293  16.693  0.00  0.00    +0.000 A 
ATOM      7  C   UNL     1      51.087   6.112  17.185  0.00  0.00    +0.000 A 
ATOM      8  S   UNL     1      51.365   4.556  17.822  0.00  0.00    +0.000 S 
ATOM      9  C   UNL     1      49.784   4.063  17.438  0.00  0.00    +0.000 A 
ATOM     10  N   UNL     1      49.338   2.831  17.799  0.00  0.00    +0.000 NA
ATOM     11  C   UNL     1      48.108   2.598  17.489  0.00  0.00    +0.000 A 
ATOM     12  N   UNL     1      47.294   3.469  16.818  0.00  0.00    +0.000 N 
ATOM     13  C   UNL     1      47.750   4.659  16.287  0.00  0.00    +0.000 A 
ATOM     14  O   UNL     1      47.102   5.262  15.440  0.00  0.00    +0.000 OA
ATOM     15  C   UNL     1      49.081   5.041  16.757  0.00  0.00    +0.000 A 
ATOM     16  H   UNL     1      46.378   3.186  16.505  0.00  0.00    +0.000 HD
ENDBRANCH   4   6
ENDBRANCH   3   4
BRANCH   3  17
ATOM     17  C   UNL     1      51.115   9.123  15.303  0.00  0.00    +0.000 C 
BRANCH  17  19
ATOM     18  N   UNL     1      53.430   7.939  14.317  0.00  0.00    +0.000 NA
ATOM     19  C   UNL     1      52.380   8.475  14.765  0.00  0.00    +0.000 C 
ENDBRANCH  17  19
ENDBRANCH   3  17
ENDBRANCH   1   3
BRANCH   1  20
ATOM     20  C   UNL     1      49.705   7.643  12.573  0.00  0.00    +0.000 C 
BRANCH  20  21
ATOM     21  C   UNL     1      48.216   7.508  12.391  0.00  0.00    +0.000 A 
ATOM     22  C   UNL     1      47.433   8.650  12.188  0.00  0.00    +0.000 A 
ATOM     23  C   UNL     1      46.045   8.560  12.222  0.00  0.00    +0.000 A 
ATOM     24  C   UNL     1      45.427   7.315  12.353  0.00  0.00    +0.000 A 
ATOM     25  C   UNL     1      46.193   6.141  12.357  0.00  0.00    +0.000 A 
ATOM     26  C   UNL     1      47.591   6.250  12.437  0.00  0.00    +0.000 A 
BRANCH  25  27
ATOM     27  C   UNL     1      45.532   4.793  12.122  0.00  0.00    +0.000 C 
BRANCH  27  28
ATOM     28  N   UNL     1      44.643   4.781  10.954  0.00  0.00    +0.000 N 
BRANCH  28  29
ATOM     29  C   UNL     1      45.099   4.085   9.795  0.00  0.00    +0.000 A 
ATOM     30  C   UNL     1      45.756   4.692   8.711  0.00  0.00    +0.000 A 
ATOM     31  C   UNL     1      46.245   3.944   7.632  0.00  0.00    +0.000 A 
ATOM     32  C   UNL     1      46.106   2.562   7.618  0.00  0.00    +0.000 A 
ATOM     33  C   UNL     1      45.466   1.931   8.678  0.00  0.00    +0.000 A 
ATOM     34  C   UNL     1      44.962   2.686   9.743  0.00  0.00    +0.000 A 
ENDBRANCH  28  29
BRANCH  28  35
ATOM     35  C   UNL     1      43.198   4.454  11.163  0.00  0.00    +0.000 C 
BRANCH  35  36
ATOM     36  C   UNL     1      42.323   5.486  11.893  0.00  0.00    +0.000 C 
BRANCH  36  37
ATOM     37  O   UNL     1      42.496   5.430  13.308  0.00  0.00    +0.000 OA
ATOM     38  H   UNL     1      43.378   5.795  13.501  0.00  0.00    +0.000 HD
ENDBRANCH  36  37
ENDBRANCH  35  36
ENDBRANCH  28  35
ENDBRANCH  27  28
ENDBRANCH  25  27
ENDBRANCH  20  21
ENDBRANCH   1  20
TORSDOF 13
ENDMDL
MODEL 5
REMARK VINA RESULT:    -7.076      1.758      2.729
REMARK INTER + INTRA:         -13.704
REMARK INTER:                 -12.052
REMARK INTRA:                  -1.652
REMARK UNBOUND:                -1.458
REMARK  Name = 
REMARK  13 active torsions:
REMARK  status: ('A' for Active; 'I' for Inactive)
REMARK    1  A    between atoms: C_2  and  C_3
REMARK    2  A    between atoms: C_3  and  C_4
REMARK    3  A    between atoms: C_4  and  N_5
REMARK    4  A    between atoms: C_4  and  C_24
REMARK    5  A    between atoms: N_5  and  C_6
REMARK    6  A    between atoms: C_6  and  C_7
REMARK    7  A    between atoms: C_11  and  C_12
REMARK    8  A    between atoms: C_12  and  N_13
REMARK    9  A    between atoms: N_13  and  C_14
REMARK   10  A    between atoms: N_13  and  C_17
REMARK   11  A    between atoms: C_14  and  C_15
REMARK   12  A    between atoms: C_15  and  O_16
REMARK   13  A    between atoms: C_24  and  C_26
REMARK                            x       y       z     vdW  Elec       q    Type
REMARK                         _______ _______ _______ _____ _____    ______ ____
ROOT
ATOM      1  N   UNL     1      48.056   5.919  16.488  0.00  0.00    +0.000 NA
ATOM      2  H   UNL     1      47.661   6.627  17.111  0.00  0.00    +0.000 HD
ENDROOT
BRANCH   1   3
ATOM      3  C   UNL     1      48.858   4.932  17.254  0.00  0.00    +0.000 C 
BRANCH   3   4
ATOM      4  C   UNL     1      49.315   5.533  18.613  0.00  0.00    +0.000 C 
ATOM      5  O   UNL     1      48.560   5.466  19.586  0.00  0.00    +0.000 OA
BRANCH   4   6
ATOM      6  C   UNL     1      50.618   6.245  18.699  0.00  0.00    +0.000 A 
ATOM      7  C   UNL     1      50.717   7.632  18.705  0.00  0.00    +0.000 A 
ATOM      8  S   UNL     1      52.295   8.205  19.004  0.00  0.00    +0.000 S 
ATOM      9  C   UNL     1      52.902   6.621  19.108  0.00  0.00    +0.000 A 
ATOM     10  N   UNL     1      54.203   6.401  19.433  0.00  0.00    +0.000 NA
ATOM     11  C   UNL     1      54.526   5.155  19.522  0.00  0.00    +0.000 A 
ATOM     12  N   UNL     1      53.677   4.109  19.281  0.00  0.00    +0.000 N 
ATOM     13  C   UNL     1      52.399   4.283  18.788  0.00  0.00    +0.000 A 
ATOM     14  O   UNL     1      51.782   3.350  18.292  0.00  0.00    +0.000 OA
ATOM     15  C   UNL     1      51.935   5.669  18.834  0.00  0.00    +0.000 A 
ATOM     16  H   UNL     1      54.018   3.160  19.257  0.00  0.00    +0.000 HD
ENDBRANCH   4   6
ENDBRANCH   3   4
BRANCH   3  17
ATOM     17  C   UNL     1      48.167   3.570  17.471  0.00  0.00    +0.000 C 
BRANCH  17  19
ATOM     18  N   UNL     1      49.418   1.606  15.950  0.00  0.00    +0.000 NA
ATOM     19  C   UNL     1      48.851   2.497  16.640  0.00  0.00    +0.000 C 
ENDBRANCH  17  19
ENDBRANCH   3  17
ENDBRANCH   1   3
BRANCH   1  20
ATOM     20  C   UNL     1      48.807   6.592  15.431  0.00  0.00    +0.000 C 
BRANCH  20  21
ATOM     21  C   UNL     1      48.106   6.493  14.102  0.00  0.00    +0.000 A 
ATOM     22  C   UNL     1      48.482   7.339  13.052  0.00  0.00    +0.000 A 
ATOM     23  C   UNL     1      47.714   7.398  11.894  0.00  0.00    +0.000 A 
ATOM     24  C   UNL     1      46.627   6.538  11.730  0.00  0.00    +0.000 A 
ATOM     25  C   UNL     1      46.357   5.547  12.685  0.00  0.00    +0.000 A 
ATOM     26  C   UNL     1      47.065   5.571  13.897  0.00  0.00    +0.000 A 
BRANCH  25  27
ATOM     27  C   UNL     1      45.434   4.388  12.349  0.00  0.00    +0.000 C 
BRANCH  27  28
ATOM     28  N   UNL     1      44.628   4.621  11.143  0.00  0.00    +0.000 N 
BRANCH  28  29
ATOM     29  C   UNL     1      45.046   3.970   9.944  0.00  0.00    +0.000 A 
ATOM     30  C   UNL     1      45.577   4.632   8.824  0.00  0.00    +0.000 A 
ATOM     31  C   UNL     1      46.037   3.931   7.702  0.00  0.00    +0.000 A 
ATOM     32  C   UNL     1      45.994   2.543   7.679  0.00  0.00    +0.000 A 
ATOM     33  C   UNL     1      45.480   1.858   8.773  0.00  0.00    +0.000 A 
ATOM     34  C   UNL     1      45.003   2.565   9.882  0.00  0.00    +0.000 A 
ENDBRANCH  28  29
BRANCH  28  35
ATOM     35  C   UNL     1      43.140   4.507  11.250  0.00  0.00    +0.000 C 
BRANCH  35  36
ATOM     36  C   UNL     1      42.355   5.738  11.729  0.00  0.00    +0.000 C 
BRANCH  36  37
ATOM     37  O   UNL     1      42.751   6.926  11.044  0.00  0.00    +0.000 OA
ATOM     38  H   UNL     1      42.156   7.637  11.341  0.00  0.00    +0.000 HD
ENDBRANCH  36  37
ENDBRANCH  35  36
ENDBRANCH  28  35
ENDBRANCH  27  28
ENDBRANCH  25  27
ENDBRANCH  20  21
ENDBRANCH   1  20
TORSDOF 13
ENDMDL
MODEL 6
REMARK VINA RESULT:    -7.007      1.667      2.425
REMARK INTER + INTRA:         -13.586
REMARK INTER:                 -12.148
REMARK INTRA:                  -1.438
REMARK UNBOUND:                -1.458
REMARK  Name = 
REMARK  13 active torsions:
REMARK  status: ('A' for Active; 'I' for Inactive)
REMARK    1  A    between atoms: C_2  and  C_3
REMARK    2  A    between atoms: C_3  and  C_4
REMARK    3  A    between atoms: C_4  and  N_5
REMARK    4  A    between atoms: C_4  and  C_24
REMARK    5  A    between atoms: N_5  and  C_6
REMARK    6  A    between atoms: C_6  and  C_7
REMARK    7  A    between atoms: C_11  and  C_12
REMARK    8  A    between atoms: C_12  and  N_13
REMARK    9  A    between atoms: N_13  and  C_14
REMARK   10  A    between atoms: N_13  and  C_17
REMARK   11  A    between atoms: C_14  and  C_15
REMARK   12  A    between atoms: C_15  and  O_16
REMARK   13  A    between atoms: C_24  and  C_26
REMARK                            x       y       z     vdW  Elec       q    Type
REMARK                         _______ _______ _______ _____ _____    ______ ____
ROOT
ATOM      1  N   UNL     1      49.116   6.683  16.526  0.00  0.00    +0.000 NA
ATOM      2  H   UNL     1      49.394   7.196  17.367  0.00  0.00    +0.000 HD
ENDROOT
BRANCH   1   3
ATOM      3  C   UNL     1      49.101   5.222  16.783  0.00  0.00    +0.000 C 
BRANCH   3   4
ATOM      4  C   UNL     1      49.851   4.888  18.103  0.00  0.00    +0.000 C 
ATOM      5  O   UNL     1      49.291   5.094  19.182  0.00  0.00    +0.000 OA
BRANCH   4   6
ATOM      6  C   UNL     1      51.254   4.400  18.046  0.00  0.00    +0.000 A 
ATOM      7  C   UNL     1      52.344   5.209  18.352  0.00  0.00    +0.000 A 
ATOM      8  S   UNL     1      53.828   4.371  18.400  0.00  0.00    +0.000 S 
ATOM      9  C   UNL     1      53.069   2.907  17.988  0.00  0.00    +0.000 A 
ATOM     10  N   UNL     1      53.781   1.750  17.940  0.00  0.00    +0.000 NA
ATOM     11  C   UNL     1      53.080   0.705  17.659  0.00  0.00    +0.000 A 
ATOM     12  N   UNL     1      51.739   0.714  17.386  0.00  0.00    +0.000 N 
ATOM     13  C   UNL     1      51.011   1.880  17.259  0.00  0.00    +0.000 A 
ATOM     14  O   UNL     1      49.913   1.883  16.718  0.00  0.00    +0.000 OA
ATOM     15  C   UNL     1      51.719   3.069  17.733  0.00  0.00    +0.000 A 
ATOM     16  H   UNL     1      51.270  -0.118  17.063  0.00  0.00    +0.000 HD
ENDBRANCH   4   6
ENDBRANCH   3   4
BRANCH   3  17
ATOM     17  C   UNL     1      47.697   4.582  16.783  0.00  0.00    +0.000 C 
BRANCH  17  19
ATOM     18  N   UNL     1      47.272   3.198  14.409  0.00  0.00    +0.000 NA
ATOM     19  C   UNL     1      47.465   3.825  15.485  0.00  0.00    +0.000 C 
ENDBRANCH  17  19
ENDBRANCH   3  17
ENDBRANCH   1   3
BRANCH   1  20
ATOM     20  C   UNL     1      49.993   7.077  15.426  0.00  0.00    +0.000 C 
BRANCH  20  21
ATOM     21  C   UNL     1      49.253   7.124  14.115  0.00  0.00    +0.000 A 
ATOM     22  C   UNL     1      49.901   7.595  12.967  0.00  0.00    +0.000 A 
ATOM     23  C   UNL     1      49.175   7.833  11.805  0.00  0.00    +0.000 A 
ATOM     24  C   UNL     1      47.820   7.503  11.745  0.00  0.00    +0.000 A 
ATOM     25  C   UNL     1      47.203   6.846  12.819  0.00  0.00    +0.000 A 
ATOM     26  C   UNL     1      47.912   6.714  14.023  0.00  0.00    +0.000 A 
BRANCH  25  27
ATOM     27  C   UNL     1      45.863   6.156  12.629  0.00  0.00    +0.000 C 
BRANCH  27  28
ATOM     28  N   UNL     1      45.329   6.295  11.267  0.00  0.00    +0.000 N 
BRANCH  28  29
ATOM     29  C   UNL     1      45.184   5.102  10.500  0.00  0.00    +0.000 A 
ATOM     30  C   UNL     1      44.554   3.933  10.961  0.00  0.00    +0.000 A 
ATOM     31  C   UNL     1      44.379   2.814  10.135  0.00  0.00    +0.000 A 
ATOM     32  C   UNL     1      44.815   2.843   8.816  0.00  0.00    +0.000 A 
ATOM     33  C   UNL     1      45.436   3.987   8.328  0.00  0.00    +0.000 A 
ATOM     34  C   UNL     1      45.627   5.093   9.164  0.00  0.00    +0.000 A 
ENDBRANCH  28  29
BRANCH  28  35
ATOM     35  C   UNL     1      44.111   7.140  11.064  0.00  0.00    +0.000 C 
BRANCH  35  36
ATOM     36  C   UNL     1      44.263   8.665  11.178  0.00  0.00    +0.000 C 
BRANCH  36  37
ATOM     37  O   UNL     1      43.389   9.358  10.287  0.00  0.00    +0.000 OA
ATOM     38  H   UNL     1      43.913  10.064   9.867  0.00  0.00    +0.000 HD
ENDBRANCH  36  37
ENDBRANCH  35  36
ENDBRANCH  28  35
ENDBRANCH  27  28
ENDBRANCH  25  27
ENDBRANCH  20  21
ENDBRANCH   1  20
TORSDOF 13
ENDMDL
MODEL 7
REMARK VINA RESULT:    -6.973      2.596      3.549
REMARK INTER + INTRA:         -13.526
REMARK INTER:                 -11.552
REMARK INTRA:                  -1.974
REMARK UNBOUND:                -1.458
REMARK  Name = 
REMARK  13 active torsions:
REMARK  status: ('A' for Active; 'I' for Inactive)
REMARK    1  A    between atoms: C_2  and  C_3
REMARK    2  A    between atoms: C_3  and  C_4
REMARK    3  A    between atoms: C_4  and  N_5
REMARK    4  A    between atoms: C_4  and  C_24
REMARK    5  A    between atoms: N_5  and  C_6
REMARK    6  A    between atoms: C_6  and  C_7
REMARK    7  A    between atoms: C_11  and  C_12
REMARK    8  A    between atoms: C_12  and  N_13
REMARK    9  A    between atoms: N_13  and  C_14
REMARK   10  A    between atoms: N_13  and  C_17
REMARK   11  A    between atoms: C_14  and  C_15
REMARK   12  A    between atoms: C_15  and  O_16
REMARK   13  A    between atoms: C_24  and  C_26
REMARK                            x       y       z     vdW  Elec       q    Type
REMARK                         _______ _______ _______ _____ _____    ______ ____
ROOT
ATOM      1  N   UNL     1      50.009   6.939  14.205  0.00  0.00    +0.000 NA
ATOM      2  H   UNL     1      49.153   6.557  14.615  0.00  0.00    +0.000 HD
ENDROOT
BRANCH   1   3
ATOM      3  C   UNL     1      50.723   7.797  15.183  0.00  0.00    +0.000 C 
BRANCH   3   4
ATOM      4  C   UNL     1      51.239   6.952  16.382  0.00  0.00    +0.000 C 
ATOM      5  O   UNL     1      52.241   6.248  16.236  0.00  0.00    +0.000 OA
BRANCH   4   6
ATOM      6  C   UNL     1      50.474   6.945  17.657  0.00  0.00    +0.000 A 
ATOM      7  C   UNL     1      50.872   7.668  18.776  0.00  0.00    +0.000 A 
ATOM      8  S   UNL     1      49.732   7.652  20.044  0.00  0.00    +0.000 S 
ATOM      9  C   UNL     1      48.682   6.657  19.152  0.00  0.00    +0.000 A 
ATOM     10  N   UNL     1      47.459   6.327  19.645  0.00  0.00    +0.000 NA
ATOM     11  C   UNL     1      46.743   5.605  18.852  0.00  0.00    +0.000 A 
ATOM     12  N   UNL     1      47.151   5.151  17.626  0.00  0.00    +0.000 N 
ATOM     13  C   UNL     1      48.439   5.320  17.159  0.00  0.00    +0.000 A 
ATOM     14  O   UNL     1      48.863   4.653  16.224  0.00  0.00    +0.000 OA
ATOM     15  C   UNL     1      49.228   6.271  17.940  0.00  0.00    +0.000 A 
ATOM     16  H   UNL     1      46.589   4.498  17.102  0.00  0.00    +0.000 HD
ENDBRANCH   4   6
ENDBRANCH   3   4
BRANCH   3  17
ATOM     17  C   UNL     1      51.868   8.641  14.586  0.00  0.00    +0.000 C 
BRANCH  17  19
ATOM     18  N   UNL     1      52.794  10.472  16.462  0.00  0.00    +0.000 NA
ATOM     19  C   UNL     1      52.374   9.642  15.611  0.00  0.00    +0.000 C 
ENDBRANCH  17  19
ENDBRANCH   3  17
ENDBRANCH   1   3
BRANCH   1  20
ATOM     20  C   UNL     1      49.667   7.625  12.962  0.00  0.00    +0.000 C 
BRANCH  20  21
ATOM     21  C   UNL     1      48.192   7.541  12.669  0.00  0.00    +0.000 A 
ATOM     22  C   UNL     1      47.471   8.708  12.391  0.00  0.00    +0.000 A 
ATOM     23  C   UNL     1      46.082   8.669  12.319  0.00  0.00    +0.000 A 
ATOM     24  C   UNL     1      45.409   7.450  12.418  0.00  0.00    +0.000 A 
ATOM     25  C   UNL     1      46.128   6.249  12.497  0.00  0.00    +0.000 A 
ATOM     26  C   UNL     1      47.519   6.308  12.682  0.00  0.00    +0.000 A 
BRANCH  25  27
ATOM     27  C   UNL     1      45.437   4.922  12.230  0.00  0.00    +0.000 C 
BRANCH  27  28
ATOM     28  N   UNL     1      44.669   4.912  10.977  0.00  0.00    +0.000 N 
BRANCH  28  29
ATOM     29  C   UNL     1      45.174   4.112   9.910  0.00  0.00    +0.000 A 
ATOM     30  C   UNL     1      45.054   2.714   9.839  0.00  0.00    +0.000 A 
ATOM     31  C   UNL     1      45.509   1.990   8.729  0.00  0.00    +0.000 A 
ATOM     32  C   UNL     1      46.081   2.650   7.650  0.00  0.00    +0.000 A 
ATOM     33  C   UNL     1      46.210   4.033   7.686  0.00  0.00    +0.000 A 
ATOM     34  C   UNL     1      45.772   4.749   8.807  0.00  0.00    +0.000 A 
ENDBRANCH  28  29
BRANCH  28  35
ATOM     35  C   UNL     1      43.188   4.719  11.054  0.00  0.00    +0.000 C 
BRANCH  35  36
ATOM     36  C   UNL     1      42.430   5.395  12.208  0.00  0.00    +0.000 C 
BRANCH  36  37
ATOM     37  O   UNL     1      41.776   6.593  11.790  0.00  0.00    +0.000 OA
ATOM     38  H   UNL     1      41.413   6.424  10.903  0.00  0.00    +0.000 HD
ENDBRANCH  36  37
ENDBRANCH  35  36
ENDBRANCH  28  35
ENDBRANCH  27  28
ENDBRANCH  25  27
ENDBRANCH  20  21
ENDBRANCH   1  20
TORSDOF 13
ENDMDL
MODEL 8
REMARK VINA RESULT:    -6.882      2.351      3.303
REMARK INTER + INTRA:         -13.369
REMARK INTER:                 -11.670
REMARK INTRA:                  -1.699
REMARK UNBOUND:                -1.458
REMARK  Name = 
REMARK  13 active torsions:
REMARK  status: ('A' for Active; 'I' for Inactive)
REMARK    1  A    between atoms: C_2  and  C_3
REMARK    2  A    between atoms: C_3  and  C_4
REMARK    3  A    between atoms: C_4  and  N_5
REMARK    4  A    between atoms: C_4  and  C_24
REMARK    5  A    between atoms: N_5  and  C_6
REMARK    6  A    between atoms: C_6  and  C_7
REMARK    7  A    between atoms: C_11  and  C_12
REMARK    8  A    between atoms: C_12  and  N_13
REMARK    9  A    between atoms: N_13  and  C_14
REMARK   10  A    between atoms: N_13  and  C_17
REMARK   11  A    between atoms: C_14  and  C_15
REMARK   12  A    between atoms: C_15  and  O_16
REMARK   13  A    between atoms: C_24  and  C_26
REMARK                            x       y       z     vdW  Elec       q    Type
REMARK                         _______ _______ _______ _____ _____    ______ ____
ROOT
ATOM      1  N   UNL     1      50.865   6.707  15.445  0.00  0.00    +0.000 NA
ATOM      2  H   UNL     1      50.502   5.756  15.550  0.00  0.00    +0.000 HD
ENDROOT
BRANCH   1   3
ATOM      3  C   UNL     1      51.717   7.075  16.603  0.00  0.00    +0.000 C 
BRANCH   3   4
ATOM      4  C   UNL     1      51.457   6.120  17.802  0.00  0.00    +0.000 C 
ATOM      5  O   UNL     1      52.412   5.553  18.338  0.00  0.00    +0.000 OA
BRANCH   4   6
ATOM      6  C   UNL     1      50.060   5.846  18.233  0.00  0.00    +0.000 A 
ATOM      7  C   UNL     1      49.323   6.739  19.004  0.00  0.00    +0.000 A 
ATOM      8  S   UNL     1      47.691   6.287  19.202  0.00  0.00    +0.000 S 
ATOM      9  C   UNL     1      47.922   4.872  18.289  0.00  0.00    +0.000 A 
ATOM     10  N   UNL     1      46.873   4.056  18.005  0.00  0.00    +0.000 NA
ATOM     11  C   UNL     1      47.173   3.041  17.268  0.00  0.00    +0.000 A 
ATOM     12  N   UNL     1      48.432   2.746  16.820  0.00  0.00    +0.000 N 
ATOM     13  C   UNL     1      49.550   3.450  17.219  0.00  0.00    +0.000 A 
ATOM     14  O   UNL     1      50.674   2.990  17.063  0.00  0.00    +0.000 OA
ATOM     15  C   UNL     1      49.242   4.701  17.911  0.00  0.00    +0.000 A 
ATOM     16  H   UNL     1      48.622   1.879  16.342  0.00  0.00    +0.000 HD
ENDBRANCH   4   6
ENDBRANCH   3   4
BRANCH   3  17
ATOM     17  C   UNL     1      53.226   7.155  16.293  0.00  0.00    +0.000 C 
BRANCH  17  19
ATOM     18  N   UNL     1      53.626   8.010  13.678  0.00  0.00    +0.000 NA
ATOM     19  C   UNL     1      53.444   7.622  14.864  0.00  0.00    +0.000 C 
ENDBRANCH  17  19
ENDBRANCH   3  17
ENDBRANCH   1   3
BRANCH   1  20
ATOM     20  C   UNL     1      49.742   7.615  15.230  0.00  0.00    +0.000 C 
BRANCH  20  21
ATOM     21  C   UNL     1      48.969   7.258  13.987  0.00  0.00    +0.000 A 
ATOM     22  C   UNL     1      49.314   7.840  12.762  0.00  0.00    +0.000 A 
ATOM     23  C   UNL     1      48.489   7.678  11.654  0.00  0.00    +0.000 A 
ATOM     24  C   UNL     1      47.369   6.847  11.732  0.00  0.00    +0.000 A 
ATOM     25  C   UNL     1      47.121   6.099  12.891  0.00  0.00    +0.000 A 
ATOM     26  C   UNL     1      47.892   6.357  14.036  0.00  0.00    +0.000 A 
BRANCH  25  27
ATOM     27  C   UNL     1      46.148   4.933  12.858  0.00  0.00    +0.000 C 
BRANCH  27  28
ATOM     28  N   UNL     1      45.012   5.152  11.952  0.00  0.00    +0.000 N 
BRANCH  28  29
ATOM     29  C   UNL     1      45.023   4.446  10.713  0.00  0.00    +0.000 A 
ATOM     30  C   UNL     1      45.428   4.999   9.486  0.00  0.00    +0.000 A 
ATOM     31  C   UNL     1      45.485   4.234   8.314  0.00  0.00    +0.000 A 
ATOM     32  C   UNL     1      45.154   2.885   8.342  0.00  0.00    +0.000 A 
ATOM     33  C   UNL     1      44.754   2.306   9.541  0.00  0.00    +0.000 A 
ATOM     34  C   UNL     1      44.680   3.081  10.704  0.00  0.00    +0.000 A 
ENDBRANCH  28  29
BRANCH  28  35
ATOM     35  C   UNL     1      43.629   5.093  12.518  0.00  0.00    +0.000 C 
BRANCH  35  36
ATOM     36  C   UNL     1      42.484   5.695  11.689  0.00  0.00    +0.000 C 
BRANCH  36  37
ATOM     37  O   UNL     1      42.820   6.980  11.165  0.00  0.00    +0.000 OA
ATOM     38  H   UNL     1      43.168   6.838  10.267  0.00  0.00    +0.000 HD
ENDBRANCH  36  37
ENDBRANCH  35  36
ENDBRANCH  28  35
ENDBRANCH  27  28
ENDBRANCH  25  27
ENDBRANCH  20  21
ENDBRANCH   1  20
TORSDOF 13
ENDMDL
MODEL 9
REMARK VINA RESULT:    -6.790      2.364      3.641
REMARK INTER + INTRA:         -13.210
REMARK INTER:                 -11.747
REMARK INTRA:                  -1.463
REMARK UNBOUND:                -1.458
REMARK  Name = 
REMARK  13 active torsions:
REMARK  status: ('A' for Active; 'I' for Inactive)
REMARK    1  A    between atoms: C_2  and  C_3
REMARK    2  A    between atoms: C_3  and  C_4
REMARK    3  A    between atoms: C_4  and  N_5
REMARK    4  A    between atoms: C_4  and  C_24
REMARK    5  A    between atoms: N_5  and  C_6
REMARK    6  A    between atoms: C_6  and  C_7
REMARK    7  A    between atoms: C_11  and  C_12
REMARK    8  A    between atoms: C_12  and  N_13
REMARK    9  A    between atoms: N_13  and  C_14
REMARK   10  A    between atoms: N_13  and  C_17
REMARK   11  A    between atoms: C_14  and  C_15
REMARK   12  A    between atoms: C_15  and  O_16
REMARK   13  A    between atoms: C_24  and  C_26
REMARK                            x       y       z     vdW  Elec       q    Type
REMARK                         _______ _______ _______ _____ _____    ______ ____
ROOT
ATOM      1  N   UNL     1      48.976   8.509  13.631  0.00  0.00    +0.000 NA
ATOM      2  H   UNL     1      48.904   7.662  13.062  0.00  0.00    +0.000 HD
ENDROOT
BRANCH   1   3
ATOM      3  C   UNL     1      49.715   8.236  14.889  0.00  0.00    +0.000 C 
BRANCH   3   4
ATOM      4  C   UNL     1      49.113   7.003  15.622  0.00  0.00    +0.000 C 
ATOM      5  O   UNL     1      48.804   6.005  14.967  0.00  0.00    +0.000 OA
BRANCH   4   6
ATOM      6  C   UNL     1      48.849   7.077  17.084  0.00  0.00    +0.000 A 
ATOM      7  C   UNL     1      48.297   8.199  17.691  0.00  0.00    +0.000 A 
ATOM      8  S   UNL     1      47.914   7.969  19.337  0.00  0.00    +0.000 S 
ATOM      9  C   UNL     1      48.498   6.373  19.299  0.00  0.00    +0.000 A 
ATOM     10  N   UNL     1      48.388   5.571  20.391  0.00  0.00    +0.000 NA
ATOM     11  C   UNL     1      48.829   4.372  20.217  0.00  0.00    +0.000 A 
ATOM     12  N   UNL     1      49.403   3.910  19.064  0.00  0.00    +0.000 N 
ATOM     13  C   UNL     1      49.687   4.731  17.991  0.00  0.00    +0.000 A 
ATOM     14  O   UNL     1      50.466   4.378  17.115  0.00  0.00    +0.000 OA
ATOM     15  C   UNL     1      49.056   6.047  18.075  0.00  0.00    +0.000 A 
ATOM     16  H   UNL     1      49.830   2.997  19.027  0.00  0.00    +0.000 HD
ENDBRANCH   4   6
ENDBRANCH   3   4
BRANCH   3  17
ATOM     17  C   UNL     1      51.239   8.072  14.719  0.00  0.00    +0.000 C 
BRANCH  17  19
ATOM     18  N   UNL     1      51.992   8.723  12.122  0.00  0.00    +0.000 NA
ATOM     19  C   UNL     1      51.651   8.428  13.300  0.00  0.00    +0.000 C 
ENDBRANCH  17  19
ENDBRANCH   3  17
ENDBRANCH   1   3
BRANCH   1  20
ATOM     20  C   UNL     1      47.635   9.048  13.842  0.00  0.00    +0.000 C 
BRANCH  20  21
ATOM     21  C   UNL     1      46.629   8.412  12.919  0.00  0.00    +0.000 A 
ATOM     22  C   UNL     1      45.766   9.219  12.169  0.00  0.00    +0.000 A 
ATOM     23  C   UNL     1      44.706   8.648  11.473  0.00  0.00    +0.000 A 
ATOM     24  C   UNL     1      44.561   7.260  11.433  0.00  0.00    +0.000 A 
ATOM     25  C   UNL     1      45.530   6.430  12.012  0.00  0.00    +0.000 A 
ATOM     26  C   UNL     1      46.530   7.015  12.806  0.00  0.00    +0.000 A 
BRANCH  25  27
ATOM     27  C   UNL     1      45.586   4.953  11.659  0.00  0.00    +0.000 C 
BRANCH  27  28
ATOM     28  N   UNL     1      44.681   4.586  10.561  0.00  0.00    +0.000 N 
BRANCH  28  29
ATOM     29  C   UNL     1      45.259   3.935   9.431  0.00  0.00    +0.000 A 
ATOM     30  C   UNL     1      45.886   4.602   8.365  0.00  0.00    +0.000 A 
ATOM     31  C   UNL     1      46.499   3.903   7.316  0.00  0.00    +0.000 A 
ATOM     32  C   UNL     1      46.516   2.515   7.316  0.00  0.00    +0.000 A 
ATOM     33  C   UNL     1      45.909   1.825   8.360  0.00  0.00    +0.000 A 
ATOM     34  C   UNL     1      45.281   2.529   9.393  0.00  0.00    +0.000 A 
ENDBRANCH  28  29
BRANCH  28  35
ATOM     35  C   UNL     1      43.397   3.897  10.899  0.00  0.00    +0.000 C 
BRANCH  35  36
ATOM     36  C   UNL     1      43.371   2.988  12.138  0.00  0.00    +0.000 C 
BRANCH  36  37
ATOM     37  O   UNL     1      42.990   1.651  11.813  0.00  0.00    +0.000 OA
ATOM     38  H   UNL     1      43.484   1.402  11.012  0.00  0.00    +0.000 HD
ENDBRANCH  36  37
ENDBRANCH  35  36
ENDBRANCH  28  35
ENDBRANCH  27  28
ENDBRANCH  25  27
ENDBRANCH  20  21
ENDBRANCH   1  20
TORSDOF 13
ENDMDL
