MODEL 1
REMARK VINA RESULT:    -8.722      0.000      0.000
REMARK INTER + INTRA:         -12.023
REMARK INTER:                 -11.271
REMARK INTRA:                  -0.752
REMARK UNBOUND:                -0.752
REMARK  Name = 
REMARK  6 active torsions:
REMARK  status: ('A' for Active; 'I' for Inactive)
REMARK    1  A    between atoms: C_1  and  C_2
REMARK    2  A    between atoms: C_2  and  N_3
REMARK    3  A    between atoms: C_2  and  C_16
REMARK    4  A    between atoms: C_4  and  C_6
REMARK    5  A    between atoms: C_19  and  C_20
REMARK    6  A    between atoms: C_20  and  N_21
REMARK                            x       y       z     vdW  Elec       q    Type
REMARK                         _______ _______ _______ _____ _____    ______ ____
ROOT
ATOM      1  C   UNL     1      43.091   5.297  13.073  0.00  0.00    +0.000 C 
ATOM      2  C   UNL     1      44.379   4.482  12.920  0.00  0.00    +0.000 C 
ENDROOT
BRANCH   2   3
ATOM      3  C   UNL     1      44.756   4.212  11.470  0.00  0.00    +0.000 A 
ATOM      4  C   UNL     1      44.460   2.951  10.934  0.00  0.00    +0.000 A 
ATOM      5  C   UNL     1      44.656   2.680   9.576  0.00  0.00    +0.000 A 
ATOM      6  C   UNL     1      45.176   3.655   8.716  0.00  0.00    +0.000 A 
ATOM      7  C   UNL     1      45.557   4.888   9.266  0.00  0.00    +0.000 A 
ATOM      8  C   UNL     1      45.358   5.160  10.628  0.00  0.00    +0.000 A 
BRANCH   6   9
ATOM      9  C   UNL     1      45.406   3.332   7.256  0.00  0.00    +0.000 C 
BRANCH   9  10
ATOM     10  N   UNL     1      46.750   2.976   6.812  0.00  0.00    +0.000 NA
ATOM     11  C   UNL     1      47.060   3.139   5.390  0.00  0.00    +0.000 C 
ATOM     12  C   UNL     1      46.947   1.858   4.549  0.00  0.00    +0.000 C 
ATOM     13  O   UNL     1      47.665   0.765   5.136  0.00  0.00    +0.000 OA
ATOM     14  C   UNL     1      47.201   0.511   6.468  0.00  0.00    +0.000 C 
ATOM     15  C   UNL     1      47.343   1.754   7.359  0.00  0.00    +0.000 C 
ENDBRANCH   9  10
ENDBRANCH   6   9
ENDBRANCH   2   3
BRANCH   2  16
ATOM     16  N   UNL     1      45.474   5.123  13.619  0.00  0.00    +0.000 N 
ATOM     17  C   UNL     1      46.544   4.426  14.131  0.00  0.00    +0.000 C 
ATOM     18  O   UNL     1      46.754   3.248  13.869  0.00  0.00    +0.000 OA
ATOM     19  H   UNL     1      45.276   6.049  13.978  0.00  0.00    +0.000 HD
BRANCH  17  20
ATOM     20  C   UNL     1      47.455   5.198  14.990  0.00  0.00    +0.000 A 
ATOM     21  C   UNL     1      48.176   6.266  14.476  0.00  0.00    +0.000 A 
ATOM     22  S   UNL     1      49.162   7.043  15.635  0.00  0.00    +0.000 S 
ATOM     23  C   UNL     1      48.705   5.939  16.847  0.00  0.00    +0.000 A 
ATOM     24  N   UNL     1      49.225   6.016  18.102  0.00  0.00    +0.000 NA
ATOM     25  C   UNL     1      48.822   5.088  18.906  0.00  0.00    +0.000 A 
ATOM     26  N   UNL     1      47.939   4.094  18.571  0.00  0.00    +0.000 N 
ATOM     27  C   UNL     1      47.348   4.009  17.335  0.00  0.00    +0.000 A 
ATOM     28  O   UNL     1      46.489   3.165  17.103  0.00  0.00    +0.000 OA
ATOM     29  C   UNL     1      47.792   5.010  16.382  0.00  0.00    +0.000 A 
ATOM     30  H   UNL     1      47.645   3.410  19.252  0.00  0.00    +0.000 HD
ENDBRANCH  17  20
ENDBRANCH   2  16
TORSDOF 5
ENDMDL
MODEL 2
REMARK VINA RESULT:    -8.133      1.504      2.413
REMARK INTER + INTRA:         -11.263
REMARK INTER:                 -10.228
REMARK INTRA:                  -1.034
REMARK UNBOUND:                -0.752
REMARK  Name = 
REMARK  6 active torsions:
REMARK  status: ('A' for Active; 'I' for Inactive)
REMARK    1  A    between atoms: C_1  and  C_2
REMARK    2  A    between atoms: C_2  and  N_3
REMARK    3  A    between atoms: C_2  and  C_16
REMARK    4  A    between atoms: C_4  and  C_6
REMARK    5  A    between atoms: C_19  and  C_20
REMARK    6  A    between atoms: C_20  and  N_21
REMARK                            x       y       z     vdW  Elec       q    Type
REMARK                         _______ _______ _______ _____ _____    ______ ____
ROOT
ATOM      1  C   UNL     1      43.019   5.316  12.904  0.00  0.00    +0.000 C 
ATOM      2  C   UNL     1      44.277   4.452  12.763  0.00  0.00    +0.000 C 
ENDROOT
BRANCH   2   3
ATOM      3  C   UNL     1      44.659   4.173  11.316  0.00  0.00    +0.000 A 
ATOM      4  C   UNL     1      44.343   2.918  10.779  0.00  0.00    +0.000 A 
ATOM      5  C   UNL     1      44.545   2.641   9.423  0.00  0.00    +0.000 A 
ATOM      6  C   UNL     1      45.090   3.605   8.565  0.00  0.00    +0.000 A 
ATOM      7  C   UNL     1      45.490   4.831   9.117  0.00  0.00    +0.000 A 
ATOM      8  C   UNL     1      45.286   5.109  10.477  0.00  0.00    +0.000 A 
BRANCH   6   9
ATOM      9  C   UNL     1      45.325   3.275   7.108  0.00  0.00    +0.000 C 
BRANCH   9  10
ATOM     10  N   UNL     1      46.675   2.945   6.664  0.00  0.00    +0.000 NA
ATOM     11  C   UNL     1      46.955   3.023   5.229  0.00  0.00    +0.000 C 
ATOM     12  C   UNL     1      46.884   1.683   4.479  0.00  0.00    +0.000 C 
ATOM     13  O   UNL     1      47.656   0.664   5.126  0.00  0.00    +0.000 OA
ATOM     14  C   UNL     1      47.224   0.483   6.479  0.00  0.00    +0.000 C 
ATOM     15  C   UNL     1      47.328   1.788   7.282  0.00  0.00    +0.000 C 
ENDBRANCH   9  10
ENDBRANCH   6   9
ENDBRANCH   2   3
BRANCH   2  16
ATOM     16  N   UNL     1      45.388   5.048  13.476  0.00  0.00    +0.000 N 
ATOM     17  C   UNL     1      46.450   4.314  13.952  0.00  0.00    +0.000 C 
ATOM     18  O   UNL     1      46.639   3.144  13.643  0.00  0.00    +0.000 OA
ATOM     19  H   UNL     1      45.207   5.962  13.873  0.00  0.00    +0.000 HD
BRANCH  17  20
ATOM     20  C   UNL     1      47.380   5.037  14.832  0.00  0.00    +0.000 A 
ATOM     21  C   UNL     1      47.535   4.659  16.159  0.00  0.00    +0.000 A 
ATOM     22  S   UNL     1      48.673   5.610  17.009  0.00  0.00    +0.000 S 
ATOM     23  C   UNL     1      48.950   6.595  15.649  0.00  0.00    +0.000 A 
ATOM     24  N   UNL     1      49.808   7.650  15.707  0.00  0.00    +0.000 NA
ATOM     25  C   UNL     1      49.887   8.336  14.615  0.00  0.00    +0.000 A 
ATOM     26  N   UNL     1      49.191   8.058  13.466  0.00  0.00    +0.000 N 
ATOM     27  C   UNL     1      48.358   6.974  13.345  0.00  0.00    +0.000 A 
ATOM     28  O   UNL     1      47.830   6.702  12.272  0.00  0.00    +0.000 OA
ATOM     29  C   UNL     1      48.208   6.188  14.556  0.00  0.00    +0.000 A 
ATOM     30  H   UNL     1      49.315   8.619  12.636  0.00  0.00    +0.000 HD
ENDBRANCH  17  20
ENDBRANCH   2  16
TORSDOF 5
ENDMDL
MODEL 3
REMARK VINA RESULT:    -6.785      3.715      5.124
REMARK INTER + INTRA:          -9.521
REMARK INTER:                  -8.289
REMARK INTRA:                  -1.232
REMARK UNBOUND:                -0.752
REMARK  Name = 
REMARK  6 active torsions:
REMARK  status: ('A' for Active; 'I' for Inactive)
REMARK    1  A    between atoms: C_1  and  C_2
REMARK    2  A    between atoms: C_2  and  N_3
REMARK    3  A    between atoms: C_2  and  C_16
REMARK    4  A    between atoms: C_4  and  C_6
REMARK    5  A    between atoms: C_19  and  C_20
REMARK    6  A    between atoms: C_20  and  N_21
REMARK                            x       y       z     vdW  Elec       q    Type
REMARK                         _______ _______ _______ _____ _____    ______ ____
ROOT
ATOM      1  C   UNL     1      48.816   9.532  13.959  0.00  0.00    +0.000 C 
ATOM      2  C   UNL     1      47.799   8.486  14.427  0.00  0.00    +0.000 C 
ENDROOT
BRANCH   2   3
ATOM      3  C   UNL     1      46.949   7.922  13.297  0.00  0.00    +0.000 A 
ATOM      4  C   UNL     1      47.294   6.668  12.773  0.00  0.00    +0.000 A 
ATOM      5  C   UNL     1      46.482   6.033  11.828  0.00  0.00    +0.000 A 
ATOM      6  C   UNL     1      45.310   6.641  11.361  0.00  0.00    +0.000 A 
ATOM      7  C   UNL     1      45.009   7.933  11.816  0.00  0.00    +0.000 A 
ATOM      8  C   UNL     1      45.823   8.570  12.765  0.00  0.00    +0.000 A 
BRANCH   6   9
ATOM      9  C   UNL     1      44.461   5.948  10.319  0.00  0.00    +0.000 C 
BRANCH   9  10
ATOM     10  N   UNL     1      43.495   4.941  10.746  0.00  0.00    +0.000 NA
ATOM     11  C   UNL     1      42.617   5.277  11.869  0.00  0.00    +0.000 C 
ATOM     12  C   UNL     1      43.074   4.743  13.235  0.00  0.00    +0.000 C 
ATOM     13  O   UNL     1      43.381   3.344  13.189  0.00  0.00    +0.000 OA
ATOM     14  C   UNL     1      44.387   3.078  12.205  0.00  0.00    +0.000 C 
ATOM     15  C   UNL     1      43.949   3.550  10.811  0.00  0.00    +0.000 C 
ENDBRANCH   9  10
ENDBRANCH   6   9
ENDBRANCH   2   3
BRANCH   2  16
ATOM     16  N   UNL     1      48.460   7.418  15.148  0.00  0.00    +0.000 N 
ATOM     17  C   UNL     1      48.777   7.503  16.484  0.00  0.00    +0.000 C 
ATOM     18  O   UNL     1      48.354   8.394  17.210  0.00  0.00    +0.000 OA
ATOM     19  H   UNL     1      48.947   6.743  14.571  0.00  0.00    +0.000 HD
BRANCH  17  20
ATOM     20  C   UNL     1      49.631   6.426  17.006  0.00  0.00    +0.000 A 
ATOM     21  C   UNL     1      50.873   6.712  17.555  0.00  0.00    +0.000 A 
ATOM     22  S   UNL     1      51.702   5.329  18.120  0.00  0.00    +0.000 S 
ATOM     23  C   UNL     1      50.456   4.296  17.595  0.00  0.00    +0.000 A 
ATOM     24  N   UNL     1      50.548   2.947  17.745  0.00  0.00    +0.000 NA
ATOM     25  C   UNL     1      49.550   2.285  17.261  0.00  0.00    +0.000 A 
ATOM     26  N   UNL     1      48.461   2.851  16.648  0.00  0.00    +0.000 N 
ATOM     27  C   UNL     1      48.299   4.209  16.525  0.00  0.00    +0.000 A 
ATOM     28  O   UNL     1      47.267   4.680  16.060  0.00  0.00    +0.000 OA
ATOM     29  C   UNL     1      49.410   4.998  17.023  0.00  0.00    +0.000 A 
ATOM     30  H   UNL     1      47.700   2.280  16.311  0.00  0.00    +0.000 HD
ENDBRANCH  17  20
ENDBRANCH   2  16
TORSDOF 5
ENDMDL
MODEL 4
REMARK VINA RESULT:    -6.745      3.905      6.220
REMARK INTER + INTRA:          -9.468
REMARK INTER:                  -8.520
REMARK INTRA:                  -0.948
REMARK UNBOUND:                -0.752
REMARK  Name = 
REMARK  6 active torsions:
REMARK  status: ('A' for Active; 'I' for Inactive)
REMARK    1  A    between atoms: C_1  and  C_2
REMARK    2  A    between atoms: C_2  and  N_3
REMARK    3  A    between atoms: C_2  and  C_16
REMARK    4  A    between atoms: C_4  and  C_6
REMARK    5  A    between atoms: C_19  and  C_20
REMARK    6  A    between atoms: C_20  and  N_21
REMARK                            x       y       z     vdW  Elec       q    Type
REMARK                         _______ _______ _______ _____ _____    ______ ____
ROOT
ATOM      1  C   UNL     1      51.446   8.476  15.019  0.00  0.00    +0.000 C 
ATOM      2  C   UNL     1      50.441   7.480  15.606  0.00  0.00    +0.000 C 
ENDROOT
BRANCH   2   3
ATOM      3  C   UNL     1      49.383   7.030  14.610  0.00  0.00    +0.000 A 
ATOM      4  C   UNL     1      48.442   6.079  15.028  0.00  0.00    +0.000 A 
ATOM      5  C   UNL     1      47.366   5.720  14.210  0.00  0.00    +0.000 A 
ATOM      6  C   UNL     1      47.208   6.285  12.939  0.00  0.00    +0.000 A 
ATOM      7  C   UNL     1      48.196   7.169  12.481  0.00  0.00    +0.000 A 
ATOM      8  C   UNL     1      49.275   7.531  13.302  0.00  0.00    +0.000 A 
BRANCH   6   9
ATOM      9  C   UNL     1      46.052   5.862  12.060  0.00  0.00    +0.000 C 
BRANCH   9  10
ATOM     10  N   UNL     1      45.074   4.914  12.582  0.00  0.00    +0.000 NA
ATOM     11  C   UNL     1      45.154   3.529  12.113  0.00  0.00    +0.000 C 
ATOM     12  C   UNL     1      44.193   3.173  10.967  0.00  0.00    +0.000 C 
ATOM     13  O   UNL     1      42.846   3.569  11.254  0.00  0.00    +0.000 OA
ATOM     14  C   UNL     1      42.777   4.974  11.525  0.00  0.00    +0.000 C 
ATOM     15  C   UNL     1      43.686   5.366  12.699  0.00  0.00    +0.000 C 
ENDBRANCH   9  10
ENDBRANCH   6   9
ENDBRANCH   2   3
BRANCH   2  16
ATOM     16  N   UNL     1      51.127   6.336  16.170  0.00  0.00    +0.000 N 
ATOM     17  C   UNL     1      50.967   5.938  17.477  0.00  0.00    +0.000 C 
ATOM     18  O   UNL     1      50.093   6.392  18.206  0.00  0.00    +0.000 OA
ATOM     19  H   UNL     1      51.948   6.030  15.662  0.00  0.00    +0.000 HD
BRANCH  17  20
ATOM     20  C   UNL     1      51.892   4.894  17.944  0.00  0.00    +0.000 A 
ATOM     21  C   UNL     1      53.080   5.234  18.576  0.00  0.00    +0.000 A 
ATOM     22  S   UNL     1      54.006   3.881  19.058  0.00  0.00    +0.000 S 
ATOM     23  C   UNL     1      52.880   2.799  18.382  0.00  0.00    +0.000 A 
ATOM     24  N   UNL     1      53.088   1.454  18.416  0.00  0.00    +0.000 NA
ATOM     25  C   UNL     1      52.174   0.757  17.826  0.00  0.00    +0.000 A 
ATOM     26  N   UNL     1      51.065   1.281  17.213  0.00  0.00    +0.000 N 
ATOM     27  C   UNL     1      50.786   2.625  17.203  0.00  0.00    +0.000 A 
ATOM     28  O   UNL     1      49.737   3.048  16.731  0.00  0.00    +0.000 OA
ATOM     29  C   UNL     1      51.801   3.458  17.824  0.00  0.00    +0.000 A 
ATOM     30  H   UNL     1      50.373   0.680  16.790  0.00  0.00    +0.000 HD
ENDBRANCH  17  20
ENDBRANCH   2  16
TORSDOF 5
ENDMDL
MODEL 5
REMARK VINA RESULT:    -6.498      4.362      6.243
REMARK INTER + INTRA:          -9.149
REMARK INTER:                  -8.117
REMARK INTRA:                  -1.033
REMARK UNBOUND:                -0.752
REMARK  Name = 
REMARK  6 active torsions:
REMARK  status: ('A' for Active; 'I' for Inactive)
REMARK    1  A    between atoms: C_1  and  C_2
REMARK    2  A    between atoms: C_2  and  N_3
REMARK    3  A    between atoms: C_2  and  C_16
REMARK    4  A    between atoms: C_4  and  C_6
REMARK    5  A    between atoms: C_19  and  C_20
REMARK    6  A    between atoms: C_20  and  N_21
REMARK                            x       y       z     vdW  Elec       q    Type
REMARK                         _______ _______ _______ _____ _____    ______ ____
ROOT
ATOM      1  C   UNL     1      44.180   4.227  13.335  0.00  0.00    +0.000 C 
ATOM      2  C   UNL     1      45.462   5.016  13.048  0.00  0.00    +0.000 C 
ENDROOT
BRANCH   2   3
ATOM      3  C   UNL     1      45.204   6.388  12.443  0.00  0.00    +0.000 A 
ATOM      4  C   UNL     1      44.205   6.503  11.466  0.00  0.00    +0.000 A 
ATOM      5  C   UNL     1      43.826   7.752  10.965  0.00  0.00    +0.000 A 
ATOM      6  C   UNL     1      44.449   8.925  11.409  0.00  0.00    +0.000 A 
ATOM      7  C   UNL     1      45.510   8.807  12.319  0.00  0.00    +0.000 A 
ATOM      8  C   UNL     1      45.889   7.553  12.823  0.00  0.00    +0.000 A 
BRANCH   6   9
ATOM      9  C   UNL     1      44.042  10.263  10.833  0.00  0.00    +0.000 C 
BRANCH   9  10
ATOM     10  N   UNL     1      42.961  10.316   9.856  0.00  0.00    +0.000 NA
ATOM     11  C   UNL     1      43.249  10.926   8.556  0.00  0.00    +0.000 C 
ATOM     12  C   UNL     1      42.818  12.395   8.417  0.00  0.00    +0.000 C 
ATOM     13  O   UNL     1      41.457  12.595   8.818  0.00  0.00    +0.000 OA
ATOM     14  C   UNL     1      41.256  12.158  10.167  0.00  0.00    +0.000 C 
ATOM     15  C   UNL     1      41.626  10.678  10.340  0.00  0.00    +0.000 C 
ENDBRANCH   9  10
ENDBRANCH   6   9
ENDBRANCH   2   3
BRANCH   2  16
ATOM     16  N   UNL     1      46.268   5.131  14.246  0.00  0.00    +0.000 N 
ATOM     17  C   UNL     1      47.072   4.114  14.706  0.00  0.00    +0.000 C 
ATOM     18  O   UNL     1      47.321   3.114  14.044  0.00  0.00    +0.000 OA
ATOM     19  H   UNL     1      45.988   5.863  14.888  0.00  0.00    +0.000 HD
BRANCH  17  20
ATOM     20  C   UNL     1      47.654   4.317  16.042  0.00  0.00    +0.000 A 
ATOM     21  C   UNL     1      47.331   3.467  17.090  0.00  0.00    +0.000 A 
ATOM     22  S   UNL     1      48.124   3.858  18.553  0.00  0.00    +0.000 S 
ATOM     23  C   UNL     1      48.877   5.212  17.848  0.00  0.00    +0.000 A 
ATOM     24  N   UNL     1      49.685   6.028  18.579  0.00  0.00    +0.000 NA
ATOM     25  C   UNL     1      50.153   7.041  17.926  0.00  0.00    +0.000 A 
ATOM     26  N   UNL     1      49.893   7.307  16.607  0.00  0.00    +0.000 N 
ATOM     27  C   UNL     1      49.130   6.483  15.817  0.00  0.00    +0.000 A 
ATOM     28  O   UNL     1      49.001   6.702  14.618  0.00  0.00    +0.000 OA
ATOM     29  C   UNL     1      48.552   5.347  16.511  0.00  0.00    +0.000 A 
ATOM     30  H   UNL     1      50.309   8.104  16.147  0.00  0.00    +0.000 HD
ENDBRANCH  17  20
ENDBRANCH   2  16
TORSDOF 5
ENDMDL
MODEL 6
REMARK VINA RESULT:    -6.314      4.379      6.306
REMARK INTER + INTRA:          -8.912
REMARK INTER:                  -8.037
REMARK INTRA:                  -0.875
REMARK UNBOUND:                -0.752
REMARK  Name = 
REMARK  6 active torsions:
REMARK  status: ('A' for Active; 'I' for Inactive)
REMARK    1  A    between atoms: C_1  and  C_2
REMARK    2  A    between atoms: C_2  and  N_3
REMARK    3  A    between atoms: C_2  and  C_16
REMARK    4  A    between atoms: C_4  and  C_6
REMARK    5  A    between atoms: C_19  and  C_20
REMARK    6  A    between atoms: C_20  and  N_21
REMARK                            x       y       z     vdW  Elec       q    Type
REMARK                         _______ _______ _______ _____ _____    ______ ____
ROOT
ATOM      1  C   UNL     1      45.789   4.296  12.994  0.00  0.00    +0.000 C 
ATOM      2  C   UNL     1      46.553   5.623  13.060  0.00  0.00    +0.000 C 
ENDROOT
BRANCH   2   3
ATOM      3  C   UNL     1      45.745   6.811  12.558  0.00  0.00    +0.000 A 
ATOM      4  C   UNL     1      46.044   8.080  13.074  0.00  0.00    +0.000 A 
ATOM      5  C   UNL     1      45.434   9.229  12.562  0.00  0.00    +0.000 A 
ATOM      6  C   UNL     1      44.489   9.145  11.533  0.00  0.00    +0.000 A 
ATOM      7  C   UNL     1      44.121   7.870  11.076  0.00  0.00    +0.000 A 
ATOM      8  C   UNL     1      44.734   6.717  11.588  0.00  0.00    +0.000 A 
BRANCH   6   9
ATOM      9  C   UNL     1      43.821  10.398  11.012  0.00  0.00    +0.000 C 
BRANCH   9  10
ATOM     10  N   UNL     1      42.710  10.273  10.075  0.00  0.00    +0.000 NA
ATOM     11  C   UNL     1      42.817  10.982   8.798  0.00  0.00    +0.000 C 
ATOM     12  C   UNL     1      42.097  12.339   8.746  0.00  0.00    +0.000 C 
ATOM     13  O   UNL     1      40.741  12.246   9.200  0.00  0.00    +0.000 OA
ATOM     14  C   UNL     1      40.688  11.722  10.532  0.00  0.00    +0.000 C 
ATOM     15  C   UNL     1      41.352  10.340  10.620  0.00  0.00    +0.000 C 
ENDBRANCH   9  10
ENDBRANCH   6   9
ENDBRANCH   2   3
BRANCH   2  16
ATOM     16  N   UNL     1      47.034   5.867  14.404  0.00  0.00    +0.000 N 
ATOM     17  C   UNL     1      48.341   6.196  14.681  0.00  0.00    +0.000 C 
ATOM     18  O   UNL     1      49.148   6.499  13.810  0.00  0.00    +0.000 OA
ATOM     19  H   UNL     1      46.456   5.494  15.146  0.00  0.00    +0.000 HD
BRANCH  17  20
ATOM     20  C   UNL     1      48.709   6.201  16.105  0.00  0.00    +0.000 A 
ATOM     21  C   UNL     1      49.420   7.263  16.647  0.00  0.00    +0.000 A 
ATOM     22  S   UNL     1      49.734   7.089  18.318  0.00  0.00    +0.000 S 
ATOM     23  C   UNL     1      48.984   5.562  18.358  0.00  0.00    +0.000 A 
ATOM     24  N   UNL     1      48.934   4.832  19.506  0.00  0.00    +0.000 NA
ATOM     25  C   UNL     1      48.374   3.674  19.379  0.00  0.00    +0.000 A 
ATOM     26  N   UNL     1      47.851   3.184  18.210  0.00  0.00    +0.000 N 
ATOM     27  C   UNL     1      47.829   3.907  17.044  0.00  0.00    +0.000 A 
ATOM     28  O   UNL     1      47.264   3.474  16.045  0.00  0.00    +0.000 OA
ATOM     29  C   UNL     1      48.476   5.203  17.123  0.00  0.00    +0.000 A 
ATOM     30  H   UNL     1      47.404   2.279  18.181  0.00  0.00    +0.000 HD
ENDBRANCH  17  20
ENDBRANCH   2  16
TORSDOF 5
ENDMDL
MODEL 7
REMARK VINA RESULT:    -6.310      3.410      5.563
REMARK INTER + INTRA:          -8.906
REMARK INTER:                  -8.109
REMARK INTRA:                  -0.797
REMARK UNBOUND:                -0.752
REMARK  Name = 
REMARK  6 active torsions:
REMARK  status: ('A' for Active; 'I' for Inactive)
REMARK    1  A    between atoms: C_1  and  C_2
REMARK    2  A    between atoms: C_2  and  N_3
REMARK    3  A    between atoms: C_2  and  C_16
REMARK    4  A    between atoms: C_4  and  C_6
REMARK    5  A    between atoms: C_19  and  C_20
REMARK    6  A    between atoms: C_20  and  N_21
REMARK                            x       y       z     vdW  Elec       q    Type
REMARK                         _______ _______ _______ _____ _____    ______ ____
ROOT
ATOM      1  C   UNL     1      47.317   3.439  16.974  0.00  0.00    +0.000 C 
ATOM      2  C   UNL     1      47.872   4.673  16.253  0.00  0.00    +0.000 C 
ENDROOT
BRANCH   2   3
ATOM      3  C   UNL     1      47.265   4.892  14.875  0.00  0.00    +0.000 A 
ATOM      4  C   UNL     1      47.152   6.207  14.404  0.00  0.00    +0.000 A 
ATOM      5  C   UNL     1      46.727   6.472  13.098  0.00  0.00    +0.000 A 
ATOM      6  C   UNL     1      46.381   5.430  12.229  0.00  0.00    +0.000 A 
ATOM      7  C   UNL     1      46.407   4.118  12.725  0.00  0.00    +0.000 A 
ATOM      8  C   UNL     1      46.834   3.853  14.035  0.00  0.00    +0.000 A 
BRANCH   6   9
ATOM      9  C   UNL     1      45.898   5.740  10.829  0.00  0.00    +0.000 C 
BRANCH   9  10
ATOM     10  N   UNL     1      44.546   5.352  10.443  0.00  0.00    +0.000 NA
ATOM     11  C   UNL     1      43.488   5.490  11.446  0.00  0.00    +0.000 C 
ATOM     12  C   UNL     1      43.139   4.200  12.205  0.00  0.00    +0.000 C 
ATOM     13  O   UNL     1      42.901   3.101  11.316  0.00  0.00    +0.000 OA
ATOM     14  C   UNL     1      44.037   2.875  10.474  0.00  0.00    +0.000 C 
ATOM     15  C   UNL     1      44.391   4.126   9.657  0.00  0.00    +0.000 C 
ENDBRANCH   9  10
ENDBRANCH   6   9
ENDBRANCH   2   3
BRANCH   2  16
ATOM     16  N   UNL     1      47.712   5.856  17.073  0.00  0.00    +0.000 N 
ATOM     17  C   UNL     1      48.620   6.223  18.040  0.00  0.00    +0.000 C 
ATOM     18  O   UNL     1      49.720   5.697  18.150  0.00  0.00    +0.000 OA
ATOM     19  H   UNL     1      46.772   6.229  17.119  0.00  0.00    +0.000 HD
BRANCH  17  20
ATOM     20  C   UNL     1      48.203   7.325  18.920  0.00  0.00    +0.000 A 
ATOM     21  C   UNL     1      47.944   7.097  20.264  0.00  0.00    +0.000 A 
ATOM     22  S   UNL     1      47.491   8.506  21.119  0.00  0.00    +0.000 S 
ATOM     23  C   UNL     1      47.566   9.455  19.709  0.00  0.00    +0.000 A 
ATOM     24  N   UNL     1      47.254  10.779  19.733  0.00  0.00    +0.000 NA
ATOM     25  C   UNL     1      47.312  11.364  18.582  0.00  0.00    +0.000 A 
ATOM     26  N   UNL     1      47.663  10.746  17.410  0.00  0.00    +0.000 N 
ATOM     27  C   UNL     1      48.039   9.427  17.347  0.00  0.00    +0.000 A 
ATOM     28  O   UNL     1      48.441   8.936  16.297  0.00  0.00    +0.000 OA
ATOM     29  C   UNL     1      47.959   8.714  18.609  0.00  0.00    +0.000 A 
ATOM     30  H   UNL     1      47.712  11.265  16.545  0.00  0.00    +0.000 HD
ENDBRANCH  17  20
ENDBRANCH   2  16
TORSDOF 5
ENDMDL
MODEL 8
REMARK VINA RESULT:    -6.297      3.809      5.330
REMARK INTER + INTRA:          -8.889
REMARK INTER:                  -8.080
REMARK INTRA:                  -0.810
REMARK UNBOUND:                -0.752
REMARK  Name = 
REMARK  6 active torsions:
REMARK  status: ('A' for Active; 'I' for Inactive)
REMARK    1  A    between atoms: C_1  and  C_2
REMARK    2  A    between atoms: C_2  and  N_3
REMARK    3  A    between atoms: C_2  and  C_16
REMARK    4  A    between atoms: C_4  and  C_6
REMARK    5  A    between atoms: C_19  and  C_20
REMARK    6  A    between atoms: C_20  and  N_21
REMARK                            x       y       z     vdW  Elec       q    Type
REMARK                         _______ _______ _______ _____ _____    ______ ____
ROOT
ATOM      1  C   UNL     1      49.169   9.039  13.347  0.00  0.00    +0.000 C 
ATOM      2  C   UNL     1      47.733   8.918  13.868  0.00  0.00    +0.000 C 
ENDROOT
BRANCH   2   3
ATOM      3  C   UNL     1      46.851   8.026  13.007  0.00  0.00    +0.000 A 
ATOM      4  C   UNL     1      45.640   8.550  12.535  0.00  0.00    +0.000 A 
ATOM      5  C   UNL     1      44.845   7.834  11.633  0.00  0.00    +0.000 A 
ATOM      6  C   UNL     1      45.227   6.562  11.191  0.00  0.00    +0.000 A 
ATOM      7  C   UNL     1      46.393   5.997  11.730  0.00  0.00    +0.000 A 
ATOM      8  C   UNL     1      47.190   6.716  12.633  0.00  0.00    +0.000 A 
BRANCH   6   9
ATOM      9  C   UNL     1      44.340   5.794  10.237  0.00  0.00    +0.000 C 
BRANCH   9  10
ATOM     10  N   UNL     1      43.455   4.762  10.766  0.00  0.00    +0.000 NA
ATOM     11  C   UNL     1      42.651   5.096  11.943  0.00  0.00    +0.000 C 
ATOM     12  C   UNL     1      43.234   4.625  13.285  0.00  0.00    +0.000 C 
ATOM     13  O   UNL     1      43.598   3.240  13.255  0.00  0.00    +0.000 OA
ATOM     14  C   UNL     1      44.536   2.984  12.204  0.00  0.00    +0.000 C 
ATOM     15  C   UNL     1      43.973   3.394  10.835  0.00  0.00    +0.000 C 
ENDBRANCH   9  10
ENDBRANCH   6   9
ENDBRANCH   2   3
BRANCH   2  16
ATOM     16  N   UNL     1      47.725   8.466  15.243  0.00  0.00    +0.000 N 
ATOM     17  C   UNL     1      48.374   9.137  16.254  0.00  0.00    +0.000 C 
ATOM     18  O   UNL     1      48.839  10.261  16.112  0.00  0.00    +0.000 OA
ATOM     19  H   UNL     1      47.487   7.491  15.378  0.00  0.00    +0.000 HD
BRANCH  17  20
ATOM     20  C   UNL     1      48.445   8.433  17.544  0.00  0.00    +0.000 A 
ATOM     21  C   UNL     1      48.128   9.090  18.725  0.00  0.00    +0.000 A 
ATOM     22  S   UNL     1      48.254   8.097  20.110  0.00  0.00    +0.000 S 
ATOM     23  C   UNL     1      48.795   6.776  19.184  0.00  0.00    +0.000 A 
ATOM     24  N   UNL     1      49.124   5.593  19.770  0.00  0.00    +0.000 NA
ATOM     25  C   UNL     1      49.560   4.693  18.951  0.00  0.00    +0.000 A 
ATOM     26  N   UNL     1      49.689   4.866  17.597  0.00  0.00    +0.000 N 
ATOM     27  C   UNL     1      49.316   6.022  16.956  0.00  0.00    +0.000 A 
ATOM     28  O   UNL     1      49.354   6.104  15.733  0.00  0.00    +0.000 OA
ATOM     29  C   UNL     1      48.850   7.078  17.836  0.00  0.00    +0.000 A 
ATOM     30  H   UNL     1      50.014   4.115  17.007  0.00  0.00    +0.000 HD
ENDBRANCH  17  20
ENDBRANCH   2  16
TORSDOF 5
ENDMDL
MODEL 9
REMARK VINA RESULT:    -6.237      4.926      7.522
REMARK INTER + INTRA:          -8.812
REMARK INTER:                  -7.802
REMARK INTRA:                  -1.009
REMARK UNBOUND:                -0.752
REMARK  Name = 
REMARK  6 active torsions:
REMARK  status: ('A' for Active; 'I' for Inactive)
REMARK    1  A    between atoms: C_1  and  C_2
REMARK    2  A    between atoms: C_2  and  N_3
REMARK    3  A    between atoms: C_2  and  C_16
REMARK    4  A    between atoms: C_4  and  C_6
REMARK    5  A    between atoms: C_19  and  C_20
REMARK    6  A    between atoms: C_20  and  N_21
REMARK                            x       y       z     vdW  Elec       q    Type
REMARK                         _______ _______ _______ _____ _____    ______ ____
ROOT
ATOM      1  C   UNL     1      48.416   6.481  14.803  0.00  0.00    +0.000 C 
ATOM      2  C   UNL     1      48.168   7.232  13.490  0.00  0.00    +0.000 C 
ENDROOT
BRANCH   2   3
ATOM      3  C   UNL     1      49.424   7.865  12.910  0.00  0.00    +0.000 A 
ATOM      4  C   UNL     1      50.533   8.025  13.752  0.00  0.00    +0.000 A 
ATOM      5  C   UNL     1      51.760   8.476  13.252  0.00  0.00    +0.000 A 
ATOM      6  C   UNL     1      51.909   8.802  11.899  0.00  0.00    +0.000 A 
ATOM      7  C   UNL     1      50.778   8.728  11.072  0.00  0.00    +0.000 A 
ATOM      8  C   UNL     1      49.549   8.274  11.573  0.00  0.00    +0.000 A 
BRANCH   6   9
ATOM      9  C   UNL     1      53.236   9.314  11.385  0.00  0.00    +0.000 C 
BRANCH   9  10
ATOM     10  N   UNL     1      54.033   8.463  10.508  0.00  0.00    +0.000 NA
ATOM     11  C   UNL     1      53.978   8.730   9.069  0.00  0.00    +0.000 C 
ATOM     12  C   UNL     1      53.007   7.838   8.279  0.00  0.00    +0.000 C 
ATOM     13  O   UNL     1      53.204   6.448   8.563  0.00  0.00    +0.000 OA
ATOM     14  C   UNL     1      53.063   6.191   9.965  0.00  0.00    +0.000 C 
ATOM     15  C   UNL     1      54.052   7.026  10.791  0.00  0.00    +0.000 C 
ENDBRANCH   9  10
ENDBRANCH   6   9
ENDBRANCH   2   3
BRANCH   2  16
ATOM     16  N   UNL     1      47.540   6.362  12.517  0.00  0.00    +0.000 N 
ATOM     17  C   UNL     1      46.424   6.727  11.800  0.00  0.00    +0.000 C 
ATOM     18  O   UNL     1      45.994   7.874  11.781  0.00  0.00    +0.000 OA
ATOM     19  H   UNL     1      47.765   5.379  12.605  0.00  0.00    +0.000 HD
BRANCH  17  20
ATOM     20  C   UNL     1      45.792   5.656  11.015  0.00  0.00    +0.000 A 
ATOM     21  C   UNL     1      45.890   5.643   9.631  0.00  0.00    +0.000 A 
ATOM     22  S   UNL     1      45.106   4.309   8.906  0.00  0.00    +0.000 S 
ATOM     23  C   UNL     1      44.558   3.739  10.413  0.00  0.00    +0.000 A 
ATOM     24  N   UNL     1      43.781   2.625  10.505  0.00  0.00    +0.000 NA
ATOM     25  C   UNL     1      43.403   2.335  11.706  0.00  0.00    +0.000 A 
ATOM     26  N   UNL     1      43.739   3.052  12.825  0.00  0.00    +0.000 N 
ATOM     27  C   UNL     1      44.565   4.148  12.787  0.00  0.00    +0.000 A 
ATOM     28  O   UNL     1      44.922   4.704  13.820  0.00  0.00    +0.000 OA
ATOM     29  C   UNL     1      44.992   4.537  11.455  0.00  0.00    +0.000 A 
ATOM     30  H   UNL     1      43.431   2.759  13.741  0.00  0.00    +0.000 HD
ENDBRANCH  17  20
ENDBRANCH   2  16
TORSDOF 5
ENDMDL
