MODEL 1
REMARK VINA RESULT:    -8.340      0.000      0.000
REMARK INTER + INTRA:         -12.834
REMARK INTER:                 -11.997
REMARK INTRA:                  -0.837
REMARK UNBOUND:                -0.837
REMARK  Name = 
REMARK  8 active torsions:
REMARK  status: ('A' for Active; 'I' for Inactive)
REMARK    1  A    between atoms: N_1  and  C_2
REMARK    2  A    between atoms: C_2  and  C_3
REMARK    3  A    between atoms: C_2  and  C_24
REMARK    4  A    between atoms: C_3  and  C_4
REMARK    5  A    between atoms: C_7  and  C_8
REMARK    6  A    between atoms: C_8  and  N_9
REMARK    7  A    between atoms: C_10  and  C_12
REMARK    8  A    between atoms: C_24  and  C_26
REMARK                            x       y       z     vdW  Elec       q    Type
REMARK                         _______ _______ _______ _____ _____    ______ ____
ROOT
ATOM      1  C   UNL     1      45.610   4.858  12.092  0.00  0.00    +0.000 A 
ATOM      2  C   UNL     1      46.132   4.369  13.297  0.00  0.00    +0.000 A 
ATOM      3  C   UNL     1      47.131   5.068  13.984  0.00  0.00    +0.000 A 
ATOM      4  C   UNL     1      47.623   6.281  13.485  0.00  0.00    +0.000 A 
ATOM      5  C   UNL     1      47.097   6.776  12.284  0.00  0.00    +0.000 A 
ATOM      6  C   UNL     1      46.098   6.076  11.599  0.00  0.00    +0.000 A 
ENDROOT
BRANCH   1   7
ATOM      7  C   UNL     1      44.596   4.053  11.306  0.00  0.00    +0.000 C 
BRANCH   7   8
ATOM      8  C   UNL     1      44.701   4.066   9.767  0.00  0.00    +0.000 C 
BRANCH   8   9
ATOM      9  N   UNL     1      43.555   4.731   9.111  0.00  0.00    +0.000 NA
ATOM     10  H   UNL     1      43.858   5.589   8.658  0.00  0.00    +0.000 HD
ATOM     11  H   UNL     1      42.902   5.009   9.851  0.00  0.00    +0.000 HD
ENDBRANCH   8   9
BRANCH   8  12
ATOM     12  C   UNL     1      44.864   2.649   9.184  0.00  0.00    +0.000 C 
ATOM     13  O   UNL     1      44.218   1.696   9.627  0.00  0.00    +0.000 OA
BRANCH  12  14
ATOM     14  C   UNL     1      45.843   2.396   8.075  0.00  0.00    +0.000 A 
ATOM     15  C   UNL     1      46.542   1.191   7.917  0.00  0.00    +0.000 A 
ATOM     16  C   UNL     1      47.454   1.036   6.866  0.00  0.00    +0.000 A 
ATOM     17  C   UNL     1      47.671   2.075   5.960  0.00  0.00    +0.000 A 
ATOM     18  C   UNL     1      46.978   3.275   6.106  0.00  0.00    +0.000 A 
ATOM     19  C   UNL     1      46.072   3.434   7.156  0.00  0.00    +0.000 A 
ENDBRANCH  12  14
ENDBRANCH   8  12
ENDBRANCH   7   8
ENDBRANCH   1   7
BRANCH   4  20
ATOM     20  C   UNL     1      48.741   7.009  14.187  0.00  0.00    +0.000 C 
BRANCH  20  21
ATOM     21  N   UNL     1      48.455   7.157  15.593  0.00  0.00    +0.000 N 
ATOM     22  C   UNL     1      49.298   6.663  16.553  0.00  0.00    +0.000 C 
ATOM     23  O   UNL     1      50.351   6.095  16.266  0.00  0.00    +0.000 OA
ATOM     24  H   UNL     1      47.507   7.419  15.845  0.00  0.00    +0.000 HD
BRANCH  22  25
ATOM     25  C   UNL     1      48.916   6.902  17.952  0.00  0.00    +0.000 A 
ATOM     26  C   UNL     1      48.658   8.198  18.381  0.00  0.00    +0.000 A 
ATOM     27  S   UNL     1      48.158   8.294  20.008  0.00  0.00    +0.000 S 
ATOM     28  C   UNL     1      48.320   6.613  20.214  0.00  0.00    +0.000 A 
ATOM     29  N   UNL     1      48.056   6.027  21.414  0.00  0.00    +0.000 NA
ATOM     30  C   UNL     1      48.251   4.753  21.439  0.00  0.00    +0.000 A 
ATOM     31  N   UNL     1      48.684   4.007  20.374  0.00  0.00    +0.000 N 
ATOM     32  C   UNL     1      48.939   4.551  19.137  0.00  0.00    +0.000 A 
ATOM     33  O   UNL     1      49.296   3.850  18.197  0.00  0.00    +0.000 OA
ATOM     34  C   UNL     1      48.739   5.985  19.056  0.00  0.00    +0.000 A 
ATOM     35  H   UNL     1      48.816   3.011  20.459  0.00  0.00    +0.000 HD
ENDBRANCH  22  25
ENDBRANCH  20  21
ENDBRANCH   4  20
TORSDOF 8
ENDMDL
MODEL 2
REMARK VINA RESULT:    -8.310      3.119      4.806
REMARK INTER + INTRA:         -12.791
REMARK INTER:                 -12.030
REMARK INTRA:                  -0.760
REMARK UNBOUND:                -0.837
REMARK  Name = 
REMARK  8 active torsions:
REMARK  status: ('A' for Active; 'I' for Inactive)
REMARK    1  A    between atoms: N_1  and  C_2
REMARK    2  A    between atoms: C_2  and  C_3
REMARK    3  A    between atoms: C_2  and  C_24
REMARK    4  A    between atoms: C_3  and  C_4
REMARK    5  A    between atoms: C_7  and  C_8
REMARK    6  A    between atoms: C_8  and  N_9
REMARK    7  A    between atoms: C_10  and  C_12
REMARK    8  A    between atoms: C_24  and  C_26
REMARK                            x       y       z     vdW  Elec       q    Type
REMARK                         _______ _______ _______ _____ _____    ______ ____
ROOT
ATOM      1  C   UNL     1      45.655   3.373   7.990  0.00  0.00    +0.000 A 
ATOM      2  C   UNL     1      45.083   2.332   8.733  0.00  0.00    +0.000 A 
ATOM      3  C   UNL     1      44.622   2.549  10.037  0.00  0.00    +0.000 A 
ATOM      4  C   UNL     1      44.714   3.818  10.623  0.00  0.00    +0.000 A 
ATOM      5  C   UNL     1      45.278   4.862   9.879  0.00  0.00    +0.000 A 
ATOM      6  C   UNL     1      45.737   4.644   8.576  0.00  0.00    +0.000 A 
ENDROOT
BRANCH   1   7
ATOM      7  C   UNL     1      46.236   3.113   6.616  0.00  0.00    +0.000 C 
BRANCH   7   8
ATOM      8  C   UNL     1      46.813   1.711   6.330  0.00  0.00    +0.000 C 
BRANCH   8   9
ATOM      9  N   UNL     1      47.891   1.323   7.265  0.00  0.00    +0.000 NA
ATOM     10  H   UNL     1      47.498   0.869   8.086  0.00  0.00    +0.000 HD
ATOM     11  H   UNL     1      48.331   2.189   7.595  0.00  0.00    +0.000 HD
ENDBRANCH   8   9
BRANCH   8  12
ATOM     12  C   UNL     1      47.327   1.579   4.884  0.00  0.00    +0.000 C 
ATOM     13  O   UNL     1      48.218   2.316   4.450  0.00  0.00    +0.000 OA
BRANCH  12  14
ATOM     14  C   UNL     1      46.729   0.559   3.959  0.00  0.00    +0.000 A 
ATOM     15  C   UNL     1      46.984  -0.816   4.052  0.00  0.00    +0.000 A 
ATOM     16  C   UNL     1      46.403  -1.705   3.139  0.00  0.00    +0.000 A 
ATOM     17  C   UNL     1      45.559  -1.233   2.134  0.00  0.00    +0.000 A 
ATOM     18  C   UNL     1      45.296   0.131   2.035  0.00  0.00    +0.000 A 
ATOM     19  C   UNL     1      45.878   1.021   2.940  0.00  0.00    +0.000 A 
ENDBRANCH  12  14
ENDBRANCH   8  12
ENDBRANCH   7   8
ENDBRANCH   1   7
BRANCH   4  20
ATOM     20  C   UNL     1      44.276   4.045  12.048  0.00  0.00    +0.000 C 
BRANCH  20  21
ATOM     21  N   UNL     1      45.242   4.843  12.761  0.00  0.00    +0.000 N 
ATOM     22  C   UNL     1      46.327   4.276  13.378  0.00  0.00    +0.000 C 
ATOM     23  O   UNL     1      46.543   3.066  13.332  0.00  0.00    +0.000 OA
ATOM     24  H   UNL     1      44.972   5.793  12.995  0.00  0.00    +0.000 HD
BRANCH  22  25
ATOM     25  C   UNL     1      47.259   5.194  14.046  0.00  0.00    +0.000 A 
ATOM     26  C   UNL     1      47.894   6.185  13.308  0.00  0.00    +0.000 A 
ATOM     27  S   UNL     1      48.885   7.209  14.245  0.00  0.00    +0.000 S 
ATOM     28  C   UNL     1      48.544   6.332  15.662  0.00  0.00    +0.000 A 
ATOM     29  N   UNL     1      49.104   6.683  16.852  0.00  0.00    +0.000 NA
ATOM     30  C   UNL     1      48.787   5.913  17.837  0.00  0.00    +0.000 A 
ATOM     31  N   UNL     1      47.959   4.826  17.744  0.00  0.00    +0.000 N 
ATOM     32  C   UNL     1      47.352   4.448  16.569  0.00  0.00    +0.000 A 
ATOM     33  O   UNL     1      46.591   3.487  16.528  0.00  0.00    +0.000 OA
ATOM     34  C   UNL     1      47.679   5.279  15.427  0.00  0.00    +0.000 A 
ATOM     35  H   UNL     1      47.749   4.264  18.555  0.00  0.00    +0.000 HD
ENDBRANCH  22  25
ENDBRANCH  20  21
ENDBRANCH   4  20
TORSDOF 8
ENDMDL
MODEL 3
REMARK VINA RESULT:    -8.299      2.446      3.028
REMARK INTER + INTRA:         -12.775
REMARK INTER:                 -11.850
REMARK INTRA:                  -0.925
REMARK UNBOUND:                -0.837
REMARK  Name = 
REMARK  8 active torsions:
REMARK  status: ('A' for Active; 'I' for Inactive)
REMARK    1  A    between atoms: N_1  and  C_2
REMARK    2  A    between atoms: C_2  and  C_3
REMARK    3  A    between atoms: C_2  and  C_24
REMARK    4  A    between atoms: C_3  and  C_4
REMARK    5  A    between atoms: C_7  and  C_8
REMARK    6  A    between atoms: C_8  and  N_9
REMARK    7  A    between atoms: C_10  and  C_12
REMARK    8  A    between atoms: C_24  and  C_26
REMARK                            x       y       z     vdW  Elec       q    Type
REMARK                         _______ _______ _______ _____ _____    ______ ____
ROOT
ATOM      1  C   UNL     1      46.008   4.442  12.684  0.00  0.00    +0.000 A 
ATOM      2  C   UNL     1      46.404   5.722  12.270  0.00  0.00    +0.000 A 
ATOM      3  C   UNL     1      47.221   6.518  13.081  0.00  0.00    +0.000 A 
ATOM      4  C   UNL     1      47.671   6.047  14.321  0.00  0.00    +0.000 A 
ATOM      5  C   UNL     1      47.282   4.765  14.733  0.00  0.00    +0.000 A 
ATOM      6  C   UNL     1      46.467   3.969  13.921  0.00  0.00    +0.000 A 
ENDROOT
BRANCH   1   7
ATOM      7  C   UNL     1      45.051   3.622  11.846  0.00  0.00    +0.000 C 
BRANCH   7   8
ATOM      8  C   UNL     1      44.901   3.987  10.354  0.00  0.00    +0.000 C 
BRANCH   8   9
ATOM      9  N   UNL     1      43.766   4.896  10.089  0.00  0.00    +0.000 NA
ATOM     10  H   UNL     1      43.655   5.554  10.855  0.00  0.00    +0.000 HD
ATOM     11  H   UNL     1      42.915   4.323  10.074  0.00  0.00    +0.000 HD
ENDBRANCH   8   9
BRANCH   8  12
ATOM     12  C   UNL     1      44.768   2.738   9.461  0.00  0.00    +0.000 C 
ATOM     13  O   UNL     1      43.892   1.893   9.668  0.00  0.00    +0.000 OA
BRANCH  12  14
ATOM     14  C   UNL     1      45.727   2.513   8.329  0.00  0.00    +0.000 A 
ATOM     15  C   UNL     1      46.394   1.300   8.109  0.00  0.00    +0.000 A 
ATOM     16  C   UNL     1      47.290   1.171   7.040  0.00  0.00    +0.000 A 
ATOM     17  C   UNL     1      47.522   2.244   6.180  0.00  0.00    +0.000 A 
ATOM     18  C   UNL     1      46.861   3.452   6.388  0.00  0.00    +0.000 A 
ATOM     19  C   UNL     1      45.971   3.586   7.455  0.00  0.00    +0.000 A 
ENDBRANCH  12  14
ENDBRANCH   8  12
ENDBRANCH   7   8
ENDBRANCH   1   7
BRANCH   4  20
ATOM     20  C   UNL     1      48.500   6.922  15.226  0.00  0.00    +0.000 C 
BRANCH  20  21
ATOM     21  N   UNL     1      49.626   6.191  15.755  0.00  0.00    +0.000 N 
ATOM     22  C   UNL     1      49.639   5.725  17.043  0.00  0.00    +0.000 C 
ATOM     23  O   UNL     1      48.684   5.883  17.802  0.00  0.00    +0.000 OA
ATOM     24  H   UNL     1      50.495   6.241  15.231  0.00  0.00    +0.000 HD
BRANCH  22  25
ATOM     25  C   UNL     1      50.828   4.968  17.458  0.00  0.00    +0.000 A 
ATOM     26  C   UNL     1      51.940   5.647  17.940  0.00  0.00    +0.000 A 
ATOM     27  S   UNL     1      53.204   4.619  18.444  0.00  0.00    +0.000 S 
ATOM     28  C   UNL     1      52.332   3.232  17.987  0.00  0.00    +0.000 A 
ATOM     29  N   UNL     1      52.867   1.989  18.140  0.00  0.00    +0.000 NA
ATOM     30  C   UNL     1      52.112   1.030  17.722  0.00  0.00    +0.000 A 
ATOM     31  N   UNL     1      50.871   1.197  17.167  0.00  0.00    +0.000 N 
ATOM     32  C   UNL     1      50.281   2.431  17.015  0.00  0.00    +0.000 A 
ATOM     33  O   UNL     1      49.155   2.542  16.543  0.00  0.00    +0.000 OA
ATOM     34  C   UNL     1      51.091   3.546  17.466  0.00  0.00    +0.000 A 
ATOM     35  H   UNL     1      50.329   0.403  16.860  0.00  0.00    +0.000 HD
ENDBRANCH  22  25
ENDBRANCH  20  21
ENDBRANCH   4  20
TORSDOF 8
ENDMDL
MODEL 4
REMARK VINA RESULT:    -8.273      1.261      2.234
REMARK INTER + INTRA:         -12.738
REMARK INTER:                 -11.678
REMARK INTRA:                  -1.060
REMARK UNBOUND:                -0.837
REMARK  Name = 
REMARK  8 active torsions:
REMARK  status: ('A' for Active; 'I' for Inactive)
REMARK    1  A    between atoms: N_1  and  C_2
REMARK    2  A    between atoms: C_2  and  C_3
REMARK    3  A    between atoms: C_2  and  C_24
REMARK    4  A    between atoms: C_3  and  C_4
REMARK    5  A    between atoms: C_7  and  C_8
REMARK    6  A    between atoms: C_8  and  N_9
REMARK    7  A    between atoms: C_10  and  C_12
REMARK    8  A    between atoms: C_24  and  C_26
REMARK                            x       y       z     vdW  Elec       q    Type
REMARK                         _______ _______ _______ _____ _____    ______ ____
ROOT
ATOM      1  C   UNL     1      45.738   4.701  12.107  0.00  0.00    +0.000 A 
ATOM      2  C   UNL     1      46.213   5.949  11.680  0.00  0.00    +0.000 A 
ATOM      3  C   UNL     1      47.121   6.676  12.457  0.00  0.00    +0.000 A 
ATOM      4  C   UNL     1      47.585   6.166  13.676  0.00  0.00    +0.000 A 
ATOM      5  C   UNL     1      47.118   4.915  14.102  0.00  0.00    +0.000 A 
ATOM      6  C   UNL     1      46.211   4.189  13.323  0.00  0.00    +0.000 A 
ENDROOT
BRANCH   1   7
ATOM      7  C   UNL     1      44.686   3.961  11.309  0.00  0.00    +0.000 C 
BRANCH   7   8
ATOM      8  C   UNL     1      44.753   4.048   9.770  0.00  0.00    +0.000 C 
BRANCH   8   9
ATOM      9  N   UNL     1      43.591   4.741   9.175  0.00  0.00    +0.000 NA
ATOM     10  H   UNL     1      43.817   5.715   8.993  0.00  0.00    +0.000 HD
ATOM     11  H   UNL     1      42.846   4.744   9.881  0.00  0.00    +0.000 HD
ENDBRANCH   8   9
BRANCH   8  12
ATOM     12  C   UNL     1      44.904   2.661   9.116  0.00  0.00    +0.000 C 
ATOM     13  O   UNL     1      44.266   1.687   9.526  0.00  0.00    +0.000 OA
BRANCH  12  14
ATOM     14  C   UNL     1      45.858   2.463   7.975  0.00  0.00    +0.000 A 
ATOM     15  C   UNL     1      46.090   3.424   6.982  0.00  0.00    +0.000 A 
ATOM     16  C   UNL     1      46.983   3.159   5.937  0.00  0.00    +0.000 A 
ATOM     17  C   UNL     1      47.657   1.940   5.876  0.00  0.00    +0.000 A 
ATOM     18  C   UNL     1      47.437   0.979   6.861  0.00  0.00    +0.000 A 
ATOM     19  C   UNL     1      46.544   1.238   7.901  0.00  0.00    +0.000 A 
ENDBRANCH  12  14
ENDBRANCH   8  12
ENDBRANCH   7   8
ENDBRANCH   1   7
BRANCH   4  20
ATOM     20  C   UNL     1      48.517   6.970  14.547  0.00  0.00    +0.000 C 
BRANCH  20  21
ATOM     21  N   UNL     1      48.281   6.693  15.943  0.00  0.00    +0.000 N 
ATOM     22  C   UNL     1      49.256   6.154  16.742  0.00  0.00    +0.000 C 
ATOM     23  O   UNL     1      50.383   5.906  16.317  0.00  0.00    +0.000 OA
ATOM     24  H   UNL     1      47.315   6.682  16.254  0.00  0.00    +0.000 HD
BRANCH  22  25
ATOM     25  C   UNL     1      48.908   5.945  18.155  0.00  0.00    +0.000 A 
ATOM     26  C   UNL     1      49.132   4.706  18.740  0.00  0.00    +0.000 A 
ATOM     27  S   UNL     1      48.743   4.652  20.400  0.00  0.00    +0.000 S 
ATOM     28  C   UNL     1      48.210   6.267  20.383  0.00  0.00    +0.000 A 
ATOM     29  N   UNL     1      47.720   6.853  21.510  0.00  0.00    +0.000 NA
ATOM     30  C   UNL     1      47.321   8.068  21.348  0.00  0.00    +0.000 A 
ATOM     31  N   UNL     1      47.369   8.756  20.163  0.00  0.00    +0.000 N 
ATOM     32  C   UNL     1      47.877   8.213  19.006  0.00  0.00    +0.000 A 
ATOM     33  O   UNL     1      47.933   8.867  17.970  0.00  0.00    +0.000 OA
ATOM     34  C   UNL     1      48.336   6.844  19.132  0.00  0.00    +0.000 A 
ATOM     35  H   UNL     1      47.041   9.708  20.103  0.00  0.00    +0.000 HD
ENDBRANCH  22  25
ENDBRANCH  20  21
ENDBRANCH   4  20
TORSDOF 8
ENDMDL
MODEL 5
REMARK VINA RESULT:    -8.004      2.501      3.013
REMARK INTER + INTRA:         -12.351
REMARK INTER:                 -11.247
REMARK INTRA:                  -1.104
REMARK UNBOUND:                -0.837
REMARK  Name = 
REMARK  8 active torsions:
REMARK  status: ('A' for Active; 'I' for Inactive)
REMARK    1  A    between atoms: N_1  and  C_2
REMARK    2  A    between atoms: C_2  and  C_3
REMARK    3  A    between atoms: C_2  and  C_24
REMARK    4  A    between atoms: C_3  and  C_4
REMARK    5  A    between atoms: C_7  and  C_8
REMARK    6  A    between atoms: C_8  and  N_9
REMARK    7  A    between atoms: C_10  and  C_12
REMARK    8  A    between atoms: C_24  and  C_26
REMARK                            x       y       z     vdW  Elec       q    Type
REMARK                         _______ _______ _______ _____ _____    ______ ____
ROOT
ATOM      1  C   UNL     1      46.244   5.525  12.375  0.00  0.00    +0.000 A 
ATOM      2  C   UNL     1      46.726   6.523  11.516  0.00  0.00    +0.000 A 
ATOM      3  C   UNL     1      47.781   7.356  11.905  0.00  0.00    +0.000 A 
ATOM      4  C   UNL     1      48.387   7.201  13.158  0.00  0.00    +0.000 A 
ATOM      5  C   UNL     1      47.912   6.199  14.015  0.00  0.00    +0.000 A 
ATOM      6  C   UNL     1      46.857   5.367  13.625  0.00  0.00    +0.000 A 
ENDROOT
BRANCH   1   7
ATOM      7  C   UNL     1      45.043   4.688  11.988  0.00  0.00    +0.000 C 
BRANCH   7   8
ATOM      8  C   UNL     1      44.572   4.735  10.519  0.00  0.00    +0.000 C 
BRANCH   8   9
ATOM      9  N   UNL     1      43.279   5.428  10.344  0.00  0.00    +0.000 NA
ATOM     10  H   UNL     1      43.204   6.204  10.996  0.00  0.00    +0.000 HD
ATOM     11  H   UNL     1      42.541   4.762  10.600  0.00  0.00    +0.000 HD
ENDBRANCH   8   9
BRANCH   8  12
ATOM     12  C   UNL     1      44.482   3.330   9.894  0.00  0.00    +0.000 C 
ATOM     13  O   UNL     1      43.673   2.495  10.309  0.00  0.00    +0.000 OA
BRANCH  12  14
ATOM     14  C   UNL     1      45.403   2.939   8.776  0.00  0.00    +0.000 A 
ATOM     15  C   UNL     1      45.875   1.634   8.580  0.00  0.00    +0.000 A 
ATOM     16  C   UNL     1      46.749   1.350   7.523  0.00  0.00    +0.000 A 
ATOM     17  C   UNL     1      47.152   2.359   6.650  0.00  0.00    +0.000 A 
ATOM     18  C   UNL     1      46.686   3.659   6.833  0.00  0.00    +0.000 A 
ATOM     19  C   UNL     1      45.819   3.947   7.888  0.00  0.00    +0.000 A 
ENDBRANCH  12  14
ENDBRANCH   8  12
ENDBRANCH   7   8
ENDBRANCH   1   7
BRANCH   4  20
ATOM     20  C   UNL     1      49.484   8.134  13.607  0.00  0.00    +0.000 C 
BRANCH  20  21
ATOM     21  N   UNL     1      50.529   7.407  14.286  0.00  0.00    +0.000 N 
ATOM     22  C   UNL     1      50.684   7.477  15.646  0.00  0.00    +0.000 C 
ATOM     23  O   UNL     1      49.928   8.138  16.355  0.00  0.00    +0.000 OA
ATOM     24  H   UNL     1      51.283   7.041  13.714  0.00  0.00    +0.000 HD
BRANCH  22  25
ATOM     25  C   UNL     1      51.764   6.667  16.228  0.00  0.00    +0.000 A 
ATOM     26  C   UNL     1      53.083   7.082  16.089  0.00  0.00    +0.000 A 
ATOM     27  S   UNL     1      54.205   6.072  16.882  0.00  0.00    +0.000 S 
ATOM     28  C   UNL     1      52.975   5.015  17.394  0.00  0.00    +0.000 A 
ATOM     29  N   UNL     1      53.268   3.903  18.122  0.00  0.00    +0.000 NA
ATOM     30  C   UNL     1      52.245   3.173  18.414  0.00  0.00    +0.000 A 
ATOM     31  N   UNL     1      50.955   3.453  18.048  0.00  0.00    +0.000 N 
ATOM     32  C   UNL     1      50.609   4.576  17.334  0.00  0.00    +0.000 A 
ATOM     33  O   UNL     1      49.440   4.812  17.050  0.00  0.00    +0.000 OA
ATOM     34  C   UNL     1      51.724   5.430  16.975  0.00  0.00    +0.000 A 
ATOM     35  H   UNL     1      50.198   2.840  18.310  0.00  0.00    +0.000 HD
ENDBRANCH  22  25
ENDBRANCH  20  21
ENDBRANCH   4  20
TORSDOF 8
ENDMDL
MODEL 6
REMARK VINA RESULT:    -7.955      1.554      2.055
REMARK INTER + INTRA:         -12.281
REMARK INTER:                 -10.930
REMARK INTRA:                  -1.351
REMARK UNBOUND:                -0.837
REMARK  Name = 
REMARK  8 active torsions:
REMARK  status: ('A' for Active; 'I' for Inactive)
REMARK    1  A    between atoms: N_1  and  C_2
REMARK    2  A    between atoms: C_2  and  C_3
REMARK    3  A    between atoms: C_2  and  C_24
REMARK    4  A    between atoms: C_3  and  C_4
REMARK    5  A    between atoms: C_7  and  C_8
REMARK    6  A    between atoms: C_8  and  N_9
REMARK    7  A    between atoms: C_10  and  C_12
REMARK    8  A    between atoms: C_24  and  C_26
REMARK                            x       y       z     vdW  Elec       q    Type
REMARK                         _______ _______ _______ _____ _____    ______ ____
ROOT
ATOM      1  C   UNL     1      45.342   5.556  13.201  0.00  0.00    +0.000 A 
ATOM      2  C   UNL     1      45.686   6.840  12.755  0.00  0.00    +0.000 A 
ATOM      3  C   UNL     1      46.948   7.379  13.025  0.00  0.00    +0.000 A 
ATOM      4  C   UNL     1      47.901   6.642  13.739  0.00  0.00    +0.000 A 
ATOM      5  C   UNL     1      47.562   5.355  14.178  0.00  0.00    +0.000 A 
ATOM      6  C   UNL     1      46.300   4.816  13.907  0.00  0.00    +0.000 A 
ENDROOT
BRANCH   1   7
ATOM      7  C   UNL     1      43.945   5.012  12.987  0.00  0.00    +0.000 C 
BRANCH   7   8
ATOM      8  C   UNL     1      43.411   4.941  11.541  0.00  0.00    +0.000 C 
BRANCH   8   9
ATOM      9  N   UNL     1      41.990   5.332  11.425  0.00  0.00    +0.000 NA
ATOM     10  H   UNL     1      41.525   5.240  12.324  0.00  0.00    +0.000 HD
ATOM     11  H   UNL     1      41.541   4.657  10.796  0.00  0.00    +0.000 HD
ENDBRANCH   8   9
BRANCH   8  12
ATOM     12  C   UNL     1      43.604   3.545  10.919  0.00  0.00    +0.000 C 
ATOM     13  O   UNL     1      43.007   2.559  11.360  0.00  0.00    +0.000 OA
BRANCH  12  14
ATOM     14  C   UNL     1      44.550   3.353   9.770  0.00  0.00    +0.000 A 
ATOM     15  C   UNL     1      44.965   2.096   9.309  0.00  0.00    +0.000 A 
ATOM     16  C   UNL     1      45.866   1.998   8.241  0.00  0.00    +0.000 A 
ATOM     17  C   UNL     1      46.354   3.148   7.621  0.00  0.00    +0.000 A 
ATOM     18  C   UNL     1      45.945   4.402   8.069  0.00  0.00    +0.000 A 
ATOM     19  C   UNL     1      45.051   4.504   9.136  0.00  0.00    +0.000 A 
ENDBRANCH  12  14
ENDBRANCH   8  12
ENDBRANCH   7   8
ENDBRANCH   1   7
BRANCH   4  20
ATOM     20  C   UNL     1      49.241   7.239  14.086  0.00  0.00    +0.000 C 
BRANCH  20  21
ATOM     21  N   UNL     1      49.591   6.954  15.456  0.00  0.00    +0.000 N 
ATOM     22  C   UNL     1      49.256   7.808  16.474  0.00  0.00    +0.000 C 
ATOM     23  O   UNL     1      48.621   8.842  16.276  0.00  0.00    +0.000 OA
ATOM     24  H   UNL     1      50.291   6.236  15.613  0.00  0.00    +0.000 HD
BRANCH  22  25
ATOM     25  C   UNL     1      49.639   7.395  17.832  0.00  0.00    +0.000 A 
ATOM     26  C   UNL     1      50.601   8.119  18.524  0.00  0.00    +0.000 A 
ATOM     27  S   UNL     1      50.875   7.553  20.109  0.00  0.00    +0.000 S 
ATOM     28  C   UNL     1      49.757   6.287  19.909  0.00  0.00    +0.000 A 
ATOM     29  N   UNL     1      49.523   5.397  20.912  0.00  0.00    +0.000 NA
ATOM     30  C   UNL     1      48.678   4.469  20.614  0.00  0.00    +0.000 A 
ATOM     31  N   UNL     1      48.042   4.350  19.407  0.00  0.00    +0.000 N 
ATOM     32  C   UNL     1      48.228   5.238  18.374  0.00  0.00    +0.000 A 
ATOM     33  O   UNL     1      47.619   5.119  17.316  0.00  0.00    +0.000 OA
ATOM     34  C   UNL     1      49.175   6.300  18.655  0.00  0.00    +0.000 A 
ATOM     35  H   UNL     1      47.389   3.600  19.237  0.00  0.00    +0.000 HD
ENDBRANCH  22  25
ENDBRANCH  20  21
ENDBRANCH   4  20
TORSDOF 8
ENDMDL
MODEL 7
REMARK VINA RESULT:    -7.894      1.543      2.007
REMARK INTER + INTRA:         -12.192
REMARK INTER:                 -10.937
REMARK INTRA:                  -1.255
REMARK UNBOUND:                -0.837
REMARK  Name = 
REMARK  8 active torsions:
REMARK  status: ('A' for Active; 'I' for Inactive)
REMARK    1  A    between atoms: N_1  and  C_2
REMARK    2  A    between atoms: C_2  and  C_3
REMARK    3  A    between atoms: C_2  and  C_24
REMARK    4  A    between atoms: C_3  and  C_4
REMARK    5  A    between atoms: C_7  and  C_8
REMARK    6  A    between atoms: C_8  and  N_9
REMARK    7  A    between atoms: C_10  and  C_12
REMARK    8  A    between atoms: C_24  and  C_26
REMARK                            x       y       z     vdW  Elec       q    Type
REMARK                         _______ _______ _______ _____ _____    ______ ____
ROOT
ATOM      1  C   UNL     1      45.931   4.944  12.224  0.00  0.00    +0.000 A 
ATOM      2  C   UNL     1      45.612   6.117  11.526  0.00  0.00    +0.000 A 
ATOM      3  C   UNL     1      46.128   7.354  11.926  0.00  0.00    +0.000 A 
ATOM      4  C   UNL     1      46.987   7.445  13.029  0.00  0.00    +0.000 A 
ATOM      5  C   UNL     1      47.313   6.273  13.724  0.00  0.00    +0.000 A 
ATOM      6  C   UNL     1      46.797   5.037  13.323  0.00  0.00    +0.000 A 
ENDROOT
BRANCH   1   7
ATOM      7  C   UNL     1      45.298   3.622  11.845  0.00  0.00    +0.000 C 
BRANCH   7   8
ATOM      8  C   UNL     1      44.195   3.633  10.766  0.00  0.00    +0.000 C 
BRANCH   8   9
ATOM      9  N   UNL     1      42.828   3.597  11.330  0.00  0.00    +0.000 NA
ATOM     10  H   UNL     1      42.865   3.633  12.345  0.00  0.00    +0.000 HD
ATOM     11  H   UNL     1      42.425   2.684  11.088  0.00  0.00    +0.000 HD
ENDBRANCH   8   9
BRANCH   8  12
ATOM     12  C   UNL     1      44.356   2.480   9.758  0.00  0.00    +0.000 C 
ATOM     13  O   UNL     1      43.637   1.478   9.810  0.00  0.00    +0.000 OA
BRANCH  12  14
ATOM     14  C   UNL     1      45.420   2.542   8.701  0.00  0.00    +0.000 A 
ATOM     15  C   UNL     1      46.151   1.427   8.269  0.00  0.00    +0.000 A 
ATOM     16  C   UNL     1      47.142   1.568   7.290  0.00  0.00    +0.000 A 
ATOM     17  C   UNL     1      47.407   2.817   6.728  0.00  0.00    +0.000 A 
ATOM     18  C   UNL     1      46.683   3.931   7.148  0.00  0.00    +0.000 A 
ATOM     19  C   UNL     1      45.698   3.795   8.127  0.00  0.00    +0.000 A 
ENDBRANCH  12  14
ENDBRANCH   8  12
ENDBRANCH   7   8
ENDBRANCH   1   7
BRANCH   4  20
ATOM     20  C   UNL     1      47.498   8.782  13.503  0.00  0.00    +0.000 C 
BRANCH  20  21
ATOM     21  N   UNL     1      47.332   8.919  14.929  0.00  0.00    +0.000 N 
ATOM     22  C   UNL     1      48.408   8.959  15.776  0.00  0.00    +0.000 C 
ATOM     23  O   UNL     1      49.565   8.907  15.363  0.00  0.00    +0.000 OA
ATOM     24  H   UNL     1      46.404   8.744  15.304  0.00  0.00    +0.000 HD
BRANCH  22  25
ATOM     25  C   UNL     1      48.114   9.133  17.206  0.00  0.00    +0.000 A 
ATOM     26  C   UNL     1      47.871  10.406  17.707  0.00  0.00    +0.000 A 
ATOM     27  S   UNL     1      47.475  10.425  19.366  0.00  0.00    +0.000 S 
ATOM     28  C   UNL     1      47.667   8.739  19.487  0.00  0.00    +0.000 A 
ATOM     29  N   UNL     1      47.487   8.099  20.675  0.00  0.00    +0.000 NA
ATOM     30  C   UNL     1      47.697   6.827  20.631  0.00  0.00    +0.000 A 
ATOM     31  N   UNL     1      48.068   6.134  19.509  0.00  0.00    +0.000 N 
ATOM     32  C   UNL     1      48.237   6.734  18.284  0.00  0.00    +0.000 A 
ATOM     33  O   UNL     1      48.540   6.078  17.292  0.00  0.00    +0.000 OA
ATOM     34  C   UNL     1      48.018   8.167  18.278  0.00  0.00    +0.000 A 
ATOM     35  H   UNL     1      48.215   5.136  19.542  0.00  0.00    +0.000 HD
ENDBRANCH  22  25
ENDBRANCH  20  21
ENDBRANCH   4  20
TORSDOF 8
ENDMDL
MODEL 8
REMARK VINA RESULT:    -7.600      2.954      4.009
REMARK INTER + INTRA:         -11.770
REMARK INTER:                 -10.190
REMARK INTRA:                  -1.580
REMARK UNBOUND:                -0.837
REMARK  Name = 
REMARK  8 active torsions:
REMARK  status: ('A' for Active; 'I' for Inactive)
REMARK    1  A    between atoms: N_1  and  C_2
REMARK    2  A    between atoms: C_2  and  C_3
REMARK    3  A    between atoms: C_2  and  C_24
REMARK    4  A    between atoms: C_3  and  C_4
REMARK    5  A    between atoms: C_7  and  C_8
REMARK    6  A    between atoms: C_8  and  N_9
REMARK    7  A    between atoms: C_10  and  C_12
REMARK    8  A    between atoms: C_24  and  C_26
REMARK                            x       y       z     vdW  Elec       q    Type
REMARK                         _______ _______ _______ _____ _____    ______ ____
ROOT
ATOM      1  C   UNL     1      45.518   6.768  12.370  0.00  0.00    +0.000 A 
ATOM      2  C   UNL     1      45.410   8.153  12.554  0.00  0.00    +0.000 A 
ATOM      3  C   UNL     1      46.531   8.983  12.440  0.00  0.00    +0.000 A 
ATOM      4  C   UNL     1      47.786   8.446  12.129  0.00  0.00    +0.000 A 
ATOM      5  C   UNL     1      47.896   7.062  11.937  0.00  0.00    +0.000 A 
ATOM      6  C   UNL     1      46.774   6.234  12.050  0.00  0.00    +0.000 A 
ENDROOT
BRANCH   1   7
ATOM      7  C   UNL     1      44.322   5.864  12.585  0.00  0.00    +0.000 C 
BRANCH   7   8
ATOM      8  C   UNL     1      43.434   5.541  11.366  0.00  0.00    +0.000 C 
BRANCH   8   9
ATOM      9  N   UNL     1      42.007   5.859  11.584  0.00  0.00    +0.000 NA
ATOM     10  H   UNL     1      41.431   5.387  10.893  0.00  0.00    +0.000 HD
ATOM     11  H   UNL     1      41.893   6.866  11.418  0.00  0.00    +0.000 HD
ENDBRANCH   8   9
BRANCH   8  12
ATOM     12  C   UNL     1      43.561   4.069  10.929  0.00  0.00    +0.000 C 
ATOM     13  O   UNL     1      42.910   3.178  11.481  0.00  0.00    +0.000 OA
BRANCH  12  14
ATOM     14  C   UNL     1      44.510   3.686   9.830  0.00  0.00    +0.000 A 
ATOM     15  C   UNL     1      45.190   4.617   9.034  0.00  0.00    +0.000 A 
ATOM     16  C   UNL     1      46.046   4.182   8.014  0.00  0.00    +0.000 A 
ATOM     17  C   UNL     1      46.237   2.819   7.786  0.00  0.00    +0.000 A 
ATOM     18  C   UNL     1      45.569   1.886   8.575  0.00  0.00    +0.000 A 
ATOM     19  C   UNL     1      44.711   2.316   9.589  0.00  0.00    +0.000 A 
ENDBRANCH  12  14
ENDBRANCH   8  12
ENDBRANCH   7   8
ENDBRANCH   1   7
BRANCH   4  20
ATOM     20  C   UNL     1      49.010   9.325  12.064  0.00  0.00    +0.000 C 
BRANCH  20  21
ATOM     21  N   UNL     1      49.878   9.078  13.189  0.00  0.00    +0.000 N 
ATOM     22  C   UNL     1      51.130   8.545  13.025  0.00  0.00    +0.000 C 
ATOM     23  O   UNL     1      51.584   8.276  11.914  0.00  0.00    +0.000 OA
ATOM     24  H   UNL     1      49.452   9.084  14.111  0.00  0.00    +0.000 HD
BRANCH  22  25
ATOM     25  C   UNL     1      51.935   8.368  14.242  0.00  0.00    +0.000 A 
ATOM     26  C   UNL     1      53.189   8.959  14.327  0.00  0.00    +0.000 A 
ATOM     27  S   UNL     1      53.959   8.718  15.830  0.00  0.00    +0.000 S 
ATOM     28  C   UNL     1      52.668   7.770  16.402  0.00  0.00    +0.000 A 
ATOM     29  N   UNL     1      52.701   7.223  17.648  0.00  0.00    +0.000 NA
ATOM     30  C   UNL     1      51.673   6.502  17.940  0.00  0.00    +0.000 A 
ATOM     31  N   UNL     1      50.611   6.278  17.103  0.00  0.00    +0.000 N 
ATOM     32  C   UNL     1      50.523   6.829  15.846  0.00  0.00    +0.000 A 
ATOM     33  O   UNL     1      49.544   6.633  15.134  0.00  0.00    +0.000 OA
ATOM     34  C   UNL     1      51.658   7.647  15.465  0.00  0.00    +0.000 A 
ATOM     35  H   UNL     1      49.835   5.703  17.393  0.00  0.00    +0.000 HD
ENDBRANCH  22  25
ENDBRANCH  20  21
ENDBRANCH   4  20
TORSDOF 8
ENDMDL
MODEL 9
REMARK VINA RESULT:    -7.515      3.088      9.337
REMARK INTER + INTRA:         -11.648
REMARK INTER:                  -9.554
REMARK INTRA:                  -2.094
REMARK UNBOUND:                -0.837
REMARK  Name = 
REMARK  8 active torsions:
REMARK  status: ('A' for Active; 'I' for Inactive)
REMARK    1  A    between atoms: N_1  and  C_2
REMARK    2  A    between atoms: C_2  and  C_3
REMARK    3  A    between atoms: C_2  and  C_24
REMARK    4  A    between atoms: C_3  and  C_4
REMARK    5  A    between atoms: C_7  and  C_8
REMARK    6  A    between atoms: C_8  and  N_9
REMARK    7  A    between atoms: C_10  and  C_12
REMARK    8  A    between atoms: C_24  and  C_26
REMARK                            x       y       z     vdW  Elec       q    Type
REMARK                         _______ _______ _______ _____ _____    ______ ____
ROOT
ATOM      1  C   UNL     1      49.169   7.878  16.443  0.00  0.00    +0.000 A 
ATOM      2  C   UNL     1      49.619   6.901  15.543  0.00  0.00    +0.000 A 
ATOM      3  C   UNL     1      49.190   6.898  14.212  0.00  0.00    +0.000 A 
ATOM      4  C   UNL     1      48.309   7.882  13.745  0.00  0.00    +0.000 A 
ATOM      5  C   UNL     1      47.864   8.864  14.640  0.00  0.00    +0.000 A 
ATOM      6  C   UNL     1      48.294   8.866  15.971  0.00  0.00    +0.000 A 
ENDROOT
BRANCH   1   7
ATOM      7  C   UNL     1      49.563   7.823  17.903  0.00  0.00    +0.000 C 
BRANCH   7   8
ATOM      8  C   UNL     1      48.457   7.526  18.938  0.00  0.00    +0.000 C 
BRANCH   8   9
ATOM      9  N   UNL     1      48.456   8.470  20.076  0.00  0.00    +0.000 NA
ATOM     10  H   UNL     1      47.554   8.456  20.545  0.00  0.00    +0.000 HD
ATOM     11  H   UNL     1      48.565   9.414  19.687  0.00  0.00    +0.000 HD
ENDBRANCH   8   9
BRANCH   8  12
ATOM     12  C   UNL     1      48.538   6.085  19.478  0.00  0.00    +0.000 C 
ATOM     13  O   UNL     1      48.640   5.858  20.686  0.00  0.00    +0.000 OA
BRANCH  12  14
ATOM     14  C   UNL     1      48.522   4.921  18.530  0.00  0.00    +0.000 A 
ATOM     15  C   UNL     1      49.604   4.047  18.357  0.00  0.00    +0.000 A 
ATOM     16  C   UNL     1      49.520   2.993  17.439  0.00  0.00    +0.000 A 
ATOM     17  C   UNL     1      48.358   2.796  16.694  0.00  0.00    +0.000 A 
ATOM     18  C   UNL     1      47.275   3.657  16.862  0.00  0.00    +0.000 A 
ATOM     19  C   UNL     1      47.357   4.712  17.772  0.00  0.00    +0.000 A 
ENDBRANCH  12  14
ENDBRANCH   8  12
ENDBRANCH   7   8
ENDBRANCH   1   7
BRANCH   4  20
ATOM     20  C   UNL     1      47.795   7.850  12.328  0.00  0.00    +0.000 C 
BRANCH  20  21
ATOM     21  N   UNL     1      47.067   6.631  12.073  0.00  0.00    +0.000 N 
ATOM     22  C   UNL     1      45.703   6.572  12.187  0.00  0.00    +0.000 C 
ATOM     23  O   UNL     1      45.031   7.558  12.486  0.00  0.00    +0.000 OA
ATOM     24  H   UNL     1      47.606   5.771  12.043  0.00  0.00    +0.000 HD
BRANCH  22  25
ATOM     25  C   UNL     1      45.071   5.283  11.872  0.00  0.00    +0.000 A 
ATOM     26  C   UNL     1      44.393   4.590  12.866  0.00  0.00    +0.000 A 
ATOM     27  S   UNL     1      43.657   3.152  12.319  0.00  0.00    +0.000 S 
ATOM     28  C   UNL     1      44.263   3.376  10.745  0.00  0.00    +0.000 A 
ATOM     29  N   UNL     1      44.008   2.470   9.762  0.00  0.00    +0.000 NA
ATOM     30  C   UNL     1      44.555   2.746   8.628  0.00  0.00    +0.000 A 
ATOM     31  N   UNL     1      45.333   3.848   8.382  0.00  0.00    +0.000 N 
ATOM     32  C   UNL     1      45.597   4.802   9.337  0.00  0.00    +0.000 A 
ATOM     33  O   UNL     1      46.271   5.792   9.075  0.00  0.00    +0.000 OA
ATOM     34  C   UNL     1      45.008   4.536  10.635  0.00  0.00    +0.000 A 
ATOM     35  H   UNL     1      45.731   4.008   7.470  0.00  0.00    +0.000 HD
ENDBRANCH  22  25
ENDBRANCH  20  21
ENDBRANCH   4  20
TORSDOF 8
ENDMDL
