MODEL 1
REMARK VINA RESULT:    -7.943      0.000      0.000
REMARK INTER + INTRA:          -9.838
REMARK INTER:                  -9.336
REMARK INTRA:                  -0.502
REMARK UNBOUND:                -0.502
REMARK  Name = 
REMARK  4 active torsions:
REMARK  status: ('A' for Active; 'I' for Inactive)
REMARK    1  A    between atoms: C_1  and  C_2
REMARK    2  A    between atoms: C_6  and  C_7
REMARK    3  A    between atoms: C_7  and  N_8
REMARK    4  A    between atoms: C_9  and  C_11
REMARK                            x       y       z     vdW  Elec       q    Type
REMARK                         _______ _______ _______ _____ _____    ______ ____
ROOT
ATOM      1  N   UNL     1      45.541   4.818   9.642  0.00  0.00    +0.000 N 
ATOM      2  C   UNL     1      44.909   5.293  10.763  0.00  0.00    +0.000 C 
ATOM      3  O   UNL     1      43.694   5.205  10.916  0.00  0.00    +0.000 OA
ATOM      4  H   UNL     1      46.502   5.085   9.455  0.00  0.00    +0.000 HD
ENDROOT
BRANCH   2   5
ATOM      5  C   UNL     1      45.771   5.853  11.811  0.00  0.00    +0.000 A 
ATOM      6  C   UNL     1      46.128   7.194  11.758  0.00  0.00    +0.000 A 
ATOM      7  S   UNL     1      47.092   7.699  13.069  0.00  0.00    +0.000 S 
ATOM      8  C   UNL     1      47.110   6.131  13.729  0.00  0.00    +0.000 A 
ATOM      9  N   UNL     1      47.797   5.861  14.871  0.00  0.00    +0.000 NA
ATOM     10  C   UNL     1      47.755   4.625  15.240  0.00  0.00    +0.000 A 
ATOM     11  N   UNL     1      47.081   3.635  14.574  0.00  0.00    +0.000 N 
ATOM     12  C   UNL     1      46.346   3.866  13.436  0.00  0.00    +0.000 A 
ATOM     13  O   UNL     1      45.711   2.967  12.893  0.00  0.00    +0.000 OA
ATOM     14  C   UNL     1      46.374   5.239  12.970  0.00  0.00    +0.000 A 
ATOM     15  H   UNL     1      47.083   2.686  14.921  0.00  0.00    +0.000 HD
ENDBRANCH   2   5
BRANCH   1  16
ATOM     16  C   UNL     1      44.812   4.231   8.544  0.00  0.00    +0.000 C 
BRANCH  16  22
ATOM     17  C   UNL     1      47.697   2.383   4.849  0.00  0.00    +0.000 C 
ATOM     18  C   UNL     1      46.985   2.185   6.155  0.00  0.00    +0.000 A 
ATOM     19  C   UNL     1      47.060   0.966   6.837  0.00  0.00    +0.000 A 
ATOM     20  C   UNL     1      46.399   0.799   8.054  0.00  0.00    +0.000 A 
ATOM     21  C   UNL     1      45.660   1.847   8.603  0.00  0.00    +0.000 A 
ATOM     22  C   UNL     1      45.575   3.079   7.940  0.00  0.00    +0.000 A 
ATOM     23  C   UNL     1      46.242   3.235   6.714  0.00  0.00    +0.000 A 
ENDBRANCH  16  22
ENDBRANCH   1  16
TORSDOF 3
ENDMDL
MODEL 2
REMARK VINA RESULT:    -7.576      4.275      7.517
REMARK INTER + INTRA:          -9.407
REMARK INTER:                  -8.878
REMARK INTRA:                  -0.529
REMARK UNBOUND:                -0.502
REMARK  Name = 
REMARK  4 active torsions:
REMARK  status: ('A' for Active; 'I' for Inactive)
REMARK    1  A    between atoms: C_1  and  C_2
REMARK    2  A    between atoms: C_6  and  C_7
REMARK    3  A    between atoms: C_7  and  N_8
REMARK    4  A    between atoms: C_9  and  C_11
REMARK                            x       y       z     vdW  Elec       q    Type
REMARK                         _______ _______ _______ _____ _____    ______ ____
ROOT
ATOM      1  N   UNL     1      46.895   4.418  15.876  0.00  0.00    +0.000 N 
ATOM      2  C   UNL     1      46.950   4.177  14.526  0.00  0.00    +0.000 C 
ATOM      3  O   UNL     1      47.307   3.096  14.068  0.00  0.00    +0.000 OA
ATOM      4  H   UNL     1      46.797   5.370  16.213  0.00  0.00    +0.000 HD
ENDROOT
BRANCH   2   5
ATOM      5  C   UNL     1      46.491   5.261  13.650  0.00  0.00    +0.000 A 
ATOM      6  C   UNL     1      47.304   6.370  13.451  0.00  0.00    +0.000 A 
ATOM      7  S   UNL     1      46.649   7.516  12.374  0.00  0.00    +0.000 S 
ATOM      8  C   UNL     1      45.231   6.597  12.174  0.00  0.00    +0.000 A 
ATOM      9  N   UNL     1      44.221   7.036  11.377  0.00  0.00    +0.000 NA
ATOM     10  C   UNL     1      43.191   6.258  11.344  0.00  0.00    +0.000 A 
ATOM     11  N   UNL     1      43.084   5.076  12.030  0.00  0.00    +0.000 N 
ATOM     12  C   UNL     1      44.091   4.576  12.819  0.00  0.00    +0.000 A 
ATOM     13  O   UNL     1      43.984   3.489  13.379  0.00  0.00    +0.000 OA
ATOM     14  C   UNL     1      45.266   5.422  12.903  0.00  0.00    +0.000 A 
ATOM     15  H   UNL     1      42.251   4.509  11.954  0.00  0.00    +0.000 HD
ENDBRANCH   2   5
BRANCH   1  16
ATOM     16  C   UNL     1      47.305   3.431  16.845  0.00  0.00    +0.000 C 
BRANCH  16  22
ATOM     17  C   UNL     1      51.801   1.238  17.453  0.00  0.00    +0.000 C 
ATOM     18  C   UNL     1      50.963   2.482  17.427  0.00  0.00    +0.000 A 
ATOM     19  C   UNL     1      51.538   3.741  17.627  0.00  0.00    +0.000 A 
ATOM     20  C   UNL     1      50.747   4.890  17.593  0.00  0.00    +0.000 A 
ATOM     21  C   UNL     1      49.376   4.793  17.354  0.00  0.00    +0.000 A 
ATOM     22  C   UNL     1      48.779   3.543  17.145  0.00  0.00    +0.000 A 
ATOM     23  C   UNL     1      49.584   2.393  17.184  0.00  0.00    +0.000 A 
ENDBRANCH  16  22
ENDBRANCH   1  16
TORSDOF 3
ENDMDL
MODEL 3
REMARK VINA RESULT:    -7.269      3.522      7.407
REMARK INTER + INTRA:          -9.046
REMARK INTER:                  -8.419
REMARK INTRA:                  -0.628
REMARK UNBOUND:                -0.502
REMARK  Name = 
REMARK  4 active torsions:
REMARK  status: ('A' for Active; 'I' for Inactive)
REMARK    1  A    between atoms: C_1  and  C_2
REMARK    2  A    between atoms: C_6  and  C_7
REMARK    3  A    between atoms: C_7  and  N_8
REMARK    4  A    between atoms: C_9  and  C_11
REMARK                            x       y       z     vdW  Elec       q    Type
REMARK                         _______ _______ _______ _____ _____    ______ ____
ROOT
ATOM      1  N   UNL     1      47.737   5.827  15.788  0.00  0.00    +0.000 N 
ATOM      2  C   UNL     1      48.092   6.233  14.527  0.00  0.00    +0.000 C 
ATOM      3  O   UNL     1      49.237   6.573  14.246  0.00  0.00    +0.000 OA
ATOM      4  H   UNL     1      46.756   5.752  16.035  0.00  0.00    +0.000 HD
ENDROOT
BRANCH   2   5
ATOM      5  C   UNL     1      47.042   6.175  13.503  0.00  0.00    +0.000 A 
ATOM      6  C   UNL     1      46.579   7.352  12.930  0.00  0.00    +0.000 A 
ATOM      7  S   UNL     1      45.395   7.112  11.729  0.00  0.00    +0.000 S 
ATOM      8  C   UNL     1      45.421   5.427  11.966  0.00  0.00    +0.000 A 
ATOM      9  N   UNL     1      44.603   4.609  11.251  0.00  0.00    +0.000 NA
ATOM     10  C   UNL     1      44.699   3.359  11.556  0.00  0.00    +0.000 A 
ATOM     11  N   UNL     1      45.547   2.851  12.507  0.00  0.00    +0.000 N 
ATOM     12  C   UNL     1      46.416   3.634  13.228  0.00  0.00    +0.000 A 
ATOM     13  O   UNL     1      47.199   3.142  14.035  0.00  0.00    +0.000 OA
ATOM     14  C   UNL     1      46.335   5.052  12.934  0.00  0.00    +0.000 A 
ATOM     15  H   UNL     1      45.579   1.859  12.692  0.00  0.00    +0.000 HD
ENDBRANCH   2   5
BRANCH   1  16
ATOM     16  C   UNL     1      48.678   5.823  16.882  0.00  0.00    +0.000 C 
BRANCH  16  22
ATOM     17  C   UNL     1      52.750   3.072  17.999  0.00  0.00    +0.000 C 
ATOM     18  C   UNL     1      51.312   3.140  17.577  0.00  0.00    +0.000 A 
ATOM     19  C   UNL     1      50.570   1.974  17.362  0.00  0.00    +0.000 A 
ATOM     20  C   UNL     1      49.232   2.052  16.977  0.00  0.00    +0.000 A 
ATOM     21  C   UNL     1      48.620   3.295  16.807  0.00  0.00    +0.000 A 
ATOM     22  C   UNL     1      49.341   4.476  17.023  0.00  0.00    +0.000 A 
ATOM     23  C   UNL     1      50.689   4.385  17.408  0.00  0.00    +0.000 A 
ENDBRANCH  16  22
ENDBRANCH   1  16
TORSDOF 3
ENDMDL
MODEL 4
REMARK VINA RESULT:    -7.193      2.467      4.000
REMARK INTER + INTRA:          -8.957
REMARK INTER:                  -8.527
REMARK INTRA:                  -0.430
REMARK UNBOUND:                -0.502
REMARK  Name = 
REMARK  4 active torsions:
REMARK  status: ('A' for Active; 'I' for Inactive)
REMARK    1  A    between atoms: C_1  and  C_2
REMARK    2  A    between atoms: C_6  and  C_7
REMARK    3  A    between atoms: C_7  and  N_8
REMARK    4  A    between atoms: C_9  and  C_11
REMARK                            x       y       z     vdW  Elec       q    Type
REMARK                         _______ _______ _______ _____ _____    ______ ____
ROOT
ATOM      1  N   UNL     1      45.366   5.165  13.659  0.00  0.00    +0.000 N 
ATOM      2  C   UNL     1      46.436   4.436  14.111  0.00  0.00    +0.000 C 
ATOM      3  O   UNL     1      46.606   3.260  13.800  0.00  0.00    +0.000 OA
ATOM      4  H   UNL     1      45.145   6.055  14.091  0.00  0.00    +0.000 HD
ENDROOT
BRANCH   2   5
ATOM      5  C   UNL     1      47.414   5.154  14.936  0.00  0.00    +0.000 A 
ATOM      6  C   UNL     1      48.144   6.197  14.379  0.00  0.00    +0.000 A 
ATOM      7  S   UNL     1      49.202   6.957  15.477  0.00  0.00    +0.000 S 
ATOM      8  C   UNL     1      48.761   5.887  16.724  0.00  0.00    +0.000 A 
ATOM      9  N   UNL     1      49.332   5.976  17.955  0.00  0.00    +0.000 NA
ATOM     10  C   UNL     1      48.933   5.081  18.795  0.00  0.00    +0.000 A 
ATOM     11  N   UNL     1      48.007   4.109  18.518  0.00  0.00    +0.000 N 
ATOM     12  C   UNL     1      47.378   4.001  17.300  0.00  0.00    +0.000 A 
ATOM     13  O   UNL     1      46.516   3.151  17.100  0.00  0.00    +0.000 OA
ATOM     14  C   UNL     1      47.805   4.975  16.315  0.00  0.00    +0.000 A 
ATOM     15  H   UNL     1      47.732   3.442  19.224  0.00  0.00    +0.000 HD
ENDBRANCH   2   5
BRANCH   1  16
ATOM     16  C   UNL     1      44.340   4.581  12.829  0.00  0.00    +0.000 C 
BRANCH  16  22
ATOM     17  C   UNL     1      44.979   1.736   8.719  0.00  0.00    +0.000 C 
ATOM     18  C   UNL     1      45.109   3.064   9.405  0.00  0.00    +0.000 A 
ATOM     19  C   UNL     1      45.613   4.178   8.725  0.00  0.00    +0.000 A 
ATOM     20  C   UNL     1      45.722   5.408   9.373  0.00  0.00    +0.000 A 
ATOM     21  C   UNL     1      45.324   5.540  10.704  0.00  0.00    +0.000 A 
ATOM     22  C   UNL     1      44.810   4.439  11.403  0.00  0.00    +0.000 A 
ATOM     23  C   UNL     1      44.709   3.205  10.741  0.00  0.00    +0.000 A 
ENDBRANCH  16  22
ENDBRANCH   1  16
TORSDOF 3
ENDMDL
MODEL 5
REMARK VINA RESULT:    -7.108      3.839      7.335
REMARK INTER + INTRA:          -8.857
REMARK INTER:                  -8.203
REMARK INTRA:                  -0.654
REMARK UNBOUND:                -0.502
REMARK  Name = 
REMARK  4 active torsions:
REMARK  status: ('A' for Active; 'I' for Inactive)
REMARK    1  A    between atoms: C_1  and  C_2
REMARK    2  A    between atoms: C_6  and  C_7
REMARK    3  A    between atoms: C_7  and  N_8
REMARK    4  A    between atoms: C_9  and  C_11
REMARK                            x       y       z     vdW  Elec       q    Type
REMARK                         _______ _______ _______ _____ _____    ______ ____
ROOT
ATOM      1  N   UNL     1      47.719   6.845  14.771  0.00  0.00    +0.000 N 
ATOM      2  C   UNL     1      47.792   6.407  13.474  0.00  0.00    +0.000 C 
ATOM      3  O   UNL     1      48.860   6.126  12.937  0.00  0.00    +0.000 OA
ATOM      4  H   UNL     1      46.859   7.259  15.115  0.00  0.00    +0.000 HD
ENDROOT
BRANCH   2   5
ATOM      5  C   UNL     1      46.516   6.223  12.774  0.00  0.00    +0.000 A 
ATOM      6  C   UNL     1      45.879   7.322  12.213  0.00  0.00    +0.000 A 
ATOM      7  S   UNL     1      44.433   6.935  11.398  0.00  0.00    +0.000 S 
ATOM      8  C   UNL     1      44.580   5.290  11.809  0.00  0.00    +0.000 A 
ATOM      9  N   UNL     1      43.634   4.389  11.431  0.00  0.00    +0.000 NA
ATOM     10  C   UNL     1      43.851   3.184  11.840  0.00  0.00    +0.000 A 
ATOM     11  N   UNL     1      44.934   2.797  12.586  0.00  0.00    +0.000 N 
ATOM     12  C   UNL     1      45.932   3.664  12.962  0.00  0.00    +0.000 A 
ATOM     13  O   UNL     1      46.914   3.276  13.586  0.00  0.00    +0.000 OA
ATOM     14  C   UNL     1      45.726   5.037  12.540  0.00  0.00    +0.000 A 
ATOM     15  H   UNL     1      45.049   1.834  12.868  0.00  0.00    +0.000 HD
ENDBRANCH   2   5
BRANCH   1  16
ATOM     16  C   UNL     1      48.899   7.054  15.575  0.00  0.00    +0.000 C 
BRANCH  16  22
ATOM     17  C   UNL     1      47.309   2.786  17.732  0.00  0.00    +0.000 C 
ATOM     18  C   UNL     1      48.400   3.791  17.504  0.00  0.00    +0.000 A 
ATOM     19  C   UNL     1      49.668   3.616  18.068  0.00  0.00    +0.000 A 
ATOM     20  C   UNL     1      50.674   4.555  17.842  0.00  0.00    +0.000 A 
ATOM     21  C   UNL     1      50.426   5.675  17.048  0.00  0.00    +0.000 A 
ATOM     22  C   UNL     1      49.166   5.868  16.468  0.00  0.00    +0.000 A 
ATOM     23  C   UNL     1      48.159   4.918  16.705  0.00  0.00    +0.000 A 
ENDBRANCH  16  22
ENDBRANCH   1  16
TORSDOF 3
ENDMDL
MODEL 6
REMARK VINA RESULT:    -6.926      4.640      7.660
REMARK INTER + INTRA:          -8.643
REMARK INTER:                  -7.884
REMARK INTRA:                  -0.760
REMARK UNBOUND:                -0.502
REMARK  Name = 
REMARK  4 active torsions:
REMARK  status: ('A' for Active; 'I' for Inactive)
REMARK    1  A    between atoms: C_1  and  C_2
REMARK    2  A    between atoms: C_6  and  C_7
REMARK    3  A    between atoms: C_7  and  N_8
REMARK    4  A    between atoms: C_9  and  C_11
REMARK                            x       y       z     vdW  Elec       q    Type
REMARK                         _______ _______ _______ _____ _____    ______ ____
ROOT
ATOM      1  N   UNL     1      47.057   4.554  15.981  0.00  0.00    +0.000 N 
ATOM      2  C   UNL     1      47.028   4.248  14.644  0.00  0.00    +0.000 C 
ATOM      3  O   UNL     1      47.259   3.116  14.227  0.00  0.00    +0.000 OA
ATOM      4  H   UNL     1      47.065   5.526  16.274  0.00  0.00    +0.000 HD
ENDROOT
BRANCH   2   5
ATOM      5  C   UNL     1      46.638   5.330  13.734  0.00  0.00    +0.000 A 
ATOM      6  C   UNL     1      45.431   5.247  13.051  0.00  0.00    +0.000 A 
ATOM      7  S   UNL     1      45.104   6.602  12.070  0.00  0.00    +0.000 S 
ATOM      8  C   UNL     1      46.587   7.326  12.484  0.00  0.00    +0.000 A 
ATOM      9  N   UNL     1      46.949   8.525  11.955  0.00  0.00    +0.000 NA
ATOM     10  C   UNL     1      48.113   8.942  12.326  0.00  0.00    +0.000 A 
ATOM     11  N   UNL     1      48.945   8.271  13.185  0.00  0.00    +0.000 N 
ATOM     12  C   UNL     1      48.606   7.075  13.771  0.00  0.00    +0.000 A 
ATOM     13  O   UNL     1      49.351   6.525  14.576  0.00  0.00    +0.000 OA
ATOM     14  C   UNL     1      47.312   6.555  13.373  0.00  0.00    +0.000 A 
ATOM     15  H   UNL     1      49.842   8.657  13.441  0.00  0.00    +0.000 HD
ENDBRANCH   2   5
BRANCH   1  16
ATOM     16  C   UNL     1      47.412   3.577  16.982  0.00  0.00    +0.000 C 
BRANCH  16  22
ATOM     17  C   UNL     1      51.813   1.164  17.433  0.00  0.00    +0.000 C 
ATOM     18  C   UNL     1      51.029   2.443  17.478  0.00  0.00    +0.000 A 
ATOM     19  C   UNL     1      51.660   3.664  17.736  0.00  0.00    +0.000 A 
ATOM     20  C   UNL     1      50.920   4.846  17.768  0.00  0.00    +0.000 A 
ATOM     21  C   UNL     1      49.544   4.821  17.538  0.00  0.00    +0.000 A 
ATOM     22  C   UNL     1      48.892   3.610  17.271  0.00  0.00    +0.000 A 
ATOM     23  C   UNL     1      49.646   2.426  17.245  0.00  0.00    +0.000 A 
ENDBRANCH  16  22
ENDBRANCH   1  16
TORSDOF 3
ENDMDL
MODEL 7
REMARK VINA RESULT:    -6.867      3.613      8.744
REMARK INTER + INTRA:          -8.574
REMARK INTER:                  -7.901
REMARK INTRA:                  -0.673
REMARK UNBOUND:                -0.502
REMARK  Name = 
REMARK  4 active torsions:
REMARK  status: ('A' for Active; 'I' for Inactive)
REMARK    1  A    between atoms: C_1  and  C_2
REMARK    2  A    between atoms: C_6  and  C_7
REMARK    3  A    between atoms: C_7  and  N_8
REMARK    4  A    between atoms: C_9  and  C_11
REMARK                            x       y       z     vdW  Elec       q    Type
REMARK                         _______ _______ _______ _____ _____    ______ ____
ROOT
ATOM      1  N   UNL     1      47.883   5.788  15.653  0.00  0.00    +0.000 N 
ATOM      2  C   UNL     1      48.117   6.284  14.396  0.00  0.00    +0.000 C 
ATOM      3  O   UNL     1      49.210   6.731  14.061  0.00  0.00    +0.000 OA
ATOM      4  H   UNL     1      46.931   5.619  15.958  0.00  0.00    +0.000 HD
ENDROOT
BRANCH   2   5
ATOM      5  C   UNL     1      47.007   6.190  13.440  0.00  0.00    +0.000 A 
ATOM      6  C   UNL     1      46.493   7.349  12.873  0.00  0.00    +0.000 A 
ATOM      7  S   UNL     1      45.241   7.067  11.752  0.00  0.00    +0.000 S 
ATOM      8  C   UNL     1      45.306   5.388  12.022  0.00  0.00    +0.000 A 
ATOM      9  N   UNL     1      44.457   4.544  11.376  0.00  0.00    +0.000 NA
ATOM     10  C   UNL     1      44.590   3.302  11.701  0.00  0.00    +0.000 A 
ATOM     11  N   UNL     1      45.502   2.826  12.607  0.00  0.00    +0.000 N 
ATOM     12  C   UNL     1      46.402   3.636  13.257  0.00  0.00    +0.000 A 
ATOM     13  O   UNL     1      47.240   3.172  14.024  0.00  0.00    +0.000 OA
ATOM     14  C   UNL     1      46.282   5.046  12.939  0.00  0.00    +0.000 A 
ATOM     15  H   UNL     1      45.560   1.839  12.811  0.00  0.00    +0.000 HD
ENDBRANCH   2   5
BRANCH   1  16
ATOM     16  C   UNL     1      48.895   5.807  16.682  0.00  0.00    +0.000 C 
BRANCH  16  22
ATOM     17  C   UNL     1      47.275   5.970  21.451  0.00  0.00    +0.000 C 
ATOM     18  C   UNL     1      47.665   6.689  20.193  0.00  0.00    +0.000 A 
ATOM     19  C   UNL     1      47.656   8.086  20.132  0.00  0.00    +0.000 A 
ATOM     20  C   UNL     1      48.028   8.741  18.957  0.00  0.00    +0.000 A 
ATOM     21  C   UNL     1      48.416   8.008  17.836  0.00  0.00    +0.000 A 
ATOM     22  C   UNL     1      48.438   6.608  17.876  0.00  0.00    +0.000 A 
ATOM     23  C   UNL     1      48.059   5.959  19.063  0.00  0.00    +0.000 A 
ENDBRANCH  16  22
ENDBRANCH   1  16
TORSDOF 3
ENDMDL
MODEL 8
REMARK VINA RESULT:    -6.602      4.171      7.402
REMARK INTER + INTRA:          -8.262
REMARK INTER:                  -7.797
REMARK INTRA:                  -0.465
REMARK UNBOUND:                -0.502
REMARK  Name = 
REMARK  4 active torsions:
REMARK  status: ('A' for Active; 'I' for Inactive)
REMARK    1  A    between atoms: C_1  and  C_2
REMARK    2  A    between atoms: C_6  and  C_7
REMARK    3  A    between atoms: C_7  and  N_8
REMARK    4  A    between atoms: C_9  and  C_11
REMARK                            x       y       z     vdW  Elec       q    Type
REMARK                         _______ _______ _______ _____ _____    ______ ____
ROOT
ATOM      1  N   UNL     1      44.118   8.057  11.149  0.00  0.00    +0.000 N 
ATOM      2  C   UNL     1      45.049   7.098  11.455  0.00  0.00    +0.000 C 
ATOM      3  O   UNL     1      46.208   7.380  11.746  0.00  0.00    +0.000 OA
ATOM      4  H   UNL     1      43.239   7.787  10.719  0.00  0.00    +0.000 HD
ENDROOT
BRANCH   2   5
ATOM      5  C   UNL     1      44.572   5.710  11.486  0.00  0.00    +0.000 A 
ATOM      6  C   UNL     1      43.871   5.253  12.595  0.00  0.00    +0.000 A 
ATOM      7  S   UNL     1      43.348   3.637  12.457  0.00  0.00    +0.000 S 
ATOM      8  C   UNL     1      44.084   3.474  10.931  0.00  0.00    +0.000 A 
ATOM      9  N   UNL     1      44.032   2.296  10.253  0.00  0.00    +0.000 NA
ATOM     10  C   UNL     1      44.660   2.300   9.126  0.00  0.00    +0.000 A 
ATOM     11  N   UNL     1      45.331   3.380   8.611  0.00  0.00    +0.000 N 
ATOM     12  C   UNL     1      45.381   4.599   9.243  0.00  0.00    +0.000 A 
ATOM     13  O   UNL     1      45.946   5.561   8.731  0.00  0.00    +0.000 OA
ATOM     14  C   UNL     1      44.702   4.642  10.524  0.00  0.00    +0.000 A 
ATOM     15  H   UNL     1      45.797   3.319   7.718  0.00  0.00    +0.000 HD
ENDBRANCH   2   5
BRANCH   1  16
ATOM     16  C   UNL     1      44.453   9.459  11.098  0.00  0.00    +0.000 C 
BRANCH  16  22
ATOM     17  C   UNL     1      39.551  10.542  10.660  0.00  0.00    +0.000 C 
ATOM     18  C   UNL     1      40.972  10.794  10.250  0.00  0.00    +0.000 A 
ATOM     19  C   UNL     1      41.286  11.789   9.319  0.00  0.00    +0.000 A 
ATOM     20  C   UNL     1      42.613  12.017   8.952  0.00  0.00    +0.000 A 
ATOM     21  C   UNL     1      43.639  11.257   9.515  0.00  0.00    +0.000 A 
ATOM     22  C   UNL     1      43.348  10.259  10.454  0.00  0.00    +0.000 A 
ATOM     23  C   UNL     1      42.009  10.036  10.813  0.00  0.00    +0.000 A 
ENDBRANCH  16  22
ENDBRANCH   1  16
TORSDOF 3
ENDMDL
MODEL 9
REMARK VINA RESULT:    -6.576      3.285      6.998
REMARK INTER + INTRA:          -8.232
REMARK INTER:                  -7.694
REMARK INTRA:                  -0.538
REMARK UNBOUND:                -0.502
REMARK  Name = 
REMARK  4 active torsions:
REMARK  status: ('A' for Active; 'I' for Inactive)
REMARK    1  A    between atoms: C_1  and  C_2
REMARK    2  A    between atoms: C_6  and  C_7
REMARK    3  A    between atoms: C_7  and  N_8
REMARK    4  A    between atoms: C_9  and  C_11
REMARK                            x       y       z     vdW  Elec       q    Type
REMARK                         _______ _______ _______ _____ _____    ______ ____
ROOT
ATOM      1  N   UNL     1      45.133   7.529  12.684  0.00  0.00    +0.000 N 
ATOM      2  C   UNL     1      45.883   6.534  12.111  0.00  0.00    +0.000 C 
ATOM      3  O   UNL     1      47.084   6.665  11.889  0.00  0.00    +0.000 OA
ATOM      4  H   UNL     1      44.120   7.470  12.666  0.00  0.00    +0.000 HD
ENDROOT
BRANCH   2   5
ATOM      5  C   UNL     1      45.192   5.269  11.838  0.00  0.00    +0.000 A 
ATOM      6  C   UNL     1      44.536   4.612  12.871  0.00  0.00    +0.000 A 
ATOM      7  S   UNL     1      43.746   3.183  12.382  0.00  0.00    +0.000 S 
ATOM      8  C   UNL     1      44.293   3.365  10.781  0.00  0.00    +0.000 A 
ATOM      9  N   UNL     1      43.985   2.445   9.829  0.00  0.00    +0.000 NA
ATOM     10  C   UNL     1      44.494   2.687   8.668  0.00  0.00    +0.000 A 
ATOM     11  N   UNL     1      45.278   3.771   8.371  0.00  0.00    +0.000 N 
ATOM     12  C   UNL     1      45.588   4.744   9.291  0.00  0.00    +0.000 A 
ATOM     13  O   UNL     1      46.250   5.730   8.980  0.00  0.00    +0.000 OA
ATOM     14  C   UNL     1      45.052   4.510  10.618  0.00  0.00    +0.000 A 
ATOM     15  H   UNL     1      45.640   3.906   7.438  0.00  0.00    +0.000 HD
ENDBRANCH   2   5
BRANCH   1  16
ATOM     16  C   UNL     1      45.696   8.816  13.015  0.00  0.00    +0.000 C 
BRANCH  16  22
ATOM     17  C   UNL     1      42.757  10.653   9.357  0.00  0.00    +0.000 C 
ATOM     18  C   UNL     1      44.036  10.711  10.139  0.00  0.00    +0.000 A 
ATOM     19  C   UNL     1      44.991  11.700   9.883  0.00  0.00    +0.000 A 
ATOM     20  C   UNL     1      46.173  11.746  10.623  0.00  0.00    +0.000 A 
ATOM     21  C   UNL     1      46.411  10.807  11.628  0.00  0.00    +0.000 A 
ATOM     22  C   UNL     1      45.466   9.811  11.905  0.00  0.00    +0.000 A 
ATOM     23  C   UNL     1      44.281   9.772  11.152  0.00  0.00    +0.000 A 
ENDBRANCH  16  22
ENDBRANCH   1  16
TORSDOF 3
ENDMDL
