MODEL 1
REMARK VINA RESULT:    -6.987      0.000      0.000
REMARK INTER + INTRA:          -8.761
REMARK INTER:                  -8.213
REMARK INTRA:                  -0.548
REMARK UNBOUND:                -0.548
REMARK  Name = 
REMARK  3 active torsions:
REMARK  status: ('A' for Active; 'I' for Inactive)
REMARK    1  A    between atoms: C_3  and  N_4
REMARK    2  A    between atoms: N_4  and  C_5
REMARK    3  A    between atoms: C_5  and  C_6
REMARK                            x       y       z     vdW  Elec       q    Type
REMARK                         _______ _______ _______ _____ _____    ______ ____
ROOT
ATOM      1  C   UNL     1      44.791   4.424  10.457  0.00  0.00    +0.000 A 
ATOM      2  C   UNL     1      44.599   3.364  11.336  0.00  0.00    +0.000 A 
ATOM      3  C   UNL     1      45.215   3.429  12.575  0.00  0.00    +0.000 A 
ATOM      4  N   UNL     1      45.989   4.462  12.985  0.00  0.00    +0.000 NA
ATOM      5  C   UNL     1      46.161   5.514  12.157  0.00  0.00    +0.000 A 
ATOM      6  N   UNL     1      47.029   6.516  12.513  0.00  0.00    +0.000 N 
ATOM      7  C   UNL     1      46.849   7.911  12.097  0.00  0.00    +0.000 C 
ATOM      8  C   UNL     1      48.236   8.538  11.885  0.00  0.00    +0.000 C 
ATOM      9  O   UNL     1      49.052   8.435  13.066  0.00  0.00    +0.000 OA
ATOM     10  C   UNL     1      49.203   7.058  13.462  0.00  0.00    +0.000 C 
ATOM     11  C   UNL     1      47.841   6.389  13.733  0.00  0.00    +0.000 C 
ATOM     12  C   UNL     1      45.553   5.512  10.900  0.00  0.00    +0.000 A 
ENDROOT
BRANCH   1  13
ATOM     13  C   UNL     1      44.283   4.404   9.036  0.00  0.00    +0.000 C 
BRANCH  13  14
ATOM     14  N   UNL     1      44.392   3.076   8.459  0.00  0.00    +0.000 N 
ATOM     15  H   UNL     1      43.874   2.360   8.962  0.00  0.00    +0.000 HD
BRANCH  14  18
ATOM     16  C   UNL     1      47.688   2.798   6.763  0.00  0.00    +0.000 A 
ATOM     17  C   UNL     1      46.523   3.383   7.245  0.00  0.00    +0.000 A 
ATOM     18  C   UNL     1      45.623   2.611   7.982  0.00  0.00    +0.000 A 
ATOM     19  C   UNL     1      45.934   1.259   8.149  0.00  0.00    +0.000 A 
ATOM     20  C   UNL     1      47.114   0.756   7.619  0.00  0.00    +0.000 A 
ATOM     21  N   UNL     1      48.006   1.500   6.935  0.00  0.00    +0.000 NA
ENDBRANCH  14  18
ENDBRANCH  13  14
ENDBRANCH   1  13
TORSDOF 3
ENDMDL
MODEL 2
REMARK VINA RESULT:    -6.879      1.335      1.907
REMARK INTER + INTRA:          -8.634
REMARK INTER:                  -8.056
REMARK INTRA:                  -0.578
REMARK UNBOUND:                -0.548
REMARK  Name = 
REMARK  3 active torsions:
REMARK  status: ('A' for Active; 'I' for Inactive)
REMARK    1  A    between atoms: C_3  and  N_4
REMARK    2  A    between atoms: N_4  and  C_5
REMARK    3  A    between atoms: C_5  and  C_6
REMARK                            x       y       z     vdW  Elec       q    Type
REMARK                         _______ _______ _______ _____ _____    ______ ____
ROOT
ATOM      1  C   UNL     1      44.670   4.554  11.824  0.00  0.00    +0.000 A 
ATOM      2  C   UNL     1      45.372   3.576  12.519  0.00  0.00    +0.000 A 
ATOM      3  C   UNL     1      46.418   3.982  13.332  0.00  0.00    +0.000 A 
ATOM      4  N   UNL     1      46.798   5.271  13.493  0.00  0.00    +0.000 NA
ATOM      5  C   UNL     1      46.108   6.237  12.851  0.00  0.00    +0.000 A 
ATOM      6  N   UNL     1      46.548   7.536  12.917  0.00  0.00    +0.000 N 
ATOM      7  C   UNL     1      45.642   8.688  12.848  0.00  0.00    +0.000 C 
ATOM      8  C   UNL     1      46.367   9.833  12.123  0.00  0.00    +0.000 C 
ATOM      9  O   UNL     1      47.609  10.169  12.768  0.00  0.00    +0.000 OA
ATOM     10  C   UNL     1      48.475   9.019  12.834  0.00  0.00    +0.000 C 
ATOM     11  C   UNL     1      47.816   7.851  13.593  0.00  0.00    +0.000 C 
ATOM     12  C   UNL     1      45.034   5.891  12.028  0.00  0.00    +0.000 A 
ENDROOT
BRANCH   1  13
ATOM     13  C   UNL     1      43.604   4.223  10.809  0.00  0.00    +0.000 C 
BRANCH  13  14
ATOM     14  N   UNL     1      44.048   4.526   9.461  0.00  0.00    +0.000 N 
ATOM     15  H   UNL     1      43.317   4.889   8.855  0.00  0.00    +0.000 HD
BRANCH  14  18
ATOM     16  C   UNL     1      45.920   1.522   8.328  0.00  0.00    +0.000 A 
ATOM     17  C   UNL     1      44.969   2.279   9.001  0.00  0.00    +0.000 A 
ATOM     18  C   UNL     1      44.918   3.658   8.791  0.00  0.00    +0.000 A 
ATOM     19  C   UNL     1      45.879   4.207   7.937  0.00  0.00    +0.000 A 
ATOM     20  C   UNL     1      46.802   3.375   7.319  0.00  0.00    +0.000 A 
ATOM     21  N   UNL     1      46.839   2.039   7.489  0.00  0.00    +0.000 NA
ENDBRANCH  14  18
ENDBRANCH  13  14
ENDBRANCH   1  13
TORSDOF 3
ENDMDL
MODEL 3
REMARK VINA RESULT:    -6.631      2.478      3.619
REMARK INTER + INTRA:          -8.343
REMARK INTER:                  -7.854
REMARK INTRA:                  -0.488
REMARK UNBOUND:                -0.548
REMARK  Name = 
REMARK  3 active torsions:
REMARK  status: ('A' for Active; 'I' for Inactive)
REMARK    1  A    between atoms: C_3  and  N_4
REMARK    2  A    between atoms: N_4  and  C_5
REMARK    3  A    between atoms: C_5  and  C_6
REMARK                            x       y       z     vdW  Elec       q    Type
REMARK                         _______ _______ _______ _____ _____    ______ ____
ROOT
ATOM      1  C   UNL     1      45.292   5.290  12.110  0.00  0.00    +0.000 A 
ATOM      2  C   UNL     1      45.912   6.374  11.497  0.00  0.00    +0.000 A 
ATOM      3  C   UNL     1      47.027   6.917  12.113  0.00  0.00    +0.000 A 
ATOM      4  N   UNL     1      47.553   6.458  13.273  0.00  0.00    +0.000 NA
ATOM      5  C   UNL     1      46.984   5.388  13.866  0.00  0.00    +0.000 A 
ATOM      6  N   UNL     1      47.437   4.979  15.096  0.00  0.00    +0.000 N 
ATOM      7  C   UNL     1      47.396   3.580  15.535  0.00  0.00    +0.000 C 
ATOM      8  C   UNL     1      47.140   3.554  17.050  0.00  0.00    +0.000 C 
ATOM      9  O   UNL     1      48.130   4.310  17.770  0.00  0.00    +0.000 OA
ATOM     10  C   UNL     1      48.160   5.676  17.312  0.00  0.00    +0.000 C 
ATOM     11  C   UNL     1      48.460   5.765  15.802  0.00  0.00    +0.000 C 
ATOM     12  C   UNL     1      45.865   4.788  13.285  0.00  0.00    +0.000 A 
ENDROOT
BRANCH   1  13
ATOM     13  C   UNL     1      43.997   4.703  11.606  0.00  0.00    +0.000 C 
BRANCH  13  14
ATOM     14  N   UNL     1      43.915   4.776  10.159  0.00  0.00    +0.000 N 
ATOM     15  H   UNL     1      42.976   4.944   9.804  0.00  0.00    +0.000 HD
BRANCH  14  18
ATOM     16  C   UNL     1      45.458   1.706   8.745  0.00  0.00    +0.000 A 
ATOM     17  C   UNL     1      44.652   2.496   9.555  0.00  0.00    +0.000 A 
ATOM     18  C   UNL     1      44.636   3.879   9.362  0.00  0.00    +0.000 A 
ATOM     19  C   UNL     1      45.486   4.394   8.380  0.00  0.00    +0.000 A 
ATOM     20  C   UNL     1      46.268   3.529   7.628  0.00  0.00    +0.000 A 
ATOM     21  N   UNL     1      46.267   2.191   7.783  0.00  0.00    +0.000 NA
ENDBRANCH  14  18
ENDBRANCH  13  14
ENDBRANCH   1  13
TORSDOF 3
ENDMDL
MODEL 4
REMARK VINA RESULT:    -6.273      2.284      3.245
REMARK INTER + INTRA:          -7.922
REMARK INTER:                  -7.371
REMARK INTRA:                  -0.551
REMARK UNBOUND:                -0.548
REMARK  Name = 
REMARK  3 active torsions:
REMARK  status: ('A' for Active; 'I' for Inactive)
REMARK    1  A    between atoms: C_3  and  N_4
REMARK    2  A    between atoms: N_4  and  C_5
REMARK    3  A    between atoms: C_5  and  C_6
REMARK                            x       y       z     vdW  Elec       q    Type
REMARK                         _______ _______ _______ _____ _____    ______ ____
ROOT
ATOM      1  C   UNL     1      44.854   5.799  11.964  0.00  0.00    +0.000 A 
ATOM      2  C   UNL     1      45.956   5.243  12.604  0.00  0.00    +0.000 A 
ATOM      3  C   UNL     1      46.963   6.098  13.020  0.00  0.00    +0.000 A 
ATOM      4  N   UNL     1      46.940   7.440  12.845  0.00  0.00    +0.000 NA
ATOM      5  C   UNL     1      45.864   8.000  12.254  0.00  0.00    +0.000 A 
ATOM      6  N   UNL     1      45.875   9.344  11.971  0.00  0.00    +0.000 N 
ATOM      7  C   UNL     1      44.657  10.162  11.950  0.00  0.00    +0.000 C 
ATOM      8  C   UNL     1      44.818  11.242  10.867  0.00  0.00    +0.000 C 
ATOM      9  O   UNL     1      45.994  12.042  11.083  0.00  0.00    +0.000 OA
ATOM     10  C   UNL     1      47.173  11.214  11.113  0.00  0.00    +0.000 C 
ATOM     11  C   UNL     1      47.088  10.139  12.214  0.00  0.00    +0.000 C 
ATOM     12  C   UNL     1      44.810   7.191  11.826  0.00  0.00    +0.000 A 
ENDROOT
BRANCH   1  13
ATOM     13  C   UNL     1      43.762   4.958  11.350  0.00  0.00    +0.000 C 
BRANCH  13  14
ATOM     14  N   UNL     1      43.838   4.976   9.900  0.00  0.00    +0.000 N 
ATOM     15  H   UNL     1      42.950   5.163   9.440  0.00  0.00    +0.000 HD
BRANCH  14  18
ATOM     16  C   UNL     1      45.437   1.804   8.807  0.00  0.00    +0.000 A 
ATOM     17  C   UNL     1      44.585   2.654   9.502  0.00  0.00    +0.000 A 
ATOM     18  C   UNL     1      44.603   4.021   9.219  0.00  0.00    +0.000 A 
ATOM     19  C   UNL     1      45.530   4.462   8.272  0.00  0.00    +0.000 A 
ATOM     20  C   UNL     1      46.353   3.543   7.638  0.00  0.00    +0.000 A 
ATOM     21  N   UNL     1      46.321   2.217   7.879  0.00  0.00    +0.000 NA
ENDBRANCH  14  18
ENDBRANCH  13  14
ENDBRANCH   1  13
TORSDOF 3
ENDMDL
MODEL 5
REMARK VINA RESULT:    -5.892      3.486      7.243
REMARK INTER + INTRA:          -7.474
REMARK INTER:                  -6.994
REMARK INTRA:                  -0.480
REMARK UNBOUND:                -0.548
REMARK  Name = 
REMARK  3 active torsions:
REMARK  status: ('A' for Active; 'I' for Inactive)
REMARK    1  A    between atoms: C_3  and  N_4
REMARK    2  A    between atoms: N_4  and  C_5
REMARK    3  A    between atoms: C_5  and  C_6
REMARK                            x       y       z     vdW  Elec       q    Type
REMARK                         _______ _______ _______ _____ _____    ______ ____
ROOT
ATOM      1  C   UNL     1      47.729   6.660  13.722  0.00  0.00    +0.000 A 
ATOM      2  C   UNL     1      48.288   7.417  12.698  0.00  0.00    +0.000 A 
ATOM      3  C   UNL     1      47.725   7.317  11.436  0.00  0.00    +0.000 A 
ATOM      4  N   UNL     1      46.664   6.531  11.139  0.00  0.00    +0.000 NA
ATOM      5  C   UNL     1      46.089   5.813  12.126  0.00  0.00    +0.000 A 
ATOM      6  N   UNL     1      45.084   4.930  11.819  0.00  0.00    +0.000 N 
ATOM      7  C   UNL     1      44.001   4.600  12.753  0.00  0.00    +0.000 C 
ATOM      8  C   UNL     1      43.610   3.129  12.541  0.00  0.00    +0.000 C 
ATOM      9  O   UNL     1      43.235   2.869  11.177  0.00  0.00    +0.000 OA
ATOM     10  C   UNL     1      44.309   3.213  10.280  0.00  0.00    +0.000 C 
ATOM     11  C   UNL     1      44.713   4.694  10.416  0.00  0.00    +0.000 C 
ATOM     12  C   UNL     1      46.603   5.883  13.423  0.00  0.00    +0.000 A 
ENDROOT
BRANCH   1  13
ATOM     13  C   UNL     1      48.338   6.583  15.101  0.00  0.00    +0.000 C 
BRANCH  13  14
ATOM     14  N   UNL     1      47.661   5.595  15.920  0.00  0.00    +0.000 N 
ATOM     15  H   UNL     1      46.947   5.981  16.533  0.00  0.00    +0.000 HD
BRANCH  14  18
ATOM     16  C   UNL     1      50.194   3.654  17.824  0.00  0.00    +0.000 A 
ATOM     17  C   UNL     1      49.512   4.758  17.328  0.00  0.00    +0.000 A 
ATOM     18  C   UNL     1      48.385   4.562  16.527  0.00  0.00    +0.000 A 
ATOM     19  C   UNL     1      48.039   3.241  16.229  0.00  0.00    +0.000 A 
ATOM     20  C   UNL     1      48.788   2.200  16.758  0.00  0.00    +0.000 A 
ATOM     21  N   UNL     1      49.857   2.377  17.559  0.00  0.00    +0.000 NA
ENDBRANCH  14  18
ENDBRANCH  13  14
ENDBRANCH   1  13
TORSDOF 3
ENDMDL
MODEL 6
REMARK VINA RESULT:    -5.869      4.017      7.506
REMARK INTER + INTRA:          -7.447
REMARK INTER:                  -7.028
REMARK INTRA:                  -0.418
REMARK UNBOUND:                -0.548
REMARK  Name = 
REMARK  3 active torsions:
REMARK  status: ('A' for Active; 'I' for Inactive)
REMARK    1  A    between atoms: C_3  and  N_4
REMARK    2  A    between atoms: N_4  and  C_5
REMARK    3  A    between atoms: C_5  and  C_6
REMARK                            x       y       z     vdW  Elec       q    Type
REMARK                         _______ _______ _______ _____ _____    ______ ____
ROOT
ATOM      1  C   UNL     1      47.214   4.982  14.840  0.00  0.00    +0.000 A 
ATOM      2  C   UNL     1      48.039   6.085  14.648  0.00  0.00    +0.000 A 
ATOM      3  C   UNL     1      47.932   6.774  13.451  0.00  0.00    +0.000 A 
ATOM      4  N   UNL     1      47.072   6.443  12.459  0.00  0.00    +0.000 NA
ATOM      5  C   UNL     1      46.242   5.395  12.641  0.00  0.00    +0.000 A 
ATOM      6  N   UNL     1      45.444   4.981  11.603  0.00  0.00    +0.000 N 
ATOM      7  C   UNL     1      44.132   4.356  11.809  0.00  0.00    +0.000 C 
ATOM      8  C   UNL     1      43.912   3.315  10.699  0.00  0.00    +0.000 C 
ATOM      9  O   UNL     1      44.024   3.901   9.390  0.00  0.00    +0.000 OA
ATOM     10  C   UNL     1      45.314   4.519   9.218  0.00  0.00    +0.000 C 
ATOM     11  C   UNL     1      45.572   5.607  10.279  0.00  0.00    +0.000 C 
ATOM     12  C   UNL     1      46.294   4.669  13.832  0.00  0.00    +0.000 A 
ENDROOT
BRANCH   1  13
ATOM     13  C   UNL     1      47.335   4.077  16.041  0.00  0.00    +0.000 C 
BRANCH  13  14
ATOM     14  N   UNL     1      48.309   4.588  16.988  0.00  0.00    +0.000 N 
ATOM     15  H   UNL     1      48.482   5.587  16.908  0.00  0.00    +0.000 HD
BRANCH  14  18
ATOM     16  C   UNL     1      51.797   3.629  17.839  0.00  0.00    +0.000 A 
ATOM     17  C   UNL     1      50.684   4.440  17.655  0.00  0.00    +0.000 A 
ATOM     18  C   UNL     1      49.474   3.863  17.265  0.00  0.00    +0.000 A 
ATOM     19  C   UNL     1      49.473   2.485  17.033  0.00  0.00    +0.000 A 
ATOM     20  C   UNL     1      50.637   1.756  17.227  0.00  0.00    +0.000 A 
ATOM     21  N   UNL     1      51.802   2.297  17.636  0.00  0.00    +0.000 NA
ENDBRANCH  14  18
ENDBRANCH  13  14
ENDBRANCH   1  13
TORSDOF 3
ENDMDL
MODEL 7
REMARK VINA RESULT:    -5.829      3.751      7.394
REMARK INTER + INTRA:          -7.400
REMARK INTER:                  -6.933
REMARK INTRA:                  -0.467
REMARK UNBOUND:                -0.548
REMARK  Name = 
REMARK  3 active torsions:
REMARK  status: ('A' for Active; 'I' for Inactive)
REMARK    1  A    between atoms: C_3  and  N_4
REMARK    2  A    between atoms: N_4  and  C_5
REMARK    3  A    between atoms: C_5  and  C_6
REMARK                            x       y       z     vdW  Elec       q    Type
REMARK                         _______ _______ _______ _____ _____    ______ ____
ROOT
ATOM      1  C   UNL     1      47.416   7.244  13.651  0.00  0.00    +0.000 A 
ATOM      2  C   UNL     1      47.240   8.495  13.068  0.00  0.00    +0.000 A 
ATOM      3  C   UNL     1      46.164   8.666  12.213  0.00  0.00    +0.000 A 
ATOM      4  N   UNL     1      45.272   7.695  11.911  0.00  0.00    +0.000 NA
ATOM      5  C   UNL     1      45.408   6.484  12.491  0.00  0.00    +0.000 A 
ATOM      6  N   UNL     1      44.577   5.458  12.112  0.00  0.00    +0.000 N 
ATOM      7  C   UNL     1      44.180   4.378  13.022  0.00  0.00    +0.000 C 
ATOM      8  C   UNL     1      44.033   3.085  12.205  0.00  0.00    +0.000 C 
ATOM      9  O   UNL     1      43.098   3.242  11.123  0.00  0.00    +0.000 OA
ATOM     10  C   UNL     1      43.504   4.316  10.252  0.00  0.00    +0.000 C 
ATOM     11  C   UNL     1      43.623   5.652  11.010  0.00  0.00    +0.000 C 
ATOM     12  C   UNL     1      46.465   6.254  13.374  0.00  0.00    +0.000 A 
ENDROOT
BRANCH   1  13
ATOM     13  C   UNL     1      48.622   6.900  14.489  0.00  0.00    +0.000 C 
BRANCH  13  14
ATOM     14  N   UNL     1      48.247   6.638  15.867  0.00  0.00    +0.000 N 
ATOM     15  H   UNL     1      48.486   7.387  16.512  0.00  0.00    +0.000 HD
BRANCH  14  18
ATOM     16  C   UNL     1      47.768   3.148  17.049  0.00  0.00    +0.000 A 
ATOM     17  C   UNL     1      47.492   4.347  16.405  0.00  0.00    +0.000 A 
ATOM     18  C   UNL     1      48.443   5.369  16.424  0.00  0.00    +0.000 A 
ATOM     19  C   UNL     1      49.616   5.132  17.146  0.00  0.00    +0.000 A 
ATOM     20  C   UNL     1      49.800   3.908  17.772  0.00  0.00    +0.000 A 
ATOM     21  N   UNL     1      48.903   2.902  17.732  0.00  0.00    +0.000 NA
ENDBRANCH  14  18
ENDBRANCH  13  14
ENDBRANCH   1  13
TORSDOF 3
ENDMDL
MODEL 8
REMARK VINA RESULT:    -5.746      3.781      7.959
REMARK INTER + INTRA:          -7.302
REMARK INTER:                  -6.979
REMARK INTRA:                  -0.324
REMARK UNBOUND:                -0.548
REMARK  Name = 
REMARK  3 active torsions:
REMARK  status: ('A' for Active; 'I' for Inactive)
REMARK    1  A    between atoms: C_3  and  N_4
REMARK    2  A    between atoms: N_4  and  C_5
REMARK    3  A    between atoms: C_5  and  C_6
REMARK                            x       y       z     vdW  Elec       q    Type
REMARK                         _______ _______ _______ _____ _____    ______ ____
ROOT
ATOM      1  C   UNL     1      47.776   6.422  13.830  0.00  0.00    +0.000 A 
ATOM      2  C   UNL     1      48.339   7.256  12.870  0.00  0.00    +0.000 A 
ATOM      3  C   UNL     1      47.768   7.271  11.608  0.00  0.00    +0.000 A 
ATOM      4  N   UNL     1      46.694   6.527  11.252  0.00  0.00    +0.000 NA
ATOM      5  C   UNL     1      46.115   5.736  12.179  0.00  0.00    +0.000 A 
ATOM      6  N   UNL     1      45.096   4.895  11.805  0.00  0.00    +0.000 N 
ATOM      7  C   UNL     1      44.014   4.501  12.715  0.00  0.00    +0.000 C 
ATOM      8  C   UNL     1      43.602   3.059  12.382  0.00  0.00    +0.000 C 
ATOM      9  O   UNL     1      43.215   2.920  11.003  0.00  0.00    +0.000 OA
ATOM     10  C   UNL     1      44.289   3.325  10.131  0.00  0.00    +0.000 C 
ATOM     11  C   UNL     1      44.715   4.784  10.389  0.00  0.00    +0.000 C 
ATOM     12  C   UNL     1      46.638   5.689  13.473  0.00  0.00    +0.000 A 
ENDROOT
BRANCH   1  13
ATOM     13  C   UNL     1      48.391   6.221  15.193  0.00  0.00    +0.000 C 
BRANCH  13  14
ATOM     14  N   UNL     1      47.618   5.281  15.985  0.00  0.00    +0.000 N 
ATOM     15  H   UNL     1      46.613   5.346  15.843  0.00  0.00    +0.000 HD
BRANCH  14  18
ATOM     16  C   UNL     1      48.567   5.680  19.556  0.00  0.00    +0.000 A 
ATOM     17  C   UNL     1      48.170   6.036  18.272  0.00  0.00    +0.000 A 
ATOM     18  C   UNL     1      47.956   5.037  17.321  0.00  0.00    +0.000 A 
ATOM     19  C   UNL     1      48.208   3.719  17.714  0.00  0.00    +0.000 A 
ATOM     20  C   UNL     1      48.617   3.459  19.014  0.00  0.00    +0.000 A 
ATOM     21  N   UNL     1      48.795   4.412  19.950  0.00  0.00    +0.000 NA
ENDBRANCH  14  18
ENDBRANCH  13  14
ENDBRANCH   1  13
TORSDOF 3
ENDMDL
MODEL 9
REMARK VINA RESULT:    -5.726      2.027      3.206
REMARK INTER + INTRA:          -7.279
REMARK INTER:                  -6.834
REMARK INTRA:                  -0.444
REMARK UNBOUND:                -0.548
REMARK  Name = 
REMARK  3 active torsions:
REMARK  status: ('A' for Active; 'I' for Inactive)
REMARK    1  A    between atoms: C_3  and  N_4
REMARK    2  A    between atoms: N_4  and  C_5
REMARK    3  A    between atoms: C_5  and  C_6
REMARK                            x       y       z     vdW  Elec       q    Type
REMARK                         _______ _______ _______ _____ _____    ______ ____
ROOT
ATOM      1  C   UNL     1      44.874   6.644  11.949  0.00  0.00    +0.000 A 
ATOM      2  C   UNL     1      44.452   7.845  11.390  0.00  0.00    +0.000 A 
ATOM      3  C   UNL     1      45.148   8.996  11.723  0.00  0.00    +0.000 A 
ATOM      4  N   UNL     1      46.213   9.024  12.557  0.00  0.00    +0.000 NA
ATOM      5  C   UNL     1      46.656   7.863  13.085  0.00  0.00    +0.000 A 
ATOM      6  N   UNL     1      47.665   7.889  14.017  0.00  0.00    +0.000 N 
ATOM      7  C   UNL     1      48.628   6.794  14.177  0.00  0.00    +0.000 C 
ATOM      8  C   UNL     1      49.000   6.689  15.664  0.00  0.00    +0.000 C 
ATOM      9  O   UNL     1      49.516   7.932  16.173  0.00  0.00    +0.000 OA
ATOM     10  C   UNL     1      48.557   8.992  15.993  0.00  0.00    +0.000 C 
ATOM     11  C   UNL     1      48.180   9.175  14.509  0.00  0.00    +0.000 C 
ATOM     12  C   UNL     1      46.005   6.668  12.775  0.00  0.00    +0.000 A 
ENDROOT
BRANCH   1  13
ATOM     13  C   UNL     1      44.116   5.353  11.767  0.00  0.00    +0.000 C 
BRANCH  13  14
ATOM     14  N   UNL     1      43.805   5.118  10.368  0.00  0.00    +0.000 N 
ATOM     15  H   UNL     1      42.810   5.039  10.171  0.00  0.00    +0.000 HD
BRANCH  14  18
ATOM     16  C   UNL     1      46.129   3.631   7.878  0.00  0.00    +0.000 A 
ATOM     17  C   UNL     1      45.467   4.609   8.612  0.00  0.00    +0.000 A 
ATOM     18  C   UNL     1      44.573   4.224   9.613  0.00  0.00    +0.000 A 
ATOM     19  C   UNL     1      44.360   2.854   9.783  0.00  0.00    +0.000 A 
ATOM     20  C   UNL     1      45.054   1.949   8.993  0.00  0.00    +0.000 A 
ATOM     21  N   UNL     1      45.944   2.308   8.047  0.00  0.00    +0.000 NA
ENDBRANCH  14  18
ENDBRANCH  13  14
ENDBRANCH   1  13
TORSDOF 3
ENDMDL
