MODEL 1
REMARK VINA RESULT:    -7.799      0.000      0.000
REMARK INTER + INTRA:         -12.243
REMARK INTER:                 -10.991
REMARK INTRA:                  -1.253
REMARK UNBOUND:                -1.253
REMARK  Name = 
REMARK  8 active torsions:
REMARK  status: ('A' for Active; 'I' for Inactive)
REMARK    1  A    between atoms: C_1  and  O_2
REMARK    2  A    between atoms: O_2  and  C_3
REMARK    3  A    between atoms: C_8  and  C_9
REMARK    4  A    between atoms: N_11  and  C_12
REMARK    5  A    between atoms: C_12  and  C_13
REMARK    6  A    between atoms: C_16  and  C_17
REMARK    7  A    between atoms: C_17  and  N_18
REMARK    8  A    between atoms: C_19  and  C_21
REMARK                            x       y       z     vdW  Elec       q    Type
REMARK                         _______ _______ _______ _____ _____    ______ ____
ROOT
ATOM      1  C   UNL     1      47.572   8.032  13.680  0.00  0.00    +0.000 A 
ATOM      2  C   UNL     1      46.327   8.644  13.483  0.00  0.00    +0.000 A 
ATOM      3  C   UNL     1      45.459   8.192  12.480  0.00  0.00    +0.000 A 
ATOM      4  C   UNL     1      45.804   7.099  11.670  0.00  0.00    +0.000 A 
ATOM      5  C   UNL     1      47.049   6.488  11.868  0.00  0.00    +0.000 A 
ATOM      6  C   UNL     1      47.909   6.949  12.867  0.00  0.00    +0.000 A 
ATOM      7  F   UNL     1      49.086   6.328  13.037  0.00  0.00    +0.000 F 
ENDROOT
BRANCH   1   8
ATOM      8  C   UNL     1      48.516   8.522  14.744  0.00  0.00    +0.000 C 
BRANCH   8  11
ATOM      9  C   UNL     1      49.489   6.842  16.291  0.00  0.00    +0.000 C 
ATOM     10  O   UNL     1      50.495   6.688  15.605  0.00  0.00    +0.000 OA
ATOM     11  N   UNL     1      48.479   7.700  15.930  0.00  0.00    +0.000 N 
ATOM     12  H   UNL     1      47.689   7.799  16.558  0.00  0.00    +0.000 HD
BRANCH   9  18
ATOM     13  C   UNL     1      48.972   4.737  17.706  0.00  0.00    +0.000 A 
ATOM     14  C   UNL     1      48.786   4.185  18.983  0.00  0.00    +0.000 A 
ATOM     15  C   UNL     1      48.984   4.950  20.134  0.00  0.00    +0.000 A 
ATOM     16  C   UNL     1      49.380   6.277  20.027  0.00  0.00    +0.000 A 
ATOM     17  C   UNL     1      49.552   6.846  18.765  0.00  0.00    +0.000 A 
ATOM     18  C   UNL     1      49.334   6.098  17.592  0.00  0.00    +0.000 A 
BRANCH  13  20
ATOM     19  C   UNL     1      47.496   3.828  16.051  0.00  0.00    +0.000 C 
ATOM     20  O   UNL     1      48.818   4.011  16.549  0.00  0.00    +0.000 OA
ENDBRANCH  13  20
ENDBRANCH   9  18
ENDBRANCH   8  11
ENDBRANCH   1   8
BRANCH   4  21
ATOM     21  C   UNL     1      44.863   6.596  10.606  0.00  0.00    +0.000 C 
BRANCH  21  22
ATOM     22  N   UNL     1      45.312   5.355  10.025  0.00  0.00    +0.000 N 
ATOM     23  C   UNL     1      44.442   4.317   9.798  0.00  0.00    +0.000 C 
ATOM     24  O   UNL     1      43.256   4.377  10.114  0.00  0.00    +0.000 OA
ATOM     25  H   UNL     1      46.290   5.285   9.754  0.00  0.00    +0.000 HD
BRANCH  23  26
ATOM     26  C   UNL     1      45.000   3.132   9.158  0.00  0.00    +0.000 A 
ATOM     27  C   UNL     1      44.554   1.847   9.417  0.00  0.00    +0.000 A 
ATOM     28  O   UNL     1      45.238   0.923   8.696  0.00  0.00    +0.000 OA
ATOM     29  C   UNL     1      46.153   1.595   7.946  0.00  0.00    +0.000 A 
ATOM     30  N   UNL     1      47.023   0.987   7.102  0.00  0.00    +0.000 NA
ATOM     31  C   UNL     1      47.812   1.812   6.495  0.00  0.00    +0.000 A 
ATOM     32  N   UNL     1      47.796   3.180   6.652  0.00  0.00    +0.000 N 
ATOM     33  C   UNL     1      46.917   3.829   7.492  0.00  0.00    +0.000 A 
ATOM     34  O   UNL     1      46.915   5.049   7.616  0.00  0.00    +0.000 OA
ATOM     35  C   UNL     1      46.035   2.949   8.198  0.00  0.00    +0.000 A 
ATOM     36  H   UNL     1      48.443   3.765   6.143  0.00  0.00    +0.000 HD
ENDBRANCH  23  26
ENDBRANCH  21  22
ENDBRANCH   4  21
TORSDOF 7
ENDMDL
MODEL 2
REMARK VINA RESULT:    -7.430      3.471      4.507
REMARK INTER + INTRA:         -11.724
REMARK INTER:                 -10.228
REMARK INTRA:                  -1.496
REMARK UNBOUND:                -1.253
REMARK  Name = 
REMARK  8 active torsions:
REMARK  status: ('A' for Active; 'I' for Inactive)
REMARK    1  A    between atoms: C_1  and  O_2
REMARK    2  A    between atoms: O_2  and  C_3
REMARK    3  A    between atoms: C_8  and  C_9
REMARK    4  A    between atoms: N_11  and  C_12
REMARK    5  A    between atoms: C_12  and  C_13
REMARK    6  A    between atoms: C_16  and  C_17
REMARK    7  A    between atoms: C_17  and  N_18
REMARK    8  A    between atoms: C_19  and  C_21
REMARK                            x       y       z     vdW  Elec       q    Type
REMARK                         _______ _______ _______ _____ _____    ______ ____
ROOT
ATOM      1  C   UNL     1      50.285   7.437  15.399  0.00  0.00    +0.000 A 
ATOM      2  C   UNL     1      50.763   8.275  14.383  0.00  0.00    +0.000 A 
ATOM      3  C   UNL     1      49.977   8.553  13.256  0.00  0.00    +0.000 A 
ATOM      4  C   UNL     1      48.685   8.021  13.133  0.00  0.00    +0.000 A 
ATOM      5  C   UNL     1      48.208   7.183  14.149  0.00  0.00    +0.000 A 
ATOM      6  C   UNL     1      49.001   6.908  15.266  0.00  0.00    +0.000 A 
ATOM      7  F   UNL     1      48.503   6.114  16.226  0.00  0.00    +0.000 F 
ENDROOT
BRANCH   1   8
ATOM      8  C   UNL     1      51.129   7.121  16.604  0.00  0.00    +0.000 C 
BRANCH   8  11
ATOM      9  C   UNL     1      51.433   5.001  17.859  0.00  0.00    +0.000 C 
ATOM     10  O   UNL     1      51.152   5.516  18.938  0.00  0.00    +0.000 OA
ATOM     11  N   UNL     1      51.460   5.719  16.688  0.00  0.00    +0.000 N 
ATOM     12  H   UNL     1      51.674   5.224  15.830  0.00  0.00    +0.000 HD
BRANCH   9  18
ATOM     13  C   UNL     1      50.863   2.546  17.270  0.00  0.00    +0.000 A 
ATOM     14  C   UNL     1      51.244   1.196  17.324  0.00  0.00    +0.000 A 
ATOM     15  C   UNL     1      52.486   0.819  17.837  0.00  0.00    +0.000 A 
ATOM     16  C   UNL     1      53.370   1.786  18.298  0.00  0.00    +0.000 A 
ATOM     17  C   UNL     1      53.000   3.130  18.269  0.00  0.00    +0.000 A 
ATOM     18  C   UNL     1      51.742   3.529  17.777  0.00  0.00    +0.000 A 
BRANCH  13  20
ATOM     19  C   UNL     1      48.502   2.843  17.561  0.00  0.00    +0.000 C 
ATOM     20  O   UNL     1      49.663   2.963  16.745  0.00  0.00    +0.000 OA
ENDBRANCH  13  20
ENDBRANCH   9  18
ENDBRANCH   8  11
ENDBRANCH   1   8
BRANCH   4  21
ATOM     21  C   UNL     1      47.828   8.336  11.933  0.00  0.00    +0.000 C 
BRANCH  21  22
ATOM     22  N   UNL     1      46.801   7.346  11.723  0.00  0.00    +0.000 N 
ATOM     23  C   UNL     1      45.498   7.581  12.090  0.00  0.00    +0.000 C 
ATOM     24  O   UNL     1      45.154   8.620  12.649  0.00  0.00    +0.000 OA
ATOM     25  H   UNL     1      47.064   6.480  11.261  0.00  0.00    +0.000 HD
BRANCH  23  26
ATOM     26  C   UNL     1      44.539   6.529  11.781  0.00  0.00    +0.000 A 
ATOM     27  C   UNL     1      43.325   6.765  11.157  0.00  0.00    +0.000 A 
ATOM     28  O   UNL     1      42.617   5.620  10.987  0.00  0.00    +0.000 OA
ATOM     29  C   UNL     1      43.362   4.605  11.501  0.00  0.00    +0.000 A 
ATOM     30  N   UNL     1      42.961   3.310  11.510  0.00  0.00    +0.000 NA
ATOM     31  C   UNL     1      43.817   2.510  12.056  0.00  0.00    +0.000 A 
ATOM     32  N   UNL     1      45.033   2.893  12.579  0.00  0.00    +0.000 N 
ATOM     33  C   UNL     1      45.474   4.198  12.575  0.00  0.00    +0.000 A 
ATOM     34  O   UNL     1      46.562   4.519  13.041  0.00  0.00    +0.000 OA
ATOM     35  C   UNL     1      44.546   5.121  11.993  0.00  0.00    +0.000 A 
ATOM     36  H   UNL     1      45.654   2.211  12.991  0.00  0.00    +0.000 HD
ENDBRANCH  23  26
ENDBRANCH  21  22
ENDBRANCH   4  21
TORSDOF 7
ENDMDL
MODEL 3
REMARK VINA RESULT:    -7.423      1.485      1.848
REMARK INTER + INTRA:         -11.713
REMARK INTER:                 -10.510
REMARK INTRA:                  -1.204
REMARK UNBOUND:                -1.253
REMARK  Name = 
REMARK  8 active torsions:
REMARK  status: ('A' for Active; 'I' for Inactive)
REMARK    1  A    between atoms: C_1  and  O_2
REMARK    2  A    between atoms: O_2  and  C_3
REMARK    3  A    between atoms: C_8  and  C_9
REMARK    4  A    between atoms: N_11  and  C_12
REMARK    5  A    between atoms: C_12  and  C_13
REMARK    6  A    between atoms: C_16  and  C_17
REMARK    7  A    between atoms: C_17  and  N_18
REMARK    8  A    between atoms: C_19  and  C_21
REMARK                            x       y       z     vdW  Elec       q    Type
REMARK                         _______ _______ _______ _____ _____    ______ ____
ROOT
ATOM      1  C   UNL     1      47.334   6.020  13.693  0.00  0.00    +0.000 A 
ATOM      2  C   UNL     1      46.868   4.814  14.232  0.00  0.00    +0.000 A 
ATOM      3  C   UNL     1      45.914   4.046  13.551  0.00  0.00    +0.000 A 
ATOM      4  C   UNL     1      45.425   4.454  12.301  0.00  0.00    +0.000 A 
ATOM      5  C   UNL     1      45.890   5.660  11.762  0.00  0.00    +0.000 A 
ATOM      6  C   UNL     1      46.837   6.421  12.452  0.00  0.00    +0.000 A 
ATOM      7  F   UNL     1      47.271   7.562  11.896  0.00  0.00    +0.000 F 
ENDROOT
BRANCH   1   8
ATOM      8  C   UNL     1      48.346   6.858  14.426  0.00  0.00    +0.000 C 
BRANCH   8  11
ATOM      9  C   UNL     1      49.661   6.350  16.470  0.00  0.00    +0.000 C 
ATOM     10  O   UNL     1      50.739   6.509  15.902  0.00  0.00    +0.000 OA
ATOM     11  N   UNL     1      48.461   6.485  15.816  0.00  0.00    +0.000 N 
ATOM     12  H   UNL     1      47.609   6.367  16.353  0.00  0.00    +0.000 HD
BRANCH   9  18
ATOM     13  C   UNL     1      49.150   4.800  18.478  0.00  0.00    +0.000 A 
ATOM     14  C   UNL     1      49.089   4.649  19.873  0.00  0.00    +0.000 A 
ATOM     15  C   UNL     1      49.514   5.669  20.726  0.00  0.00    +0.000 A 
ATOM     16  C   UNL     1      50.014   6.852  20.199  0.00  0.00    +0.000 A 
ATOM     17  C   UNL     1      50.064   7.026  18.816  0.00  0.00    +0.000 A 
ATOM     18  C   UNL     1      49.618   6.018  17.939  0.00  0.00    +0.000 A 
BRANCH  13  20
ATOM     19  C   UNL     1      47.402   3.421  17.591  0.00  0.00    +0.000 C 
ATOM     20  O   UNL     1      48.771   3.810  17.603  0.00  0.00    +0.000 OA
ENDBRANCH  13  20
ENDBRANCH   9  18
ENDBRANCH   8  11
ENDBRANCH   1   8
BRANCH   4  21
ATOM     21  C   UNL     1      44.416   3.619  11.554  0.00  0.00    +0.000 C 
BRANCH  21  22
ATOM     22  N   UNL     1      45.039   2.741  10.595  0.00  0.00    +0.000 N 
ATOM     23  C   UNL     1      45.042   3.038   9.254  0.00  0.00    +0.000 C 
ATOM     24  O   UNL     1      44.482   4.034   8.803  0.00  0.00    +0.000 OA
ATOM     25  H   UNL     1      45.511   1.912  10.947  0.00  0.00    +0.000 HD
BRANCH  23  26
ATOM     26  C   UNL     1      45.748   2.104   8.386  0.00  0.00    +0.000 A 
ATOM     27  C   UNL     1      45.758   0.734   8.590  0.00  0.00    +0.000 A 
ATOM     28  O   UNL     1      46.489   0.091   7.645  0.00  0.00    +0.000 OA
ATOM     29  C   UNL     1      46.974   1.037   6.797  0.00  0.00    +0.000 A 
ATOM     30  N   UNL     1      47.759   0.756   5.729  0.00  0.00    +0.000 NA
ATOM     31  C   UNL     1      48.118   1.804   5.063  0.00  0.00    +0.000 A 
ATOM     32  N   UNL     1      47.751   3.097   5.369  0.00  0.00    +0.000 N 
ATOM     33  C   UNL     1      46.946   3.415   6.440  0.00  0.00    +0.000 A 
ATOM     34  O   UNL     1      46.627   4.571   6.695  0.00  0.00    +0.000 OA
ATOM     35  C   UNL     1      46.539   2.281   7.215  0.00  0.00    +0.000 A 
ATOM     36  H   UNL     1      48.069   3.870   4.802  0.00  0.00    +0.000 HD
ENDBRANCH  23  26
ENDBRANCH  21  22
ENDBRANCH   4  21
TORSDOF 7
ENDMDL
MODEL 4
REMARK VINA RESULT:    -7.200      3.750      5.762
REMARK INTER + INTRA:         -11.399
REMARK INTER:                 -10.149
REMARK INTRA:                  -1.251
REMARK UNBOUND:                -1.253
REMARK  Name = 
REMARK  8 active torsions:
REMARK  status: ('A' for Active; 'I' for Inactive)
REMARK    1  A    between atoms: C_1  and  O_2
REMARK    2  A    between atoms: O_2  and  C_3
REMARK    3  A    between atoms: C_8  and  C_9
REMARK    4  A    between atoms: N_11  and  C_12
REMARK    5  A    between atoms: C_12  and  C_13
REMARK    6  A    between atoms: C_16  and  C_17
REMARK    7  A    between atoms: C_17  and  N_18
REMARK    8  A    between atoms: C_19  and  C_21
REMARK                            x       y       z     vdW  Elec       q    Type
REMARK                         _______ _______ _______ _____ _____    ______ ____
ROOT
ATOM      1  C   UNL     1      49.551   5.219  17.770  0.00  0.00    +0.000 A 
ATOM      2  C   UNL     1      50.361   6.237  17.247  0.00  0.00    +0.000 A 
ATOM      3  C   UNL     1      49.960   6.959  16.115  0.00  0.00    +0.000 A 
ATOM      4  C   UNL     1      48.727   6.701  15.498  0.00  0.00    +0.000 A 
ATOM      5  C   UNL     1      47.918   5.684  16.021  0.00  0.00    +0.000 A 
ATOM      6  C   UNL     1      48.329   4.965  17.146  0.00  0.00    +0.000 A 
ATOM      7  F   UNL     1      47.520   4.010  17.628  0.00  0.00    +0.000 F 
ENDROOT
BRANCH   1   8
ATOM      8  C   UNL     1      49.983   4.429  18.975  0.00  0.00    +0.000 C 
BRANCH   8  11
ATOM      9  C   UNL     1      51.392   2.752  17.806  0.00  0.00    +0.000 C 
ATOM     10  O   UNL     1      50.471   2.373  17.088  0.00  0.00    +0.000 OA
ATOM     11  N   UNL     1      51.227   3.731  18.756  0.00  0.00    +0.000 N 
ATOM     12  H   UNL     1      52.037   4.015  19.295  0.00  0.00    +0.000 HD
BRANCH   9  18
ATOM     13  C   UNL     1      53.974   2.898  17.690  0.00  0.00    +0.000 A 
ATOM     14  C   UNL     1      55.189   2.234  17.454  0.00  0.00    +0.000 A 
ATOM     15  C   UNL     1      55.223   0.859  17.216  0.00  0.00    +0.000 A 
ATOM     16  C   UNL     1      54.044   0.124  17.220  0.00  0.00    +0.000 A 
ATOM     17  C   UNL     1      52.827   0.771  17.435  0.00  0.00    +0.000 A 
ATOM     18  C   UNL     1      52.769   2.161  17.652  0.00  0.00    +0.000 A 
BRANCH  13  20
ATOM     19  C   UNL     1      54.462   5.143  17.009  0.00  0.00    +0.000 C 
ATOM     20  O   UNL     1      53.899   4.244  17.958  0.00  0.00    +0.000 OA
ENDBRANCH  13  20
ENDBRANCH   9  18
ENDBRANCH   8  11
ENDBRANCH   1   8
BRANCH   4  21
ATOM     21  C   UNL     1      48.282   7.492  14.295  0.00  0.00    +0.000 C 
BRANCH  21  22
ATOM     22  N   UNL     1      47.045   6.996  13.745  0.00  0.00    +0.000 N 
ATOM     23  C   UNL     1      46.921   6.719  12.405  0.00  0.00    +0.000 C 
ATOM     24  O   UNL     1      47.835   6.919  11.608  0.00  0.00    +0.000 OA
ATOM     25  H   UNL     1      46.277   6.822  14.387  0.00  0.00    +0.000 HD
BRANCH  23  26
ATOM     26  C   UNL     1      45.640   6.173  11.973  0.00  0.00    +0.000 A 
ATOM     27  C   UNL     1      44.682   6.918  11.306  0.00  0.00    +0.000 A 
ATOM     28  O   UNL     1      43.581   6.178  11.019  0.00  0.00    +0.000 OA
ATOM     29  C   UNL     1      43.804   4.923  11.496  0.00  0.00    +0.000 A 
ATOM     30  N   UNL     1      42.907   3.912  11.392  0.00  0.00    +0.000 NA
ATOM     31  C   UNL     1      43.316   2.805  11.922  0.00  0.00    +0.000 A 
ATOM     32  N   UNL     1      44.539   2.627  12.532  0.00  0.00    +0.000 N 
ATOM     33  C   UNL     1      45.475   3.631  12.644  0.00  0.00    +0.000 A 
ATOM     34  O   UNL     1      46.560   3.453  13.187  0.00  0.00    +0.000 OA
ATOM     35  C   UNL     1      45.054   4.880  12.083  0.00  0.00    +0.000 A 
ATOM     36  H   UNL     1      44.792   1.732  12.925  0.00  0.00    +0.000 HD
ENDBRANCH  23  26
ENDBRANCH  21  22
ENDBRANCH   4  21
TORSDOF 7
ENDMDL
MODEL 5
REMARK VINA RESULT:    -7.113      2.197      2.673
REMARK INTER + INTRA:         -11.276
REMARK INTER:                 -10.244
REMARK INTRA:                  -1.032
REMARK UNBOUND:                -1.253
REMARK  Name = 
REMARK  8 active torsions:
REMARK  status: ('A' for Active; 'I' for Inactive)
REMARK    1  A    between atoms: C_1  and  O_2
REMARK    2  A    between atoms: O_2  and  C_3
REMARK    3  A    between atoms: C_8  and  C_9
REMARK    4  A    between atoms: N_11  and  C_12
REMARK    5  A    between atoms: C_12  and  C_13
REMARK    6  A    between atoms: C_16  and  C_17
REMARK    7  A    between atoms: C_17  and  N_18
REMARK    8  A    between atoms: C_19  and  C_21
REMARK                            x       y       z     vdW  Elec       q    Type
REMARK                         _______ _______ _______ _____ _____    ______ ____
ROOT
ATOM      1  C   UNL     1      47.601   6.332  13.864  0.00  0.00    +0.000 A 
ATOM      2  C   UNL     1      46.991   6.765  12.679  0.00  0.00    +0.000 A 
ATOM      3  C   UNL     1      46.027   5.973  12.040  0.00  0.00    +0.000 A 
ATOM      4  C   UNL     1      45.630   4.743  12.588  0.00  0.00    +0.000 A 
ATOM      5  C   UNL     1      46.241   4.311  13.772  0.00  0.00    +0.000 A 
ATOM      6  C   UNL     1      47.204   5.105  14.398  0.00  0.00    +0.000 A 
ATOM      7  F   UNL     1      47.754   4.665  15.540  0.00  0.00    +0.000 F 
ENDROOT
BRANCH   1   8
ATOM      8  C   UNL     1      48.648   7.169  14.547  0.00  0.00    +0.000 C 
BRANCH   8  11
ATOM      9  C   UNL     1      48.856   7.914  16.906  0.00  0.00    +0.000 C 
ATOM     10  O   UNL     1      49.976   7.426  17.036  0.00  0.00    +0.000 OA
ATOM     11  N   UNL     1      48.144   7.814  15.735  0.00  0.00    +0.000 N 
ATOM     12  H   UNL     1      47.237   8.264  15.689  0.00  0.00    +0.000 HD
BRANCH   9  18
ATOM     13  C   UNL     1      47.817   8.103  19.269  0.00  0.00    +0.000 A 
ATOM     14  C   UNL     1      47.165   8.910  20.215  0.00  0.00    +0.000 A 
ATOM     15  C   UNL     1      46.942  10.266  19.972  0.00  0.00    +0.000 A 
ATOM     16  C   UNL     1      47.376  10.840  18.784  0.00  0.00    +0.000 A 
ATOM     17  C   UNL     1      48.009  10.049  17.825  0.00  0.00    +0.000 A 
ATOM     18  C   UNL     1      48.221   8.673  18.041  0.00  0.00    +0.000 A 
BRANCH  13  20
ATOM     19  C   UNL     1      47.034   5.838  19.244  0.00  0.00    +0.000 C 
ATOM     20  O   UNL     1      48.083   6.772  19.480  0.00  0.00    +0.000 OA
ENDBRANCH  13  20
ENDBRANCH   9  18
ENDBRANCH   8  11
ENDBRANCH   1   8
BRANCH   4  21
ATOM     21  C   UNL     1      44.577   3.900  11.915  0.00  0.00    +0.000 C 
BRANCH  21  22
ATOM     22  N   UNL     1      45.141   3.002  10.939  0.00  0.00    +0.000 N 
ATOM     23  C   UNL     1      44.884   3.153   9.598  0.00  0.00    +0.000 C 
ATOM     24  O   UNL     1      44.132   4.026   9.171  0.00  0.00    +0.000 OA
ATOM     25  H   UNL     1      45.768   2.273  11.270  0.00  0.00    +0.000 HD
BRANCH  23  26
ATOM     26  C   UNL     1      45.551   2.218   8.701  0.00  0.00    +0.000 A 
ATOM     27  C   UNL     1      45.416   0.843   8.798  0.00  0.00    +0.000 A 
ATOM     28  O   UNL     1      46.141   0.199   7.848  0.00  0.00    +0.000 OA
ATOM     29  C   UNL     1      46.768   1.151   7.106  0.00  0.00    +0.000 A 
ATOM     30  N   UNL     1      47.589   0.870   6.065  0.00  0.00    +0.000 NA
ATOM     31  C   UNL     1      48.089   1.923   5.504  0.00  0.00    +0.000 A 
ATOM     32  N   UNL     1      47.829   3.220   5.889  0.00  0.00    +0.000 N 
ATOM     33  C   UNL     1      46.991   3.539   6.934  0.00  0.00    +0.000 A 
ATOM     34  O   UNL     1      46.768   4.701   7.260  0.00  0.00    +0.000 OA
ATOM     35  C   UNL     1      46.429   2.399   7.594  0.00  0.00    +0.000 A 
ATOM     36  H   UNL     1      48.255   3.996   5.403  0.00  0.00    +0.000 HD
ENDBRANCH  23  26
ENDBRANCH  21  22
ENDBRANCH   4  21
TORSDOF 7
ENDMDL
MODEL 6
REMARK VINA RESULT:    -7.023      3.023      8.979
REMARK INTER + INTRA:         -11.150
REMARK INTER:                 -10.049
REMARK INTRA:                  -1.101
REMARK UNBOUND:                -1.253
REMARK  Name = 
REMARK  8 active torsions:
REMARK  status: ('A' for Active; 'I' for Inactive)
REMARK    1  A    between atoms: C_1  and  O_2
REMARK    2  A    between atoms: O_2  and  C_3
REMARK    3  A    between atoms: C_8  and  C_9
REMARK    4  A    between atoms: N_11  and  C_12
REMARK    5  A    between atoms: C_12  and  C_13
REMARK    6  A    between atoms: C_16  and  C_17
REMARK    7  A    between atoms: C_17  and  N_18
REMARK    8  A    between atoms: C_19  and  C_21
REMARK                            x       y       z     vdW  Elec       q    Type
REMARK                         _______ _______ _______ _____ _____    ______ ____
ROOT
ATOM      1  C   UNL     1      47.930   7.751  13.270  0.00  0.00    +0.000 A 
ATOM      2  C   UNL     1      48.095   6.537  13.950  0.00  0.00    +0.000 A 
ATOM      3  C   UNL     1      48.502   6.518  15.291  0.00  0.00    +0.000 A 
ATOM      4  C   UNL     1      48.726   7.713  15.990  0.00  0.00    +0.000 A 
ATOM      5  C   UNL     1      48.561   8.926  15.310  0.00  0.00    +0.000 A 
ATOM      6  C   UNL     1      48.160   8.935  13.972  0.00  0.00    +0.000 A 
ATOM      7  F   UNL     1      47.996  10.117  13.359  0.00  0.00    +0.000 F 
ENDROOT
BRANCH   1   8
ATOM      8  C   UNL     1      47.508   7.779  11.826  0.00  0.00    +0.000 C 
BRANCH   8  11
ATOM      9  C   UNL     1      45.592   6.395  11.068  0.00  0.00    +0.000 C 
ATOM     10  O   UNL     1      44.798   7.330  11.134  0.00  0.00    +0.000 OA
ATOM     11  N   UNL     1      46.917   6.533  11.404  0.00  0.00    +0.000 N 
ATOM     12  H   UNL     1      47.522   5.726  11.300  0.00  0.00    +0.000 HD
BRANCH   9  18
ATOM     13  C   UNL     1      44.513   4.065  11.390  0.00  0.00    +0.000 A 
ATOM     14  C   UNL     1      44.208   2.813  10.831  0.00  0.00    +0.000 A 
ATOM     15  C   UNL     1      44.482   2.538   9.490  0.00  0.00    +0.000 A 
ATOM     16  C   UNL     1      45.056   3.512   8.684  0.00  0.00    +0.000 A 
ATOM     17  C   UNL     1      45.382   4.754   9.227  0.00  0.00    +0.000 A 
ATOM     18  C   UNL     1      45.136   5.043  10.584  0.00  0.00    +0.000 A 
BRANCH  13  20
ATOM     19  C   UNL     1      42.950   4.930  12.987  0.00  0.00    +0.000 C 
ATOM     20  O   UNL     1      44.234   4.387  12.696  0.00  0.00    +0.000 OA
ENDBRANCH  13  20
ENDBRANCH   9  18
ENDBRANCH   8  11
ENDBRANCH   1   8
BRANCH   4  21
ATOM     21  C   UNL     1      49.142   7.697  17.440  0.00  0.00    +0.000 C 
BRANCH  21  22
ATOM     22  N   UNL     1      50.172   6.722  17.698  0.00  0.00    +0.000 N 
ATOM     23  C   UNL     1      49.898   5.554  18.369  0.00  0.00    +0.000 C 
ATOM     24  O   UNL     1      48.781   5.304  18.815  0.00  0.00    +0.000 OA
ATOM     25  H   UNL     1      51.103   6.908  17.335  0.00  0.00    +0.000 HD
BRANCH  23  26
ATOM     26  C   UNL     1      51.006   4.622  18.525  0.00  0.00    +0.000 A 
ATOM     27  C   UNL     1      52.145   4.909  19.259  0.00  0.00    +0.000 A 
ATOM     28  O   UNL     1      53.026   3.877  19.245  0.00  0.00    +0.000 OA
ATOM     29  C   UNL     1      52.472   2.886  18.496  0.00  0.00    +0.000 A 
ATOM     30  N   UNL     1      53.079   1.697  18.258  0.00  0.00    +0.000 NA
ATOM     31  C   UNL     1      52.382   0.903  17.513  0.00  0.00    +0.000 A 
ATOM     32  N   UNL     1      51.137   1.193  17.000  0.00  0.00    +0.000 N 
ATOM     33  C   UNL     1      50.489   2.386  17.232  0.00  0.00    +0.000 A 
ATOM     34  O   UNL     1      49.378   2.624  16.770  0.00  0.00    +0.000 OA
ATOM     35  C   UNL     1      51.235   3.302  18.041  0.00  0.00    +0.000 A 
ATOM     36  H   UNL     1      50.649   0.522  16.424  0.00  0.00    +0.000 HD
ENDBRANCH  23  26
ENDBRANCH  21  22
ENDBRANCH   4  21
TORSDOF 7
ENDMDL
MODEL 7
REMARK VINA RESULT:    -6.958      1.925      2.420
REMARK INTER + INTRA:         -11.058
REMARK INTER:                  -9.645
REMARK INTRA:                  -1.414
REMARK UNBOUND:                -1.253
REMARK  Name = 
REMARK  8 active torsions:
REMARK  status: ('A' for Active; 'I' for Inactive)
REMARK    1  A    between atoms: C_1  and  O_2
REMARK    2  A    between atoms: O_2  and  C_3
REMARK    3  A    between atoms: C_8  and  C_9
REMARK    4  A    between atoms: N_11  and  C_12
REMARK    5  A    between atoms: C_12  and  C_13
REMARK    6  A    between atoms: C_16  and  C_17
REMARK    7  A    between atoms: C_17  and  N_18
REMARK    8  A    between atoms: C_19  and  C_21
REMARK                            x       y       z     vdW  Elec       q    Type
REMARK                         _______ _______ _______ _____ _____    ______ ____
ROOT
ATOM      1  C   UNL     1      48.644   8.368  14.772  0.00  0.00    +0.000 A 
ATOM      2  C   UNL     1      48.098   9.475  14.108  0.00  0.00    +0.000 A 
ATOM      3  C   UNL     1      47.111   9.306  13.128  0.00  0.00    +0.000 A 
ATOM      4  C   UNL     1      46.625   8.029  12.811  0.00  0.00    +0.000 A 
ATOM      5  C   UNL     1      47.171   6.923  13.475  0.00  0.00    +0.000 A 
ATOM      6  C   UNL     1      48.158   7.101  14.446  0.00  0.00    +0.000 A 
ATOM      7  F   UNL     1      48.645   6.019  15.073  0.00  0.00    +0.000 F 
ENDROOT
BRANCH   1   8
ATOM      8  C   UNL     1      49.716   8.541  15.813  0.00  0.00    +0.000 C 
BRANCH   8  11
ATOM      9  C   UNL     1      48.389   8.638  17.910  0.00  0.00    +0.000 C 
ATOM     10  O   UNL     1      47.849   9.698  17.603  0.00  0.00    +0.000 OA
ATOM     11  N   UNL     1      49.316   8.027  17.101  0.00  0.00    +0.000 N 
ATOM     12  H   UNL     1      49.701   7.139  17.404  0.00  0.00    +0.000 HD
BRANCH   9  18
ATOM     13  C   UNL     1      47.679   6.581  19.311  0.00  0.00    +0.000 A 
ATOM     14  C   UNL     1      47.286   6.079  20.562  0.00  0.00    +0.000 A 
ATOM     15  C   UNL     1      47.267   6.897  21.693  0.00  0.00    +0.000 A 
ATOM     16  C   UNL     1      47.650   8.229  21.593  0.00  0.00    +0.000 A 
ATOM     17  C   UNL     1      48.025   8.749  20.354  0.00  0.00    +0.000 A 
ATOM     18  C   UNL     1      48.028   7.946  19.198  0.00  0.00    +0.000 A 
BRANCH  13  20
ATOM     19  C   UNL     1      48.574   4.649  18.211  0.00  0.00    +0.000 C 
ATOM     20  O   UNL     1      47.741   5.804  18.181  0.00  0.00    +0.000 OA
ENDBRANCH  13  20
ENDBRANCH   9  18
ENDBRANCH   8  11
ENDBRANCH   1   8
BRANCH   4  21
ATOM     21  C   UNL     1      45.546   7.846  11.774  0.00  0.00    +0.000 C 
BRANCH  21  22
ATOM     22  N   UNL     1      45.401   6.467  11.378  0.00  0.00    +0.000 N 
ATOM     23  C   UNL     1      44.163   5.916  11.152  0.00  0.00    +0.000 C 
ATOM     24  O   UNL     1      43.125   6.553  11.315  0.00  0.00    +0.000 OA
ATOM     25  H   UNL     1      46.248   5.923  11.236  0.00  0.00    +0.000 HD
BRANCH  23  26
ATOM     26  C   UNL     1      44.143   4.529  10.705  0.00  0.00    +0.000 A 
ATOM     27  C   UNL     1      43.367   3.549  11.301  0.00  0.00    +0.000 A 
ATOM     28  O   UNL     1      43.531   2.344  10.700  0.00  0.00    +0.000 OA
ATOM     29  C   UNL     1      44.426   2.516   9.691  0.00  0.00    +0.000 A 
ATOM     30  N   UNL     1      44.839   1.515   8.875  0.00  0.00    +0.000 NA
ATOM     31  C   UNL     1      45.700   1.894   7.989  0.00  0.00    +0.000 A 
ATOM     32  N   UNL     1      46.172   3.181   7.847  0.00  0.00    +0.000 N 
ATOM     33  C   UNL     1      45.765   4.222   8.652  0.00  0.00    +0.000 A 
ATOM     34  O   UNL     1      46.193   5.362   8.508  0.00  0.00    +0.000 OA
ATOM     35  C   UNL     1      44.821   3.840   9.660  0.00  0.00    +0.000 A 
ATOM     36  H   UNL     1      46.846   3.406   7.130  0.00  0.00    +0.000 HD
ENDBRANCH  23  26
ENDBRANCH  21  22
ENDBRANCH   4  21
TORSDOF 7
ENDMDL
MODEL 8
REMARK VINA RESULT:    -6.875      3.052      4.660
REMARK INTER + INTRA:         -10.941
REMARK INTER:                  -9.607
REMARK INTRA:                  -1.334
REMARK UNBOUND:                -1.253
REMARK  Name = 
REMARK  8 active torsions:
REMARK  status: ('A' for Active; 'I' for Inactive)
REMARK    1  A    between atoms: C_1  and  O_2
REMARK    2  A    between atoms: O_2  and  C_3
REMARK    3  A    between atoms: C_8  and  C_9
REMARK    4  A    between atoms: N_11  and  C_12
REMARK    5  A    between atoms: C_12  and  C_13
REMARK    6  A    between atoms: C_16  and  C_17
REMARK    7  A    between atoms: C_17  and  N_18
REMARK    8  A    between atoms: C_19  and  C_21
REMARK                            x       y       z     vdW  Elec       q    Type
REMARK                         _______ _______ _______ _____ _____    ______ ____
ROOT
ATOM      1  C   UNL     1      49.846   7.328  16.090  0.00  0.00    +0.000 A 
ATOM      2  C   UNL     1      50.369   8.371  15.314  0.00  0.00    +0.000 A 
ATOM      3  C   UNL     1      49.894   8.606  14.017  0.00  0.00    +0.000 A 
ATOM      4  C   UNL     1      48.865   7.820  13.476  0.00  0.00    +0.000 A 
ATOM      5  C   UNL     1      48.343   6.777  14.252  0.00  0.00    +0.000 A 
ATOM      6  C   UNL     1      48.827   6.548  15.542  0.00  0.00    +0.000 A 
ATOM      7  F   UNL     1      48.291   5.550  16.260  0.00  0.00    +0.000 F 
ENDROOT
BRANCH   1   8
ATOM      8  C   UNL     1      50.363   7.060  17.477  0.00  0.00    +0.000 C 
BRANCH   8  11
ATOM      9  C   UNL     1      50.679   4.720  18.245  0.00  0.00    +0.000 C 
ATOM     10  O   UNL     1      49.627   4.711  18.880  0.00  0.00    +0.000 OA
ATOM     11  N   UNL     1      51.109   5.827  17.555  0.00  0.00    +0.000 N 
ATOM     12  H   UNL     1      51.973   5.756  17.029  0.00  0.00    +0.000 HD
BRANCH   9  18
ATOM     13  C   UNL     1      52.839   3.377  18.721  0.00  0.00    +0.000 A 
ATOM     14  C   UNL     1      53.565   2.191  18.522  0.00  0.00    +0.000 A 
ATOM     15  C   UNL     1      53.008   1.114  17.830  0.00  0.00    +0.000 A 
ATOM     16  C   UNL     1      51.714   1.201  17.334  0.00  0.00    +0.000 A 
ATOM     17  C   UNL     1      50.986   2.379  17.506  0.00  0.00    +0.000 A 
ATOM     18  C   UNL     1      51.539   3.485  18.180  0.00  0.00    +0.000 A 
BRANCH  13  20
ATOM     19  C   UNL     1      53.364   4.360  20.842  0.00  0.00    +0.000 C 
ATOM     20  O   UNL     1      53.338   4.448  19.421  0.00  0.00    +0.000 OA
ENDBRANCH  13  20
ENDBRANCH   9  18
ENDBRANCH   8  11
ENDBRANCH   1   8
BRANCH   4  21
ATOM     21  C   UNL     1      48.336   8.085  12.090  0.00  0.00    +0.000 C 
BRANCH  21  22
ATOM     22  N   UNL     1      47.613   6.955  11.559  0.00  0.00    +0.000 N 
ATOM     23  C   UNL     1      46.240   6.952  11.497  0.00  0.00    +0.000 C 
ATOM     24  O   UNL     1      45.565   7.885  11.925  0.00  0.00    +0.000 OA
ATOM     25  H   UNL     1      48.153   6.173  11.198  0.00  0.00    +0.000 HD
BRANCH  23  26
ATOM     26  C   UNL     1      45.622   5.778  10.893  0.00  0.00    +0.000 A 
ATOM     27  C   UNL     1      45.699   5.489   9.541  0.00  0.00    +0.000 A 
ATOM     28  O   UNL     1      45.038   4.344   9.235  0.00  0.00    +0.000 OA
ATOM     29  C   UNL     1      44.514   3.859  10.392  0.00  0.00    +0.000 A 
ATOM     30  N   UNL     1      43.778   2.723  10.465  0.00  0.00    +0.000 NA
ATOM     31  C   UNL     1      43.369   2.450  11.660  0.00  0.00    +0.000 A 
ATOM     32  N   UNL     1      43.640   3.207  12.779  0.00  0.00    +0.000 N 
ATOM     33  C   UNL     1      44.393   4.360  12.741  0.00  0.00    +0.000 A 
ATOM     34  O   UNL     1      44.627   5.019  13.749  0.00  0.00    +0.000 OA
ATOM     35  C   UNL     1      44.853   4.707  11.430  0.00  0.00    +0.000 A 
ATOM     36  H   UNL     1      43.286   2.933  13.684  0.00  0.00    +0.000 HD
ENDBRANCH  23  26
ENDBRANCH  21  22
ENDBRANCH   4  21
TORSDOF 7
ENDMDL
MODEL 9
REMARK VINA RESULT:    -6.464      3.930      6.399
REMARK INTER + INTRA:         -10.362
REMARK INTER:                  -9.017
REMARK INTRA:                  -1.346
REMARK UNBOUND:                -1.253
REMARK  Name = 
REMARK  8 active torsions:
REMARK  status: ('A' for Active; 'I' for Inactive)
REMARK    1  A    between atoms: C_1  and  O_2
REMARK    2  A    between atoms: O_2  and  C_3
REMARK    3  A    between atoms: C_8  and  C_9
REMARK    4  A    between atoms: N_11  and  C_12
REMARK    5  A    between atoms: C_12  and  C_13
REMARK    6  A    between atoms: C_16  and  C_17
REMARK    7  A    between atoms: C_17  and  N_18
REMARK    8  A    between atoms: C_19  and  C_21
REMARK                            x       y       z     vdW  Elec       q    Type
REMARK                         _______ _______ _______ _____ _____    ______ ____
ROOT
ATOM      1  C   UNL     1      51.413   4.536  17.632  0.00  0.00    +0.000 A 
ATOM      2  C   UNL     1      50.460   5.521  17.342  0.00  0.00    +0.000 A 
ATOM      3  C   UNL     1      49.137   5.170  17.040  0.00  0.00    +0.000 A 
ATOM      4  C   UNL     1      48.732   3.827  17.048  0.00  0.00    +0.000 A 
ATOM      5  C   UNL     1      49.685   2.843  17.337  0.00  0.00    +0.000 A 
ATOM      6  C   UNL     1      51.002   3.203  17.632  0.00  0.00    +0.000 A 
ATOM      7  F   UNL     1      51.883   2.233  17.920  0.00  0.00    +0.000 F 
ENDROOT
BRANCH   1   8
ATOM      8  C   UNL     1      52.839   4.905  17.942  0.00  0.00    +0.000 C 
BRANCH   8  11
ATOM      9  C   UNL     1      52.974   6.225  20.040  0.00  0.00    +0.000 C 
ATOM     10  O   UNL     1      52.894   5.230  20.755  0.00  0.00    +0.000 OA
ATOM     11  N   UNL     1      52.937   6.148  18.669  0.00  0.00    +0.000 N 
ATOM     12  H   UNL     1      53.036   7.007  18.139  0.00  0.00    +0.000 HD
BRANCH   9  18
ATOM     13  C   UNL     1      52.305   8.699  20.401  0.00  0.00    +0.000 A 
ATOM     14  C   UNL     1      52.621   9.940  20.978  0.00  0.00    +0.000 A 
ATOM     15  C   UNL     1      53.727  10.082  21.817  0.00  0.00    +0.000 A 
ATOM     16  C   UNL     1      54.530   8.985  22.101  0.00  0.00    +0.000 A 
ATOM     17  C   UNL     1      54.241   7.749  21.521  0.00  0.00    +0.000 A 
ATOM     18  C   UNL     1      53.143   7.591  20.653  0.00  0.00    +0.000 A 
BRANCH  13  20
ATOM     19  C   UNL     1      49.945   8.318  20.222  0.00  0.00    +0.000 C 
ATOM     20  O   UNL     1      51.209   8.509  19.594  0.00  0.00    +0.000 OA
ENDBRANCH  13  20
ENDBRANCH   9  18
ENDBRANCH   8  11
ENDBRANCH   1   8
BRANCH   4  21
ATOM     21  C   UNL     1      47.304   3.447  16.745  0.00  0.00    +0.000 C 
BRANCH  21  22
ATOM     22  N   UNL     1      46.690   4.350  15.804  0.00  0.00    +0.000 N 
ATOM     23  C   UNL     1      46.715   4.098  14.453  0.00  0.00    +0.000 C 
ATOM     24  O   UNL     1      47.294   3.122  13.981  0.00  0.00    +0.000 OA
ATOM     25  H   UNL     1      46.203   5.162  16.173  0.00  0.00    +0.000 HD
BRANCH  23  26
ATOM     26  C   UNL     1      46.016   5.053  13.603  0.00  0.00    +0.000 A 
ATOM     27  C   UNL     1      46.450   6.353  13.403  0.00  0.00    +0.000 A 
ATOM     28  O   UNL     1      45.622   7.036  12.572  0.00  0.00    +0.000 OA
ATOM     29  C   UNL     1      44.623   6.186  12.211  0.00  0.00    +0.000 A 
ATOM     30  N   UNL     1      43.605   6.533  11.386  0.00  0.00    +0.000 NA
ATOM     31  C   UNL     1      42.759   5.577  11.182  0.00  0.00    +0.000 A 
ATOM     32  N   UNL     1      42.852   4.313  11.722  0.00  0.00    +0.000 N 
ATOM     33  C   UNL     1      43.880   3.925  12.553  0.00  0.00    +0.000 A 
ATOM     34  O   UNL     1      43.948   2.794  13.021  0.00  0.00    +0.000 OA
ATOM     35  C   UNL     1      44.832   4.962  12.818  0.00  0.00    +0.000 A 
ATOM     36  H   UNL     1      42.152   3.614  11.518  0.00  0.00    +0.000 HD
ENDBRANCH  23  26
ENDBRANCH  21  22
ENDBRANCH   4  21
TORSDOF 7
ENDMDL
