MODEL 1
REMARK VINA RESULT:    -8.176      0.000      0.000
REMARK INTER + INTRA:         -12.668
REMARK INTER:                 -11.522
REMARK INTRA:                  -1.146
REMARK UNBOUND:                -1.146
REMARK  Name = 
REMARK  8 active torsions:
REMARK  status: ('A' for Active; 'I' for Inactive)
REMARK    1  A    between atoms: C_1  and  C_2
REMARK    2  A    between atoms: C_2  and  N_3
REMARK    3  A    between atoms: C_2  and  C_11
REMARK    4  A    between atoms: N_3  and  C_4
REMARK    5  A    between atoms: C_4  and  C_5
REMARK    6  A    between atoms: C_14  and  C_15
REMARK    7  A    between atoms: C_15  and  N_16
REMARK    8  A    between atoms: C_17  and  C_19
REMARK                            x       y       z     vdW  Elec       q    Type
REMARK                         _______ _______ _______ _____ _____    ______ ____
ROOT
ATOM      1  C   UNL     1      44.967   5.011  11.953  0.00  0.00    +0.000 A 
ATOM      2  C   UNL     1      45.384   4.471  13.183  0.00  0.00    +0.000 A 
ATOM      3  C   UNL     1      46.531   4.936  13.826  0.00  0.00    +0.000 A 
ATOM      4  C   UNL     1      47.266   5.989  13.277  0.00  0.00    +0.000 A 
ATOM      5  C   UNL     1      46.882   6.510  12.036  0.00  0.00    +0.000 A 
ATOM      6  C   UNL     1      45.751   6.020  11.376  0.00  0.00    +0.000 A 
ENDROOT
BRANCH   1   8
ATOM      7  C   UNL     1      42.512   5.421  11.425  0.00  0.00    +0.000 C 
ATOM      8  C   UNL     1      43.707   4.464  11.292  0.00  0.00    +0.000 C 
BRANCH   8   9
ATOM      9  N   UNL     1      43.888   4.142   9.865  0.00  0.00    +0.000 NA
ATOM     10  H   UNL     1      44.575   4.780   9.464  0.00  0.00    +0.000 HD
BRANCH   9  11
ATOM     11  C   UNL     1      44.324   2.764   9.645  0.00  0.00    +0.000 C 
BRANCH  11  12
ATOM     12  C   UNL     1      45.434   2.663   8.638  0.00  0.00    +0.000 A 
ATOM     13  C   UNL     1      45.877   3.769   7.908  0.00  0.00    +0.000 A 
ATOM     14  C   UNL     1      46.879   3.607   6.956  0.00  0.00    +0.000 A 
ATOM     15  C   UNL     1      47.408   2.341   6.764  0.00  0.00    +0.000 A 
ATOM     16  N   UNL     1      47.008   1.248   7.448  0.00  0.00    +0.000 NA
ATOM     17  C   UNL     1      46.035   1.436   8.368  0.00  0.00    +0.000 A 
ENDBRANCH  11  12
ENDBRANCH   9  11
ENDBRANCH   8   9
ENDBRANCH   1   8
BRANCH   4  18
ATOM     18  C   UNL     1      48.454   6.555  14.003  0.00  0.00    +0.000 C 
BRANCH  18  19
ATOM     19  N   UNL     1      48.192   6.720  15.408  0.00  0.00    +0.000 N 
ATOM     20  C   UNL     1      49.135   6.460  16.365  0.00  0.00    +0.000 C 
ATOM     21  O   UNL     1      50.261   6.057  16.084  0.00  0.00    +0.000 OA
ATOM     22  H   UNL     1      47.224   6.865  15.679  0.00  0.00    +0.000 HD
BRANCH  20  23
ATOM     23  C   UNL     1      48.758   6.764  17.751  0.00  0.00    +0.000 A 
ATOM     24  C   UNL     1      48.482   8.078  18.106  0.00  0.00    +0.000 A 
ATOM     25  S   UNL     1      48.017   8.264  19.735  0.00  0.00    +0.000 S 
ATOM     26  C   UNL     1      48.211   6.601  20.037  0.00  0.00    +0.000 A 
ATOM     27  N   UNL     1      47.993   6.088  21.276  0.00  0.00    +0.000 NA
ATOM     28  C   UNL     1      48.212   4.818  21.374  0.00  0.00    +0.000 A 
ATOM     29  N   UNL     1      48.616   4.016  20.343  0.00  0.00    +0.000 N 
ATOM     30  C   UNL     1      48.789   4.476  19.061  0.00  0.00    +0.000 A 
ATOM     31  O   UNL     1      49.038   3.707  18.137  0.00  0.00    +0.000 OA
ATOM     32  C   UNL     1      48.599   5.909  18.903  0.00  0.00    +0.000 A 
ATOM     33  H   UNL     1      48.746   3.023  20.483  0.00  0.00    +0.000 HD
ENDBRANCH  20  23
ENDBRANCH  18  19
ENDBRANCH   4  18
TORSDOF 7
ENDMDL
MODEL 2
REMARK VINA RESULT:    -7.898      1.403      2.041
REMARK INTER + INTRA:         -12.276
REMARK INTER:                 -11.032
REMARK INTRA:                  -1.244
REMARK UNBOUND:                -1.146
REMARK  Name = 
REMARK  8 active torsions:
REMARK  status: ('A' for Active; 'I' for Inactive)
REMARK    1  A    between atoms: C_1  and  C_2
REMARK    2  A    between atoms: C_2  and  N_3
REMARK    3  A    between atoms: C_2  and  C_11
REMARK    4  A    between atoms: N_3  and  C_4
REMARK    5  A    between atoms: C_4  and  C_5
REMARK    6  A    between atoms: C_14  and  C_15
REMARK    7  A    between atoms: C_15  and  N_16
REMARK    8  A    between atoms: C_17  and  C_19
REMARK                            x       y       z     vdW  Elec       q    Type
REMARK                         _______ _______ _______ _____ _____    ______ ____
ROOT
ATOM      1  C   UNL     1      45.389   4.476  12.200  0.00  0.00    +0.000 A 
ATOM      2  C   UNL     1      45.953   3.925  13.365  0.00  0.00    +0.000 A 
ATOM      3  C   UNL     1      46.943   4.601  14.078  0.00  0.00    +0.000 A 
ATOM      4  C   UNL     1      47.361   5.871  13.671  0.00  0.00    +0.000 A 
ATOM      5  C   UNL     1      46.833   6.412  12.494  0.00  0.00    +0.000 A 
ATOM      6  C   UNL     1      45.866   5.719  11.761  0.00  0.00    +0.000 A 
ENDROOT
BRANCH   1   8
ATOM      7  C   UNL     1      43.468   4.588  10.536  0.00  0.00    +0.000 C 
ATOM      8  C   UNL     1      44.312   3.693  11.456  0.00  0.00    +0.000 C 
BRANCH   8   9
ATOM      9  N   UNL     1      44.849   2.578  10.657  0.00  0.00    +0.000 NA
ATOM     10  H   UNL     1      44.536   1.696  11.061  0.00  0.00    +0.000 HD
BRANCH   9  11
ATOM     11  C   UNL     1      44.441   2.637   9.254  0.00  0.00    +0.000 C 
BRANCH  11  12
ATOM     12  C   UNL     1      45.603   2.514   8.309  0.00  0.00    +0.000 A 
ATOM     13  C   UNL     1      46.034   3.582   7.519  0.00  0.00    +0.000 A 
ATOM     14  C   UNL     1      47.088   3.396   6.629  0.00  0.00    +0.000 A 
ATOM     15  C   UNL     1      47.679   2.146   6.558  0.00  0.00    +0.000 A 
ATOM     16  N   UNL     1      47.292   1.088   7.303  0.00  0.00    +0.000 NA
ATOM     17  C   UNL     1      46.268   1.299   8.160  0.00  0.00    +0.000 A 
ENDBRANCH  11  12
ENDBRANCH   9  11
ENDBRANCH   8   9
ENDBRANCH   1   8
BRANCH   4  18
ATOM     18  C   UNL     1      48.364   6.644  14.481  0.00  0.00    +0.000 C 
BRANCH  18  19
ATOM     19  N   UNL     1      48.159   6.468  15.893  0.00  0.00    +0.000 N 
ATOM     20  C   UNL     1      49.154   6.044  16.731  0.00  0.00    +0.000 C 
ATOM     21  O   UNL     1      50.283   5.775  16.326  0.00  0.00    +0.000 OA
ATOM     22  H   UNL     1      47.199   6.497  16.223  0.00  0.00    +0.000 HD
BRANCH  20  23
ATOM     23  C   UNL     1      48.828   6.002  18.162  0.00  0.00    +0.000 A 
ATOM     24  C   UNL     1      49.047   4.830  18.874  0.00  0.00    +0.000 A 
ATOM     25  S   UNL     1      48.660   4.952  20.529  0.00  0.00    +0.000 S 
ATOM     26  C   UNL     1      48.143   6.562  20.346  0.00  0.00    +0.000 A 
ATOM     27  N   UNL     1      47.653   7.262  21.403  0.00  0.00    +0.000 NA
ATOM     28  C   UNL     1      47.263   8.460  21.116  0.00  0.00    +0.000 A 
ATOM     29  N   UNL     1      47.331   9.023  19.872  0.00  0.00    +0.000 N 
ATOM     30  C   UNL     1      47.874   8.379  18.788  0.00  0.00    +0.000 A 
ATOM     31  O   UNL     1      48.026   8.957  17.715  0.00  0.00    +0.000 OA
ATOM     32  C   UNL     1      48.289   7.010  19.044  0.00  0.00    +0.000 A 
ATOM     33  H   UNL     1      47.030   9.976  19.721  0.00  0.00    +0.000 HD
ENDBRANCH  20  23
ENDBRANCH  18  19
ENDBRANCH   4  18
TORSDOF 7
ENDMDL
MODEL 3
REMARK VINA RESULT:    -7.372      2.047      2.700
REMARK INTER + INTRA:         -11.535
REMARK INTER:                 -10.251
REMARK INTRA:                  -1.284
REMARK UNBOUND:                -1.146
REMARK  Name = 
REMARK  8 active torsions:
REMARK  status: ('A' for Active; 'I' for Inactive)
REMARK    1  A    between atoms: C_1  and  C_2
REMARK    2  A    between atoms: C_2  and  N_3
REMARK    3  A    between atoms: C_2  and  C_11
REMARK    4  A    between atoms: N_3  and  C_4
REMARK    5  A    between atoms: C_4  and  C_5
REMARK    6  A    between atoms: C_14  and  C_15
REMARK    7  A    between atoms: C_15  and  N_16
REMARK    8  A    between atoms: C_17  and  C_19
REMARK                            x       y       z     vdW  Elec       q    Type
REMARK                         _______ _______ _______ _____ _____    ______ ____
ROOT
ATOM      1  C   UNL     1      45.265   5.222  12.009  0.00  0.00    +0.000 A 
ATOM      2  C   UNL     1      45.758   6.135  11.058  0.00  0.00    +0.000 A 
ATOM      3  C   UNL     1      46.875   6.925  11.325  0.00  0.00    +0.000 A 
ATOM      4  C   UNL     1      47.559   6.790  12.536  0.00  0.00    +0.000 A 
ATOM      5  C   UNL     1      47.056   5.912  13.504  0.00  0.00    +0.000 A 
ATOM      6  C   UNL     1      45.917   5.145  13.248  0.00  0.00    +0.000 A 
ENDROOT
BRANCH   1   8
ATOM      7  C   UNL     1      42.731   5.036  12.145  0.00  0.00    +0.000 C 
ATOM      8  C   UNL     1      44.038   4.384  11.666  0.00  0.00    +0.000 C 
BRANCH   8   9
ATOM      9  N   UNL     1      43.914   4.095  10.226  0.00  0.00    +0.000 NA
ATOM     10  H   UNL     1      44.463   4.773   9.700  0.00  0.00    +0.000 HD
BRANCH   9  11
ATOM     11  C   UNL     1      44.353   2.744   9.879  0.00  0.00    +0.000 C 
BRANCH  11  12
ATOM     12  C   UNL     1      45.339   2.732   8.744  0.00  0.00    +0.000 A 
ATOM     13  C   UNL     1      46.041   1.580   8.384  0.00  0.00    +0.000 A 
ATOM     14  C   UNL     1      46.974   1.639   7.353  0.00  0.00    +0.000 A 
ATOM     15  C   UNL     1      47.175   2.851   6.714  0.00  0.00    +0.000 A 
ATOM     16  N   UNL     1      46.518   3.987   7.033  0.00  0.00    +0.000 NA
ATOM     17  C   UNL     1      45.616   3.898   8.035  0.00  0.00    +0.000 A 
ENDBRANCH  11  12
ENDBRANCH   9  11
ENDBRANCH   8   9
ENDBRANCH   1   8
BRANCH   4  18
ATOM     18  C   UNL     1      48.813   7.575  12.800  0.00  0.00    +0.000 C 
BRANCH  18  19
ATOM     19  N   UNL     1      49.621   6.963  13.821  0.00  0.00    +0.000 N 
ATOM     20  C   UNL     1      50.338   7.698  14.727  0.00  0.00    +0.000 C 
ATOM     21  O   UNL     1      50.345   8.927  14.716  0.00  0.00    +0.000 OA
ATOM     22  H   UNL     1      49.787   5.965  13.737  0.00  0.00    +0.000 HD
BRANCH  20  23
ATOM     23  C   UNL     1      51.040   6.941  15.770  0.00  0.00    +0.000 A 
ATOM     24  C   UNL     1      52.423   7.023  15.854  0.00  0.00    +0.000 A 
ATOM     25  S   UNL     1      53.087   6.124  17.140  0.00  0.00    +0.000 S 
ATOM     26  C   UNL     1      51.552   5.555  17.605  0.00  0.00    +0.000 A 
ATOM     27  N   UNL     1      51.414   4.698  18.651  0.00  0.00    +0.000 NA
ATOM     28  C   UNL     1      50.199   4.317  18.873  0.00  0.00    +0.000 A 
ATOM     29  N   UNL     1      49.113   4.726  18.151  0.00  0.00    +0.000 N 
ATOM     30  C   UNL     1      49.193   5.638  17.128  0.00  0.00    +0.000 A 
ATOM     31  O   UNL     1      48.183   6.071  16.580  0.00  0.00    +0.000 OA
ATOM     32  C   UNL     1      50.545   6.066  16.807  0.00  0.00    +0.000 A 
ATOM     33  H   UNL     1      48.184   4.408  18.394  0.00  0.00    +0.000 HD
ENDBRANCH  20  23
ENDBRANCH  18  19
ENDBRANCH   4  18
TORSDOF 7
ENDMDL
MODEL 4
REMARK VINA RESULT:    -7.291      3.516      8.565
REMARK INTER + INTRA:         -11.420
REMARK INTER:                  -9.716
REMARK INTRA:                  -1.704
REMARK UNBOUND:                -1.146
REMARK  Name = 
REMARK  8 active torsions:
REMARK  status: ('A' for Active; 'I' for Inactive)
REMARK    1  A    between atoms: C_1  and  C_2
REMARK    2  A    between atoms: C_2  and  N_3
REMARK    3  A    between atoms: C_2  and  C_11
REMARK    4  A    between atoms: N_3  and  C_4
REMARK    5  A    between atoms: C_4  and  C_5
REMARK    6  A    between atoms: C_14  and  C_15
REMARK    7  A    between atoms: C_15  and  N_16
REMARK    8  A    between atoms: C_17  and  C_19
REMARK                            x       y       z     vdW  Elec       q    Type
REMARK                         _______ _______ _______ _____ _____    ______ ____
ROOT
ATOM      1  C   UNL     1      48.847   7.938  16.183  0.00  0.00    +0.000 A 
ATOM      2  C   UNL     1      48.412   9.120  15.556  0.00  0.00    +0.000 A 
ATOM      3  C   UNL     1      48.286   9.198  14.169  0.00  0.00    +0.000 A 
ATOM      4  C   UNL     1      48.548   8.079  13.375  0.00  0.00    +0.000 A 
ATOM      5  C   UNL     1      49.017   6.910  13.984  0.00  0.00    +0.000 A 
ATOM      6  C   UNL     1      49.175   6.843  15.371  0.00  0.00    +0.000 A 
ENDROOT
BRANCH   1   8
ATOM      7  C   UNL     1      49.349   9.278  18.287  0.00  0.00    +0.000 C 
ATOM      8  C   UNL     1      48.970   7.907  17.702  0.00  0.00    +0.000 C 
BRANCH   8   9
ATOM      9  N   UNL     1      47.748   7.435  18.377  0.00  0.00    +0.000 NA
ATOM     10  H   UNL     1      47.040   7.222  17.675  0.00  0.00    +0.000 HD
BRANCH   9  11
ATOM     11  C   UNL     1      47.978   6.252  19.205  0.00  0.00    +0.000 C 
BRANCH  11  12
ATOM     12  C   UNL     1      48.072   4.990  18.395  0.00  0.00    +0.000 A 
ATOM     13  C   UNL     1      49.263   4.270  18.277  0.00  0.00    +0.000 A 
ATOM     14  C   UNL     1      49.301   3.132  17.477  0.00  0.00    +0.000 A 
ATOM     15  C   UNL     1      48.144   2.749  16.819  0.00  0.00    +0.000 A 
ATOM     16  N   UNL     1      46.974   3.418  16.905  0.00  0.00    +0.000 NA
ATOM     17  C   UNL     1      46.966   4.517  17.692  0.00  0.00    +0.000 A 
ENDBRANCH  11  12
ENDBRANCH   9  11
ENDBRANCH   8   9
ENDBRANCH   1   8
BRANCH   4  18
ATOM     18  C   UNL     1      48.333   8.128  11.888  0.00  0.00    +0.000 C 
BRANCH  18  19
ATOM     19  N   UNL     1      47.603   6.982  11.416  0.00  0.00    +0.000 N 
ATOM     20  C   UNL     1      46.235   6.933  11.417  0.00  0.00    +0.000 C 
ATOM     21  O   UNL     1      45.546   7.862  11.832  0.00  0.00    +0.000 OA
ATOM     22  H   UNL     1      48.138   6.135  11.249  0.00  0.00    +0.000 HD
BRANCH  20  23
ATOM     23  C   UNL     1      45.626   5.739  10.818  0.00  0.00    +0.000 A 
ATOM     24  C   UNL     1      45.781   5.508   9.458  0.00  0.00    +0.000 A 
ATOM     25  S   UNL     1      45.054   4.062   8.922  0.00  0.00    +0.000 S 
ATOM     26  C   UNL     1      44.467   3.716  10.480  0.00  0.00    +0.000 A 
ATOM     27  N   UNL     1      43.720   2.604  10.712  0.00  0.00    +0.000 NA
ATOM     28  C   UNL     1      43.309   2.482  11.931  0.00  0.00    +0.000 A 
ATOM     29  N   UNL     1      43.588   3.363  12.938  0.00  0.00    +0.000 N 
ATOM     30  C   UNL     1      44.389   4.465  12.767  0.00  0.00    +0.000 A 
ATOM     31  O   UNL     1      44.714   5.169  13.719  0.00  0.00    +0.000 OA
ATOM     32  C   UNL     1      44.843   4.676  11.403  0.00  0.00    +0.000 A 
ATOM     33  H   UNL     1      43.254   3.195  13.877  0.00  0.00    +0.000 HD
ENDBRANCH  20  23
ENDBRANCH  18  19
ENDBRANCH   4  18
TORSDOF 7
ENDMDL
MODEL 5
REMARK VINA RESULT:    -7.251      3.240      8.959
REMARK INTER + INTRA:         -11.365
REMARK INTER:                  -9.701
REMARK INTRA:                  -1.664
REMARK UNBOUND:                -1.146
REMARK  Name = 
REMARK  8 active torsions:
REMARK  status: ('A' for Active; 'I' for Inactive)
REMARK    1  A    between atoms: C_1  and  C_2
REMARK    2  A    between atoms: C_2  and  N_3
REMARK    3  A    between atoms: C_2  and  C_11
REMARK    4  A    between atoms: N_3  and  C_4
REMARK    5  A    between atoms: C_4  and  C_5
REMARK    6  A    between atoms: C_14  and  C_15
REMARK    7  A    between atoms: C_15  and  N_16
REMARK    8  A    between atoms: C_17  and  C_19
REMARK                            x       y       z     vdW  Elec       q    Type
REMARK                         _______ _______ _______ _____ _____    ______ ____
ROOT
ATOM      1  C   UNL     1      48.843   8.136  16.547  0.00  0.00    +0.000 A 
ATOM      2  C   UNL     1      48.111   9.126  15.865  0.00  0.00    +0.000 A 
ATOM      3  C   UNL     1      47.840   9.013  14.501  0.00  0.00    +0.000 A 
ATOM      4  C   UNL     1      48.254   7.882  13.793  0.00  0.00    +0.000 A 
ATOM      5  C   UNL     1      49.014   6.910  14.453  0.00  0.00    +0.000 A 
ATOM      6  C   UNL     1      49.314   7.040  15.812  0.00  0.00    +0.000 A 
ENDROOT
BRANCH   1   8
ATOM      7  C   UNL     1      47.873   8.796  18.805  0.00  0.00    +0.000 C 
ATOM      8  C   UNL     1      49.114   8.311  18.038  0.00  0.00    +0.000 C 
BRANCH   8   9
ATOM      9  N   UNL     1      49.614   7.086  18.687  0.00  0.00    +0.000 NA
ATOM     10  H   UNL     1      50.244   7.345  19.445  0.00  0.00    +0.000 HD
BRANCH   9  11
ATOM     11  C   UNL     1      48.541   6.245  19.216  0.00  0.00    +0.000 C 
BRANCH  11  12
ATOM     12  C   UNL     1      48.360   4.978  18.428  0.00  0.00    +0.000 A 
ATOM     13  C   UNL     1      49.418   4.102  18.176  0.00  0.00    +0.000 A 
ATOM     14  C   UNL     1      49.200   2.967  17.402  0.00  0.00    +0.000 A 
ATOM     15  C   UNL     1      47.928   2.742  16.904  0.00  0.00    +0.000 A 
ATOM     16  N   UNL     1      46.879   3.564  17.123  0.00  0.00    +0.000 NA
ATOM     17  C   UNL     1      47.120   4.657  17.881  0.00  0.00    +0.000 A 
ENDBRANCH  11  12
ENDBRANCH   9  11
ENDBRANCH   8   9
ENDBRANCH   1   8
BRANCH   4  18
ATOM     18  C   UNL     1      47.893   7.711  12.344  0.00  0.00    +0.000 C 
BRANCH  18  19
ATOM     19  N   UNL     1      47.123   6.516  12.123  0.00  0.00    +0.000 N 
ATOM     20  C   UNL     1      45.758   6.494  12.223  0.00  0.00    +0.000 C 
ATOM     21  O   UNL     1      45.106   7.492  12.519  0.00  0.00    +0.000 OA
ATOM     22  H   UNL     1      47.639   5.643  12.067  0.00  0.00    +0.000 HD
BRANCH  20  23
ATOM     23  C   UNL     1      45.100   5.228  11.878  0.00  0.00    +0.000 A 
ATOM     24  C   UNL     1      44.398   4.539  12.857  0.00  0.00    +0.000 A 
ATOM     25  S   UNL     1      43.655   3.113  12.292  0.00  0.00    +0.000 S 
ATOM     26  C   UNL     1      44.283   3.340  10.728  0.00  0.00    +0.000 A 
ATOM     27  N   UNL     1      44.039   2.439   9.741  0.00  0.00    +0.000 NA
ATOM     28  C   UNL     1      44.606   2.716   8.613  0.00  0.00    +0.000 A 
ATOM     29  N   UNL     1      45.381   3.817   8.382  0.00  0.00    +0.000 N 
ATOM     30  C   UNL     1      45.605   4.787   9.328  0.00  0.00    +0.000 A 
ATOM     31  O   UNL     1      46.209   5.820   9.050  0.00  0.00    +0.000 OA
ATOM     32  C   UNL     1      45.027   4.504  10.631  0.00  0.00    +0.000 A 
ATOM     33  H   UNL     1      45.776   3.986   7.466  0.00  0.00    +0.000 HD
ENDBRANCH  20  23
ENDBRANCH  18  19
ENDBRANCH   4  18
TORSDOF 7
ENDMDL
MODEL 6
REMARK VINA RESULT:    -7.070      4.839      9.705
REMARK INTER + INTRA:         -11.109
REMARK INTER:                 -10.019
REMARK INTRA:                  -1.090
REMARK UNBOUND:                -1.146
REMARK  Name = 
REMARK  8 active torsions:
REMARK  status: ('A' for Active; 'I' for Inactive)
REMARK    1  A    between atoms: C_1  and  C_2
REMARK    2  A    between atoms: C_2  and  N_3
REMARK    3  A    between atoms: C_2  and  C_11
REMARK    4  A    between atoms: N_3  and  C_4
REMARK    5  A    between atoms: C_4  and  C_5
REMARK    6  A    between atoms: C_14  and  C_15
REMARK    7  A    between atoms: C_15  and  N_16
REMARK    8  A    between atoms: C_17  and  C_19
REMARK                            x       y       z     vdW  Elec       q    Type
REMARK                         _______ _______ _______ _____ _____    ______ ____
ROOT
ATOM      1  C   UNL     1      51.441   3.555  18.074  0.00  0.00    +0.000 A 
ATOM      2  C   UNL     1      50.577   4.651  18.260  0.00  0.00    +0.000 A 
ATOM      3  C   UNL     1      49.251   4.607  17.829  0.00  0.00    +0.000 A 
ATOM      4  C   UNL     1      48.740   3.447  17.243  0.00  0.00    +0.000 A 
ATOM      5  C   UNL     1      49.599   2.365  17.020  0.00  0.00    +0.000 A 
ATOM      6  C   UNL     1      50.937   2.422  17.421  0.00  0.00    +0.000 A 
ENDROOT
BRANCH   1   8
ATOM      7  C   UNL     1      53.104   4.865  19.485  0.00  0.00    +0.000 C 
ATOM      8  C   UNL     1      52.882   3.657  18.561  0.00  0.00    +0.000 C 
BRANCH   8   9
ATOM      9  N   UNL     1      53.349   2.446  19.258  0.00  0.00    +0.000 NA
ATOM     10  H   UNL     1      52.736   1.667  19.022  0.00  0.00    +0.000 HD
BRANCH   9  11
ATOM     11  C   UNL     1      54.728   2.094  18.922  0.00  0.00    +0.000 C 
BRANCH  11  12
ATOM     12  C   UNL     1      54.832   0.760  18.238  0.00  0.00    +0.000 A 
ATOM     13  C   UNL     1      54.756   0.630  16.849  0.00  0.00    +0.000 A 
ATOM     14  C   UNL     1      54.815  -0.635  16.274  0.00  0.00    +0.000 A 
ATOM     15  C   UNL     1      54.949  -1.733  17.107  0.00  0.00    +0.000 A 
ATOM     16  N   UNL     1      55.025  -1.651  18.452  0.00  0.00    +0.000 NA
ATOM     17  C   UNL     1      54.968  -0.409  18.983  0.00  0.00    +0.000 A 
ENDBRANCH  11  12
ENDBRANCH   9  11
ENDBRANCH   8   9
ENDBRANCH   1   8
BRANCH   4  18
ATOM     18  C   UNL     1      47.291   3.359  16.854  0.00  0.00    +0.000 C 
BRANCH  18  19
ATOM     19  N   UNL     1      46.938   4.358  15.880  0.00  0.00    +0.000 N 
ATOM     20  C   UNL     1      46.976   4.114  14.534  0.00  0.00    +0.000 C 
ATOM     21  O   UNL     1      47.326   3.030  14.073  0.00  0.00    +0.000 OA
ATOM     22  H   UNL     1      46.832   5.309  16.218  0.00  0.00    +0.000 HD
BRANCH  20  23
ATOM     23  C   UNL     1      46.498   5.195  13.663  0.00  0.00    +0.000 A 
ATOM     24  C   UNL     1      47.302   6.309  13.460  0.00  0.00    +0.000 A 
ATOM     25  S   UNL     1      46.630   7.454  12.392  0.00  0.00    +0.000 S 
ATOM     26  C   UNL     1      45.219   6.523  12.197  0.00  0.00    +0.000 A 
ATOM     27  N   UNL     1      44.201   6.959  11.409  0.00  0.00    +0.000 NA
ATOM     28  C   UNL     1      43.176   6.172  11.378  0.00  0.00    +0.000 A 
ATOM     29  N   UNL     1      43.084   4.987  12.053  0.00  0.00    +0.000 N 
ATOM     30  C   UNL     1      44.110   4.476  12.809  0.00  0.00    +0.000 A 
ATOM     31  O   UNL     1      44.037   3.354  13.305  0.00  0.00    +0.000 OA
ATOM     32  C   UNL     1      45.272   5.342  12.915  0.00  0.00    +0.000 A 
ATOM     33  H   UNL     1      42.261   4.407  11.966  0.00  0.00    +0.000 HD
ENDBRANCH  20  23
ENDBRANCH  18  19
ENDBRANCH   4  18
TORSDOF 7
ENDMDL
MODEL 7
REMARK VINA RESULT:    -7.058      3.509      8.563
REMARK INTER + INTRA:         -11.091
REMARK INTER:                  -9.055
REMARK INTRA:                  -2.036
REMARK UNBOUND:                -1.146
REMARK  Name = 
REMARK  8 active torsions:
REMARK  status: ('A' for Active; 'I' for Inactive)
REMARK    1  A    between atoms: C_1  and  C_2
REMARK    2  A    between atoms: C_2  and  N_3
REMARK    3  A    between atoms: C_2  and  C_11
REMARK    4  A    between atoms: N_3  and  C_4
REMARK    5  A    between atoms: C_4  and  C_5
REMARK    6  A    between atoms: C_14  and  C_15
REMARK    7  A    between atoms: C_15  and  N_16
REMARK    8  A    between atoms: C_17  and  C_19
REMARK                            x       y       z     vdW  Elec       q    Type
REMARK                         _______ _______ _______ _____ _____    ______ ____
ROOT
ATOM      1  C   UNL     1      50.004   6.791  18.561  0.00  0.00    +0.000 A 
ATOM      2  C   UNL     1      48.923   7.689  18.496  0.00  0.00    +0.000 A 
ATOM      3  C   UNL     1      48.497   8.222  17.279  0.00  0.00    +0.000 A 
ATOM      4  C   UNL     1      49.113   7.832  16.087  0.00  0.00    +0.000 A 
ATOM      5  C   UNL     1      50.213   6.968  16.144  0.00  0.00    +0.000 A 
ATOM      6  C   UNL     1      50.660   6.461  17.367  0.00  0.00    +0.000 A 
ENDROOT
BRANCH   1   8
ATOM      7  C   UNL     1      49.640   6.868  21.078  0.00  0.00    +0.000 C 
ATOM      8  C   UNL     1      50.430   6.241  19.918  0.00  0.00    +0.000 C 
BRANCH   8   9
ATOM      9  N   UNL     1      50.316   4.775  20.016  0.00  0.00    +0.000 NA
ATOM     10  H   UNL     1      50.709   4.468  20.904  0.00  0.00    +0.000 HD
BRANCH   9  11
ATOM     11  C   UNL     1      48.936   4.305  19.910  0.00  0.00    +0.000 C 
BRANCH  11  12
ATOM     12  C   UNL     1      48.593   3.826  18.527  0.00  0.00    +0.000 A 
ATOM     13  C   UNL     1      47.430   4.230  17.868  0.00  0.00    +0.000 A 
ATOM     14  C   UNL     1      47.143   3.719  16.607  0.00  0.00    +0.000 A 
ATOM     15  C   UNL     1      48.031   2.819  16.042  0.00  0.00    +0.000 A 
ATOM     16  N   UNL     1      49.164   2.402  16.645  0.00  0.00    +0.000 NA
ATOM     17  C   UNL     1      49.419   2.918  17.869  0.00  0.00    +0.000 A 
ENDBRANCH  11  12
ENDBRANCH   9  11
ENDBRANCH   8   9
ENDBRANCH   1   8
BRANCH   4  18
ATOM     18  C   UNL     1      48.607   8.333  14.764  0.00  0.00    +0.000 C 
BRANCH  18  19
ATOM     19  N   UNL     1      47.567   7.492  14.236  0.00  0.00    +0.000 N 
ATOM     20  C   UNL     1      47.814   6.510  13.316  0.00  0.00    +0.000 C 
ATOM     21  O   UNL     1      48.940   6.294  12.874  0.00  0.00    +0.000 OA
ATOM     22  H   UNL     1      46.610   7.769  14.434  0.00  0.00    +0.000 HD
BRANCH  20  23
ATOM     23  C   UNL     1      46.673   5.667  12.939  0.00  0.00    +0.000 A 
ATOM     24  C   UNL     1      46.749   4.294  13.132  0.00  0.00    +0.000 A 
ATOM     25  S   UNL     1      45.332   3.460  12.688  0.00  0.00    +0.000 S 
ATOM     26  C   UNL     1      44.580   4.898  12.178  0.00  0.00    +0.000 A 
ATOM     27  N   UNL     1      43.327   4.881  11.653  0.00  0.00    +0.000 NA
ATOM     28  C   UNL     1      42.890   6.037  11.274  0.00  0.00    +0.000 A 
ATOM     29  N   UNL     1      43.589   7.206  11.386  0.00  0.00    +0.000 N 
ATOM     30  C   UNL     1      44.831   7.284  11.966  0.00  0.00    +0.000 A 
ATOM     31  O   UNL     1      45.379   8.366  12.156  0.00  0.00    +0.000 OA
ATOM     32  C   UNL     1      45.389   6.004  12.371  0.00  0.00    +0.000 A 
ATOM     33  H   UNL     1      43.178   8.082  11.091  0.00  0.00    +0.000 HD
ENDBRANCH  20  23
ENDBRANCH  18  19
ENDBRANCH   4  18
TORSDOF 7
ENDMDL
MODEL 8
REMARK VINA RESULT:    -6.714      4.538      6.639
REMARK INTER + INTRA:         -10.607
REMARK INTER:                  -9.277
REMARK INTRA:                  -1.330
REMARK UNBOUND:                -1.146
REMARK  Name = 
REMARK  8 active torsions:
REMARK  status: ('A' for Active; 'I' for Inactive)
REMARK    1  A    between atoms: C_1  and  C_2
REMARK    2  A    between atoms: C_2  and  N_3
REMARK    3  A    between atoms: C_2  and  C_11
REMARK    4  A    between atoms: N_3  and  C_4
REMARK    5  A    between atoms: C_4  and  C_5
REMARK    6  A    between atoms: C_14  and  C_15
REMARK    7  A    between atoms: C_15  and  N_16
REMARK    8  A    between atoms: C_17  and  C_19
REMARK                            x       y       z     vdW  Elec       q    Type
REMARK                         _______ _______ _______ _____ _____    ______ ____
ROOT
ATOM      1  C   UNL     1      45.225   5.032  12.745  0.00  0.00    +0.000 A 
ATOM      2  C   UNL     1      46.262   4.560  13.570  0.00  0.00    +0.000 A 
ATOM      3  C   UNL     1      47.405   5.325  13.804  0.00  0.00    +0.000 A 
ATOM      4  C   UNL     1      47.518   6.606  13.256  0.00  0.00    +0.000 A 
ATOM      5  C   UNL     1      46.509   7.070  12.405  0.00  0.00    +0.000 A 
ATOM      6  C   UNL     1      45.380   6.289  12.144  0.00  0.00    +0.000 A 
ENDROOT
BRANCH   1   8
ATOM      7  C   UNL     1      42.790   4.954  12.011  0.00  0.00    +0.000 C 
ATOM      8  C   UNL     1      43.999   4.154  12.521  0.00  0.00    +0.000 C 
BRANCH   8   9
ATOM      9  N   UNL     1      44.243   3.037  11.591  0.00  0.00    +0.000 NA
ATOM     10  H   UNL     1      43.788   2.199  11.950  0.00  0.00    +0.000 HD
BRANCH   9  11
ATOM     11  C   UNL     1      43.759   3.308  10.239  0.00  0.00    +0.000 C 
BRANCH  11  12
ATOM     12  C   UNL     1      44.830   3.142   9.198  0.00  0.00    +0.000 A 
ATOM     13  C   UNL     1      45.389   1.897   8.899  0.00  0.00    +0.000 A 
ATOM     14  C   UNL     1      46.409   1.811   7.957  0.00  0.00    +0.000 A 
ATOM     15  C   UNL     1      46.839   2.974   7.342  0.00  0.00    +0.000 A 
ATOM     16  N   UNL     1      46.327   4.196   7.603  0.00  0.00    +0.000 NA
ATOM     17  C   UNL     1      45.335   4.249   8.520  0.00  0.00    +0.000 A 
ENDBRANCH  11  12
ENDBRANCH   9  11
ENDBRANCH   8   9
ENDBRANCH   1   8
BRANCH   4  18
ATOM     18  C   UNL     1      48.705   7.472  13.571  0.00  0.00    +0.000 C 
BRANCH  18  19
ATOM     19  N   UNL     1      49.025   8.357  12.483  0.00  0.00    +0.000 N 
ATOM     20  C   UNL     1      48.924   9.718  12.591  0.00  0.00    +0.000 C 
ATOM     21  O   UNL     1      48.543  10.267  13.622  0.00  0.00    +0.000 OA
ATOM     22  H   UNL     1      49.156   7.931  11.571  0.00  0.00    +0.000 HD
BRANCH  20  23
ATOM     23  C   UNL     1      49.374  10.498  11.432  0.00  0.00    +0.000 A 
ATOM     24  C   UNL     1      48.488  11.374  10.818  0.00  0.00    +0.000 A 
ATOM     25  S   UNL     1      49.170  12.237   9.516  0.00  0.00    +0.000 S 
ATOM     26  C   UNL     1      50.661  11.439   9.697  0.00  0.00    +0.000 A 
ATOM     27  N   UNL     1      51.699  11.702   8.860  0.00  0.00    +0.000 NA
ATOM     28  C   UNL     1      52.760  10.999   9.086  0.00  0.00    +0.000 A 
ATOM     29  N   UNL     1      52.878  10.069  10.081  0.00  0.00    +0.000 N 
ATOM     30  C   UNL     1      51.882   9.814  10.990  0.00  0.00    +0.000 A 
ATOM     31  O   UNL     1      52.065   9.058  11.940  0.00  0.00    +0.000 OA
ATOM     32  C   UNL     1      50.648  10.545  10.754  0.00  0.00    +0.000 A 
ATOM     33  H   UNL     1      53.747   9.571  10.219  0.00  0.00    +0.000 HD
ENDBRANCH  20  23
ENDBRANCH  18  19
ENDBRANCH   4  18
TORSDOF 7
ENDMDL
MODEL 9
REMARK VINA RESULT:    -6.652      3.575      8.310
REMARK INTER + INTRA:         -10.520
REMARK INTER:                  -8.519
REMARK INTRA:                  -2.001
REMARK UNBOUND:                -1.146
REMARK  Name = 
REMARK  8 active torsions:
REMARK  status: ('A' for Active; 'I' for Inactive)
REMARK    1  A    between atoms: C_1  and  C_2
REMARK    2  A    between atoms: C_2  and  N_3
REMARK    3  A    between atoms: C_2  and  C_11
REMARK    4  A    between atoms: N_3  and  C_4
REMARK    5  A    between atoms: C_4  and  C_5
REMARK    6  A    between atoms: C_14  and  C_15
REMARK    7  A    between atoms: C_15  and  N_16
REMARK    8  A    between atoms: C_17  and  C_19
REMARK                            x       y       z     vdW  Elec       q    Type
REMARK                         _______ _______ _______ _____ _____    ______ ____
ROOT
ATOM      1  C   UNL     1      50.210   7.466  18.161  0.00  0.00    +0.000 A 
ATOM      2  C   UNL     1      48.969   8.104  18.344  0.00  0.00    +0.000 A 
ATOM      3  C   UNL     1      48.306   8.713  17.279  0.00  0.00    +0.000 A 
ATOM      4  C   UNL     1      48.844   8.659  15.991  0.00  0.00    +0.000 A 
ATOM      5  C   UNL     1      50.095   8.059  15.804  0.00  0.00    +0.000 A 
ATOM      6  C   UNL     1      50.775   7.478  16.878  0.00  0.00    +0.000 A 
ENDROOT
BRANCH   1   8
ATOM      7  C   UNL     1      50.835   7.701  20.616  0.00  0.00    +0.000 C 
ATOM      8  C   UNL     1      50.894   6.818  19.359  0.00  0.00    +0.000 C 
BRANCH   8   9
ATOM      9  N   UNL     1      50.347   5.491  19.697  0.00  0.00    +0.000 NA
ATOM     10  H   UNL     1      49.349   5.480  19.491  0.00  0.00    +0.000 HD
BRANCH   9  11
ATOM     11  C   UNL     1      51.002   4.406  18.970  0.00  0.00    +0.000 C 
BRANCH  11  12
ATOM     12  C   UNL     1      50.076   3.713  18.010  0.00  0.00    +0.000 A 
ATOM     13  C   UNL     1      48.734   4.080  17.877  0.00  0.00    +0.000 A 
ATOM     14  C   UNL     1      47.913   3.373  17.004  0.00  0.00    +0.000 A 
ATOM     15  C   UNL     1      48.460   2.320  16.290  0.00  0.00    +0.000 A 
ATOM     16  N   UNL     1      49.749   1.933  16.391  0.00  0.00    +0.000 NA
ATOM     17  C   UNL     1      50.524   2.639  17.244  0.00  0.00    +0.000 A 
ENDBRANCH  11  12
ENDBRANCH   9  11
ENDBRANCH   8   9
ENDBRANCH   1   8
BRANCH   4  18
ATOM     18  C   UNL     1      48.096   9.238  14.823  0.00  0.00    +0.000 C 
BRANCH  18  19
ATOM     19  N   UNL     1      47.160   8.297  14.269  0.00  0.00    +0.000 N 
ATOM     20  C   UNL     1      46.814   8.299  12.945  0.00  0.00    +0.000 C 
ATOM     21  O   UNL     1      47.274   9.114  12.148  0.00  0.00    +0.000 OA
ATOM     22  H   UNL     1      46.624   7.742  14.929  0.00  0.00    +0.000 HD
BRANCH  20  23
ATOM     23  C   UNL     1      45.921   7.222  12.503  0.00  0.00    +0.000 A 
ATOM     24  C   UNL     1      44.817   7.533  11.720  0.00  0.00    +0.000 A 
ATOM     25  S   UNL     1      43.903   6.173  11.252  0.00  0.00    +0.000 S 
ATOM     26  C   UNL     1      44.924   5.122  12.116  0.00  0.00    +0.000 A 
ATOM     27  N   UNL     1      44.680   3.785  12.151  0.00  0.00    +0.000 NA
ATOM     28  C   UNL     1      45.512   3.109  12.872  0.00  0.00    +0.000 A 
ATOM     29  N   UNL     1      46.571   3.648  13.549  0.00  0.00    +0.000 N 
ATOM     30  C   UNL     1      46.895   4.981  13.494  0.00  0.00    +0.000 A 
ATOM     31  O   UNL     1      47.919   5.410  14.018  0.00  0.00    +0.000 OA
ATOM     32  C   UNL     1      45.965   5.797  12.730  0.00  0.00    +0.000 A 
ATOM     33  H   UNL     1      47.199   3.057  14.077  0.00  0.00    +0.000 HD
ENDBRANCH  20  23
ENDBRANCH  18  19
ENDBRANCH   4  18
TORSDOF 7
ENDMDL
