MODEL 1
REMARK VINA RESULT:    -8.486      0.000      0.000
REMARK INTER + INTRA:         -11.929
REMARK INTER:                 -10.966
REMARK INTRA:                  -0.963
REMARK UNBOUND:                -0.963
REMARK  Name = 
REMARK  6 active torsions:
REMARK  status: ('A' for Active; 'I' for Inactive)
REMARK    1  A    between atoms: C_1  and  N_2
REMARK    2  A    between atoms: N_2  and  C_3
REMARK    3  A    between atoms: C_3  and  C_4
REMARK    4  A    between atoms: C_4  and  C_5
REMARK    5  A    between atoms: C_9  and  C_10
REMARK    6  A    between atoms: C_20  and  C_21
REMARK                            x       y       z     vdW  Elec       q    Type
REMARK                         _______ _______ _______ _____ _____    ______ ____
ROOT
ATOM      1  C   UNL     1      43.226   5.073  10.812  0.00  0.00    +0.000 C 
ENDROOT
BRANCH   1   3
ATOM      2  C   UNL     1      43.458   2.765  11.774  0.00  0.00    +0.000 C 
ATOM      3  N   UNL     1      43.629   3.668  10.646  0.00  0.00    +0.000 N 
ATOM      4  C   UNL     1      44.551   3.357   9.654  0.00  0.00    +0.000 A 
ATOM      5  C   UNL     1      44.888   2.038   9.353  0.00  0.00    +0.000 A 
ATOM      6  C   UNL     1      45.826   1.752   8.356  0.00  0.00    +0.000 A 
ATOM      7  C   UNL     1      46.441   2.793   7.668  0.00  0.00    +0.000 A 
ATOM      8  C   UNL     1      46.055   4.073   8.011  0.00  0.00    +0.000 A 
ATOM      9  N   UNL     1      45.126   4.365   8.959  0.00  0.00    +0.000 NA
BRANCH   7  10
ATOM     10  C   UNL     1      47.447   2.472   6.625  0.00  0.00    +0.000 C 
ATOM     11  N   UNL     1      47.397   3.132   5.428  0.00  0.00    +0.000 N 
ATOM     12  O   UNL     1      48.318   1.635   6.821  0.00  0.00    +0.000 OA
ATOM     13  H   UNL     1      46.740   3.849   5.168  0.00  0.00    +0.000 HD
ATOM     14  H   UNL     1      48.107   2.880   4.750  0.00  0.00    +0.000 HD
ENDBRANCH   7  10
ENDBRANCH   1   3
BRANCH   1  15
ATOM     15  C   UNL     1      43.521   5.636  12.209  0.00  0.00    +0.000 C 
BRANCH  15  16
ATOM     16  C   UNL     1      45.002   5.830  12.452  0.00  0.00    +0.000 A 
ATOM     17  C   UNL     1      45.768   6.618  11.591  0.00  0.00    +0.000 A 
ATOM     18  C   UNL     1      47.125   6.807  11.842  0.00  0.00    +0.000 A 
ATOM     19  C   UNL     1      47.722   6.224  12.963  0.00  0.00    +0.000 A 
ATOM     20  C   UNL     1      46.979   5.448  13.872  0.00  0.00    +0.000 A 
ATOM     21  C   UNL     1      45.619   5.238  13.570  0.00  0.00    +0.000 A 
BRANCH  20  22
ATOM     22  C   UNL     1      47.574   4.953  15.138  0.00  0.00    +0.000 A 
ATOM     23  C   UNL     1      47.336   3.637  15.581  0.00  0.00    +0.000 A 
ATOM     24  C   UNL     1      47.961   3.119  16.719  0.00  0.00    +0.000 A 
ATOM     25  C   UNL     1      48.848   3.906  17.443  0.00  0.00    +0.000 A 
ATOM     26  C   UNL     1      49.090   5.217  17.043  0.00  0.00    +0.000 A 
ATOM     27  C   UNL     1      48.453   5.735  15.909  0.00  0.00    +0.000 A 
ENDBRANCH  20  22
ENDBRANCH  15  16
ENDBRANCH   1  15
TORSDOF 5
ENDMDL
MODEL 2
REMARK VINA RESULT:    -8.417      1.643      3.666
REMARK INTER + INTRA:         -11.840
REMARK INTER:                 -10.901
REMARK INTRA:                  -0.939
REMARK UNBOUND:                -0.963
REMARK  Name = 
REMARK  6 active torsions:
REMARK  status: ('A' for Active; 'I' for Inactive)
REMARK    1  A    between atoms: C_1  and  N_2
REMARK    2  A    between atoms: N_2  and  C_3
REMARK    3  A    between atoms: C_3  and  C_4
REMARK    4  A    between atoms: C_4  and  C_5
REMARK    5  A    between atoms: C_9  and  C_10
REMARK    6  A    between atoms: C_20  and  C_21
REMARK                            x       y       z     vdW  Elec       q    Type
REMARK                         _______ _______ _______ _____ _____    ______ ____
ROOT
ATOM      1  C   UNL     1      43.226   5.021  11.078  0.00  0.00    +0.000 C 
ENDROOT
BRANCH   1   3
ATOM      2  C   UNL     1      43.350   2.617  11.791  0.00  0.00    +0.000 C 
ATOM      3  N   UNL     1      43.571   3.625  10.766  0.00  0.00    +0.000 N 
ATOM      4  C   UNL     1      44.488   3.382   9.751  0.00  0.00    +0.000 A 
ATOM      5  C   UNL     1      44.771   2.088   9.314  0.00  0.00    +0.000 A 
ATOM      6  C   UNL     1      45.705   1.869   8.297  0.00  0.00    +0.000 A 
ATOM      7  C   UNL     1      46.370   2.949   7.725  0.00  0.00    +0.000 A 
ATOM      8  C   UNL     1      46.037   4.202   8.201  0.00  0.00    +0.000 A 
ATOM      9  N   UNL     1      45.111   4.431   9.169  0.00  0.00    +0.000 NA
BRANCH   7  10
ATOM     10  C   UNL     1      47.371   2.697   6.659  0.00  0.00    +0.000 C 
ATOM     11  N   UNL     1      47.193   3.270   5.431  0.00  0.00    +0.000 N 
ATOM     12  O   UNL     1      48.351   1.992   6.864  0.00  0.00    +0.000 OA
ATOM     13  H   UNL     1      46.440   3.881   5.160  0.00  0.00    +0.000 HD
ATOM     14  H   UNL     1      47.905   3.072   4.738  0.00  0.00    +0.000 HD
ENDBRANCH   7  10
ENDBRANCH   1   3
BRANCH   1  15
ATOM     15  C   UNL     1      43.427   5.389  12.554  0.00  0.00    +0.000 C 
BRANCH  15  16
ATOM     16  C   UNL     1      44.877   5.665  12.888  0.00  0.00    +0.000 A 
ATOM     17  C   UNL     1      45.652   4.708  13.546  0.00  0.00    +0.000 A 
ATOM     18  C   UNL     1      46.992   4.967  13.824  0.00  0.00    +0.000 A 
ATOM     19  C   UNL     1      47.571   6.177  13.430  0.00  0.00    +0.000 A 
ATOM     20  C   UNL     1      46.834   7.155  12.738  0.00  0.00    +0.000 A 
ATOM     21  C   UNL     1      45.470   6.883  12.509  0.00  0.00    +0.000 A 
BRANCH  20  22
ATOM     22  C   UNL     1      47.482   8.372  12.190  0.00  0.00    +0.000 A 
ATOM     23  C   UNL     1      46.775   9.587  12.099  0.00  0.00    +0.000 A 
ATOM     24  C   UNL     1      47.391  10.768  11.676  0.00  0.00    +0.000 A 
ATOM     25  C   UNL     1      48.739  10.765  11.335  0.00  0.00    +0.000 A 
ATOM     26  C   UNL     1      49.461   9.577  11.396  0.00  0.00    +0.000 A 
ATOM     27  C   UNL     1      48.836   8.394  11.809  0.00  0.00    +0.000 A 
ENDBRANCH  20  22
ENDBRANCH  15  16
ENDBRANCH   1  15
TORSDOF 5
ENDMDL
MODEL 3
REMARK VINA RESULT:    -7.882      3.427      7.685
REMARK INTER + INTRA:         -11.148
REMARK INTER:                 -10.346
REMARK INTRA:                  -0.803
REMARK UNBOUND:                -0.963
REMARK  Name = 
REMARK  6 active torsions:
REMARK  status: ('A' for Active; 'I' for Inactive)
REMARK    1  A    between atoms: C_1  and  N_2
REMARK    2  A    between atoms: N_2  and  C_3
REMARK    3  A    between atoms: C_3  and  C_4
REMARK    4  A    between atoms: C_4  and  C_5
REMARK    5  A    between atoms: C_9  and  C_10
REMARK    6  A    between atoms: C_20  and  C_21
REMARK                            x       y       z     vdW  Elec       q    Type
REMARK                         _______ _______ _______ _____ _____    ______ ____
ROOT
ATOM      1  C   UNL     1      47.612   7.241  12.114  0.00  0.00    +0.000 C 
ENDROOT
BRANCH   1   3
ATOM      2  C   UNL     1      49.406   8.319  13.502  0.00  0.00    +0.000 C 
ATOM      3  N   UNL     1      48.259   7.427  13.422  0.00  0.00    +0.000 N 
ATOM      4  C   UNL     1      48.084   6.448  14.392  0.00  0.00    +0.000 A 
ATOM      5  C   UNL     1      48.559   6.611  15.693  0.00  0.00    +0.000 A 
ATOM      6  C   UNL     1      48.378   5.606  16.648  0.00  0.00    +0.000 A 
ATOM      7  C   UNL     1      47.732   4.426  16.296  0.00  0.00    +0.000 A 
ATOM      8  C   UNL     1      47.281   4.334  14.994  0.00  0.00    +0.000 A 
ATOM      9  N   UNL     1      47.426   5.313  14.063  0.00  0.00    +0.000 NA
BRANCH   7  10
ATOM     10  C   UNL     1      47.564   3.362  17.317  0.00  0.00    +0.000 C 
ATOM     11  N   UNL     1      48.649   2.964  18.046  0.00  0.00    +0.000 N 
ATOM     12  O   UNL     1      46.473   2.844  17.518  0.00  0.00    +0.000 OA
ATOM     13  H   UNL     1      49.583   3.334  17.979  0.00  0.00    +0.000 HD
ATOM     14  H   UNL     1      48.483   2.238  18.733  0.00  0.00    +0.000 HD
ENDBRANCH   7  10
ENDBRANCH   1   3
BRANCH   1  15
ATOM     15  C   UNL     1      46.138   7.668  12.090  0.00  0.00    +0.000 C 
BRANCH  15  16
ATOM     16  C   UNL     1      45.239   6.603  11.502  0.00  0.00    +0.000 A 
ATOM     17  C   UNL     1      43.868   6.598  11.773  0.00  0.00    +0.000 A 
ATOM     18  C   UNL     1      43.049   5.626  11.204  0.00  0.00    +0.000 A 
ATOM     19  C   UNL     1      43.590   4.664  10.346  0.00  0.00    +0.000 A 
ATOM     20  C   UNL     1      44.959   4.652  10.023  0.00  0.00    +0.000 A 
ATOM     21  C   UNL     1      45.771   5.621  10.647  0.00  0.00    +0.000 A 
BRANCH  20  22
ATOM     22  C   UNL     1      45.508   3.727   9.000  0.00  0.00    +0.000 A 
ATOM     23  C   UNL     1      46.178   4.223   7.865  0.00  0.00    +0.000 A 
ATOM     24  C   UNL     1      46.785   3.371   6.938  0.00  0.00    +0.000 A 
ATOM     25  C   UNL     1      46.741   1.995   7.126  0.00  0.00    +0.000 A 
ATOM     26  C   UNL     1      46.069   1.472   8.228  0.00  0.00    +0.000 A 
ATOM     27  C   UNL     1      45.453   2.330   9.147  0.00  0.00    +0.000 A 
ENDBRANCH  20  22
ENDBRANCH  15  16
ENDBRANCH   1  15
TORSDOF 5
ENDMDL
MODEL 4
REMARK VINA RESULT:    -7.331      3.731      7.442
REMARK INTER + INTRA:         -10.437
REMARK INTER:                  -9.585
REMARK INTRA:                  -0.852
REMARK UNBOUND:                -0.963
REMARK  Name = 
REMARK  6 active torsions:
REMARK  status: ('A' for Active; 'I' for Inactive)
REMARK    1  A    between atoms: C_1  and  N_2
REMARK    2  A    between atoms: N_2  and  C_3
REMARK    3  A    between atoms: C_3  and  C_4
REMARK    4  A    between atoms: C_4  and  C_5
REMARK    5  A    between atoms: C_9  and  C_10
REMARK    6  A    between atoms: C_20  and  C_21
REMARK                            x       y       z     vdW  Elec       q    Type
REMARK                         _______ _______ _______ _____ _____    ______ ____
ROOT
ATOM      1  C   UNL     1      45.176   6.973  12.690  0.00  0.00    +0.000 C 
ENDROOT
BRANCH   1   3
ATOM      2  C   UNL     1      47.107   5.497  13.322  0.00  0.00    +0.000 C 
ATOM      3  N   UNL     1      46.611   6.660  12.602  0.00  0.00    +0.000 N 
ATOM      4  C   UNL     1      47.490   7.679  12.258  0.00  0.00    +0.000 A 
ATOM      5  C   UNL     1      48.844   7.435  12.033  0.00  0.00    +0.000 A 
ATOM      6  C   UNL     1      49.710   8.479  11.697  0.00  0.00    +0.000 A 
ATOM      7  C   UNL     1      49.222   9.779  11.601  0.00  0.00    +0.000 A 
ATOM      8  C   UNL     1      47.871   9.948  11.830  0.00  0.00    +0.000 A 
ATOM      9  N   UNL     1      47.012   8.938  12.130  0.00  0.00    +0.000 NA
BRANCH   7  10
ATOM     10  C   UNL     1      50.158  10.878  11.261  0.00  0.00    +0.000 C 
ATOM     11  N   UNL     1      51.136  10.655  10.333  0.00  0.00    +0.000 N 
ATOM     12  O   UNL     1      50.064  11.977  11.793  0.00  0.00    +0.000 OA
ATOM     13  H   UNL     1      51.291   9.802   9.821  0.00  0.00    +0.000 HD
ATOM     14  H   UNL     1      51.748  11.438  10.132  0.00  0.00    +0.000 HD
ENDBRANCH   7  10
ENDBRANCH   1   3
BRANCH   1  15
ATOM     15  C   UNL     1      44.410   6.722  11.384  0.00  0.00    +0.000 C 
BRANCH  15  16
ATOM     16  C   UNL     1      44.312   5.250  11.047  0.00  0.00    +0.000 A 
ATOM     17  C   UNL     1      43.430   4.418  11.740  0.00  0.00    +0.000 A 
ATOM     18  C   UNL     1      43.333   3.070  11.402  0.00  0.00    +0.000 A 
ATOM     19  C   UNL     1      44.102   2.549  10.358  0.00  0.00    +0.000 A 
ATOM     20  C   UNL     1      44.980   3.360   9.616  0.00  0.00    +0.000 A 
ATOM     21  C   UNL     1      45.090   4.708  10.008  0.00  0.00    +0.000 A 
BRANCH  20  22
ATOM     22  C   UNL     1      45.685   2.844   8.416  0.00  0.00    +0.000 A 
ATOM     23  C   UNL     1      45.969   3.691   7.326  0.00  0.00    +0.000 A 
ATOM     24  C   UNL     1      46.714   3.253   6.228  0.00  0.00    +0.000 A 
ATOM     25  C   UNL     1      47.200   1.952   6.192  0.00  0.00    +0.000 A 
ATOM     26  C   UNL     1      46.921   1.084   7.244  0.00  0.00    +0.000 A 
ATOM     27  C   UNL     1      46.164   1.524   8.337  0.00  0.00    +0.000 A 
ENDBRANCH  20  22
ENDBRANCH  15  16
ENDBRANCH   1  15
TORSDOF 5
ENDMDL
MODEL 5
REMARK VINA RESULT:    -7.006      1.811      2.532
REMARK INTER + INTRA:         -10.016
REMARK INTER:                  -9.261
REMARK INTRA:                  -0.756
REMARK UNBOUND:                -0.963
REMARK  Name = 
REMARK  6 active torsions:
REMARK  status: ('A' for Active; 'I' for Inactive)
REMARK    1  A    between atoms: C_1  and  N_2
REMARK    2  A    between atoms: N_2  and  C_3
REMARK    3  A    between atoms: C_3  and  C_4
REMARK    4  A    between atoms: C_4  and  C_5
REMARK    5  A    between atoms: C_9  and  C_10
REMARK    6  A    between atoms: C_20  and  C_21
REMARK                            x       y       z     vdW  Elec       q    Type
REMARK                         _______ _______ _______ _____ _____    ______ ____
ROOT
ATOM      1  C   UNL     1      43.433   5.215  10.810  0.00  0.00    +0.000 C 
ENDROOT
BRANCH   1   3
ATOM      2  C   UNL     1      43.471   2.869  11.705  0.00  0.00    +0.000 C 
ATOM      3  N   UNL     1      43.711   3.785  10.601  0.00  0.00    +0.000 N 
ATOM      4  C   UNL     1      44.595   3.424   9.592  0.00  0.00    +0.000 A 
ATOM      5  C   UNL     1      44.813   2.089   9.250  0.00  0.00    +0.000 A 
ATOM      6  C   UNL     1      45.715   1.752   8.237  0.00  0.00    +0.000 A 
ATOM      7  C   UNL     1      46.413   2.754   7.571  0.00  0.00    +0.000 A 
ATOM      8  C   UNL     1      46.143   4.053   7.954  0.00  0.00    +0.000 A 
ATOM      9  N   UNL     1      45.250   4.397   8.918  0.00  0.00    +0.000 NA
BRANCH   7  10
ATOM     10  C   UNL     1      47.379   2.377   6.509  0.00  0.00    +0.000 C 
ATOM     11  N   UNL     1      47.064   2.630   5.203  0.00  0.00    +0.000 N 
ATOM     12  O   UNL     1      48.449   1.851   6.785  0.00  0.00    +0.000 OA
ATOM     13  H   UNL     1      46.225   3.075   4.866  0.00  0.00    +0.000 HD
ATOM     14  H   UNL     1      47.757   2.358   4.516  0.00  0.00    +0.000 HD
ENDBRANCH   7  10
ENDBRANCH   1   3
BRANCH   1  15
ATOM     15  C   UNL     1      43.785   5.710  12.219  0.00  0.00    +0.000 C 
BRANCH  15  16
ATOM     16  C   UNL     1      44.690   6.922  12.195  0.00  0.00    +0.000 A 
ATOM     17  C   UNL     1      44.326   8.069  11.486  0.00  0.00    +0.000 A 
ATOM     18  C   UNL     1      45.158   9.186  11.494  0.00  0.00    +0.000 A 
ATOM     19  C   UNL     1      46.349   9.172  12.224  0.00  0.00    +0.000 A 
ATOM     20  C   UNL     1      46.737   8.048  12.977  0.00  0.00    +0.000 A 
ATOM     21  C   UNL     1      45.898   6.918  12.915  0.00  0.00    +0.000 A 
BRANCH  20  22
ATOM     22  C   UNL     1      47.923   8.084  13.869  0.00  0.00    +0.000 A 
ATOM     23  C   UNL     1      48.367   9.297  14.430  0.00  0.00    +0.000 A 
ATOM     24  C   UNL     1      49.421   9.342  15.347  0.00  0.00    +0.000 A 
ATOM     25  C   UNL     1      50.058   8.168  15.731  0.00  0.00    +0.000 A 
ATOM     26  C   UNL     1      49.655   6.955  15.181  0.00  0.00    +0.000 A 
ATOM     27  C   UNL     1      48.606   6.916  14.254  0.00  0.00    +0.000 A 
ENDBRANCH  20  22
ENDBRANCH  15  16
ENDBRANCH   1  15
TORSDOF 5
ENDMDL
MODEL 6
REMARK VINA RESULT:    -6.664      3.945      7.608
REMARK INTER + INTRA:          -9.575
REMARK INTER:                  -8.588
REMARK INTRA:                  -0.987
REMARK UNBOUND:                -0.963
REMARK  Name = 
REMARK  6 active torsions:
REMARK  status: ('A' for Active; 'I' for Inactive)
REMARK    1  A    between atoms: C_1  and  N_2
REMARK    2  A    between atoms: N_2  and  C_3
REMARK    3  A    between atoms: C_3  and  C_4
REMARK    4  A    between atoms: C_4  and  C_5
REMARK    5  A    between atoms: C_9  and  C_10
REMARK    6  A    between atoms: C_20  and  C_21
REMARK                            x       y       z     vdW  Elec       q    Type
REMARK                         _______ _______ _______ _____ _____    ______ ____
ROOT
ATOM      1  C   UNL     1      48.985   7.803  13.141  0.00  0.00    +0.000 C 
ENDROOT
BRANCH   1   3
ATOM      2  C   UNL     1      51.031   7.988  14.585  0.00  0.00    +0.000 C 
ATOM      3  N   UNL     1      49.647   7.567  14.434  0.00  0.00    +0.000 N 
ATOM      4  C   UNL     1      49.136   6.580  15.267  0.00  0.00    +0.000 A 
ATOM      5  C   UNL     1      49.629   6.381  16.557  0.00  0.00    +0.000 A 
ATOM      6  C   UNL     1      49.104   5.375  17.373  0.00  0.00    +0.000 A 
ATOM      7  C   UNL     1      48.091   4.552  16.890  0.00  0.00    +0.000 A 
ATOM      8  C   UNL     1      47.646   4.808  15.609  0.00  0.00    +0.000 A 
ATOM      9  N   UNL     1      48.128   5.800  14.815  0.00  0.00    +0.000 NA
BRANCH   7  10
ATOM     10  C   UNL     1      47.557   3.478  17.763  0.00  0.00    +0.000 C 
ATOM     11  N   UNL     1      48.226   3.161  18.913  0.00  0.00    +0.000 N 
ATOM     12  O   UNL     1      46.530   2.878  17.473  0.00  0.00    +0.000 OA
ATOM     13  H   UNL     1      49.064   3.602  19.257  0.00  0.00    +0.000 HD
ATOM     14  H   UNL     1      47.821   2.424  19.477  0.00  0.00    +0.000 HD
ENDBRANCH   7  10
ENDBRANCH   1   3
BRANCH   1  15
ATOM     15  C   UNL     1      48.113   9.065  13.118  0.00  0.00    +0.000 C 
BRANCH  15  16
ATOM     16  C   UNL     1      46.742   8.808  12.531  0.00  0.00    +0.000 A 
ATOM     17  C   UNL     1      46.001   9.850  11.968  0.00  0.00    +0.000 A 
ATOM     18  C   UNL     1      44.752   9.594  11.409  0.00  0.00    +0.000 A 
ATOM     19  C   UNL     1      44.242   8.293  11.391  0.00  0.00    +0.000 A 
ATOM     20  C   UNL     1      44.969   7.210  11.920  0.00  0.00    +0.000 A 
ATOM     21  C   UNL     1      46.211   7.506  12.518  0.00  0.00    +0.000 A 
BRANCH  20  22
ATOM     22  C   UNL     1      44.498   5.811  11.770  0.00  0.00    +0.000 A 
ATOM     23  C   UNL     1      44.771   5.080  10.597  0.00  0.00    +0.000 A 
ATOM     24  C   UNL     1      44.420   3.733  10.471  0.00  0.00    +0.000 A 
ATOM     25  C   UNL     1      43.788   3.078  11.522  0.00  0.00    +0.000 A 
ATOM     26  C   UNL     1      43.487   3.778  12.686  0.00  0.00    +0.000 A 
ATOM     27  C   UNL     1      43.830   5.131  12.804  0.00  0.00    +0.000 A 
ENDBRANCH  20  22
ENDBRANCH  15  16
ENDBRANCH   1  15
TORSDOF 5
ENDMDL
MODEL 7
REMARK VINA RESULT:    -6.660      3.411      5.908
REMARK INTER + INTRA:          -9.570
REMARK INTER:                  -8.751
REMARK INTRA:                  -0.819
REMARK UNBOUND:                -0.963
REMARK  Name = 
REMARK  6 active torsions:
REMARK  status: ('A' for Active; 'I' for Inactive)
REMARK    1  A    between atoms: C_1  and  N_2
REMARK    2  A    between atoms: N_2  and  C_3
REMARK    3  A    between atoms: C_3  and  C_4
REMARK    4  A    between atoms: C_4  and  C_5
REMARK    5  A    between atoms: C_9  and  C_10
REMARK    6  A    between atoms: C_20  and  C_21
REMARK                            x       y       z     vdW  Elec       q    Type
REMARK                         _______ _______ _______ _____ _____    ______ ____
ROOT
ATOM      1  C   UNL     1      48.850   6.804  14.405  0.00  0.00    +0.000 C 
ENDROOT
BRANCH   1   3
ATOM      2  C   UNL     1      47.293   8.719  13.937  0.00  0.00    +0.000 C 
ATOM      3  N   UNL     1      47.665   7.331  13.708  0.00  0.00    +0.000 N 
ATOM      4  C   UNL     1      46.708   6.430  13.259  0.00  0.00    +0.000 A 
ATOM      5  C   UNL     1      45.623   6.839  12.483  0.00  0.00    +0.000 A 
ATOM      6  C   UNL     1      44.668   5.914  12.051  0.00  0.00    +0.000 A 
ATOM      7  C   UNL     1      44.791   4.575  12.409  0.00  0.00    +0.000 A 
ATOM      8  C   UNL     1      45.892   4.239  13.172  0.00  0.00    +0.000 A 
ATOM      9  N   UNL     1      46.842   5.122  13.576  0.00  0.00    +0.000 NA
BRANCH   7  10
ATOM     10  C   UNL     1      43.759   3.609  11.957  0.00  0.00    +0.000 C 
ATOM     11  N   UNL     1      43.733   2.358  12.507  0.00  0.00    +0.000 N 
ATOM     12  O   UNL     1      42.933   3.917  11.108  0.00  0.00    +0.000 OA
ATOM     13  H   UNL     1      44.348   2.007  13.223  0.00  0.00    +0.000 HD
ATOM     14  H   UNL     1      43.008   1.737  12.168  0.00  0.00    +0.000 HD
ENDBRANCH   7  10
ENDBRANCH   1   3
BRANCH   1  15
ATOM     15  C   UNL     1      48.766   6.919  15.933  0.00  0.00    +0.000 C 
BRANCH  15  16
ATOM     16  C   UNL     1      48.739   5.567  16.612  0.00  0.00    +0.000 A 
ATOM     17  C   UNL     1      47.526   4.925  16.875  0.00  0.00    +0.000 A 
ATOM     18  C   UNL     1      47.519   3.670  17.478  0.00  0.00    +0.000 A 
ATOM     19  C   UNL     1      48.722   3.039  17.806  0.00  0.00    +0.000 A 
ATOM     20  C   UNL     1      49.965   3.637  17.529  0.00  0.00    +0.000 A 
ATOM     21  C   UNL     1      49.942   4.925  16.959  0.00  0.00    +0.000 A 
BRANCH  20  22
ATOM     22  C   UNL     1      51.241   2.908  17.739  0.00  0.00    +0.000 A 
ATOM     23  C   UNL     1      51.358   1.546  17.397  0.00  0.00    +0.000 A 
ATOM     24  C   UNL     1      52.574   0.864  17.496  0.00  0.00    +0.000 A 
ATOM     25  C   UNL     1      53.711   1.531  17.939  0.00  0.00    +0.000 A 
ATOM     26  C   UNL     1      53.624   2.871  18.304  0.00  0.00    +0.000 A 
ATOM     27  C   UNL     1      52.401   3.547  18.213  0.00  0.00    +0.000 A 
ENDBRANCH  20  22
ENDBRANCH  15  16
ENDBRANCH   1  15
TORSDOF 5
ENDMDL
MODEL 8
REMARK VINA RESULT:    -6.537      4.033      8.327
REMARK INTER + INTRA:          -9.410
REMARK INTER:                  -8.741
REMARK INTRA:                  -0.669
REMARK UNBOUND:                -0.963
REMARK  Name = 
REMARK  6 active torsions:
REMARK  status: ('A' for Active; 'I' for Inactive)
REMARK    1  A    between atoms: C_1  and  N_2
REMARK    2  A    between atoms: N_2  and  C_3
REMARK    3  A    between atoms: C_3  and  C_4
REMARK    4  A    between atoms: C_4  and  C_5
REMARK    5  A    between atoms: C_9  and  C_10
REMARK    6  A    between atoms: C_20  and  C_21
REMARK                            x       y       z     vdW  Elec       q    Type
REMARK                         _______ _______ _______ _____ _____    ______ ____
ROOT
ATOM      1  C   UNL     1      46.575   7.015  11.729  0.00  0.00    +0.000 C 
ENDROOT
BRANCH   1   3
ATOM      2  C   UNL     1      46.698   9.507  12.007  0.00  0.00    +0.000 C 
ATOM      3  N   UNL     1      46.800   8.181  12.597  0.00  0.00    +0.000 N 
ATOM      4  C   UNL     1      47.532   8.005  13.764  0.00  0.00    +0.000 A 
ATOM      5  C   UNL     1      47.682   9.030  14.698  0.00  0.00    +0.000 A 
ATOM      6  C   UNL     1      48.432   8.830  15.861  0.00  0.00    +0.000 A 
ATOM      7  C   UNL     1      49.048   7.603  16.084  0.00  0.00    +0.000 A 
ATOM      8  C   UNL     1      48.852   6.631  15.122  0.00  0.00    +0.000 A 
ATOM      9  N   UNL     1      48.104   6.803  14.001  0.00  0.00    +0.000 NA
BRANCH   7  10
ATOM     10  C   UNL     1      49.854   7.413  17.315  0.00  0.00    +0.000 C 
ATOM     11  N   UNL     1      50.543   6.245  17.485  0.00  0.00    +0.000 N 
ATOM     12  O   UNL     1      49.916   8.285  18.172  0.00  0.00    +0.000 OA
ATOM     13  H   UNL     1      50.580   5.473  16.839  0.00  0.00    +0.000 HD
ATOM     14  H   UNL     1      51.081   6.164  18.339  0.00  0.00    +0.000 HD
ENDBRANCH   7  10
ENDBRANCH   1   3
BRANCH   1  15
ATOM     15  C   UNL     1      45.118   6.862  11.271  0.00  0.00    +0.000 C 
BRANCH  15  16
ATOM     16  C   UNL     1      44.770   5.431  10.922  0.00  0.00    +0.000 A 
ATOM     17  C   UNL     1      43.732   4.769  11.582  0.00  0.00    +0.000 A 
ATOM     18  C   UNL     1      43.408   3.460  11.232  0.00  0.00    +0.000 A 
ATOM     19  C   UNL     1      44.106   2.811  10.210  0.00  0.00    +0.000 A 
ATOM     20  C   UNL     1      45.137   3.453   9.500  0.00  0.00    +0.000 A 
ATOM     21  C   UNL     1      45.472   4.760   9.904  0.00  0.00    +0.000 A 
BRANCH  20  22
ATOM     22  C   UNL     1      45.777   2.820   8.320  0.00  0.00    +0.000 A 
ATOM     23  C   UNL     1      46.089   3.580   7.175  0.00  0.00    +0.000 A 
ATOM     24  C   UNL     1      46.777   3.029   6.090  0.00  0.00    +0.000 A 
ATOM     25  C   UNL     1      47.175   1.698   6.125  0.00  0.00    +0.000 A 
ATOM     26  C   UNL     1      46.865   0.915   7.233  0.00  0.00    +0.000 A 
ATOM     27  C   UNL     1      46.166   1.469   8.312  0.00  0.00    +0.000 A 
ENDBRANCH  20  22
ENDBRANCH  15  16
ENDBRANCH   1  15
TORSDOF 5
ENDMDL
MODEL 9
REMARK VINA RESULT:    -6.285      3.561      5.562
REMARK INTER + INTRA:          -9.084
REMARK INTER:                  -8.012
REMARK INTRA:                  -1.073
REMARK UNBOUND:                -0.963
REMARK  Name = 
REMARK  6 active torsions:
REMARK  status: ('A' for Active; 'I' for Inactive)
REMARK    1  A    between atoms: C_1  and  N_2
REMARK    2  A    between atoms: N_2  and  C_3
REMARK    3  A    between atoms: C_3  and  C_4
REMARK    4  A    between atoms: C_4  and  C_5
REMARK    5  A    between atoms: C_9  and  C_10
REMARK    6  A    between atoms: C_20  and  C_21
REMARK                            x       y       z     vdW  Elec       q    Type
REMARK                         _______ _______ _______ _____ _____    ______ ____
ROOT
ATOM      1  C   UNL     1      48.776   8.556  13.343  0.00  0.00    +0.000 C 
ENDROOT
BRANCH   1   3
ATOM      2  C   UNL     1      46.908   9.769  12.183  0.00  0.00    +0.000 C 
ATOM      3  N   UNL     1      47.533   8.509  12.557  0.00  0.00    +0.000 N 
ATOM      4  C   UNL     1      46.768   7.350  12.597  0.00  0.00    +0.000 A 
ATOM      5  C   UNL     1      45.647   7.183  11.785  0.00  0.00    +0.000 A 
ATOM      6  C   UNL     1      44.888   6.010  11.851  0.00  0.00    +0.000 A 
ATOM      7  C   UNL     1      45.245   5.006  12.746  0.00  0.00    +0.000 A 
ATOM      8  C   UNL     1      46.369   5.235  13.514  0.00  0.00    +0.000 A 
ATOM      9  N   UNL     1      47.131   6.358  13.441  0.00  0.00    +0.000 NA
BRANCH   7  10
ATOM     10  C   UNL     1      44.419   3.776  12.816  0.00  0.00    +0.000 C 
ATOM     11  N   UNL     1      44.888   2.626  12.244  0.00  0.00    +0.000 N 
ATOM     12  O   UNL     1      43.332   3.774  13.380  0.00  0.00    +0.000 OA
ATOM     13  H   UNL     1      45.772   2.510  11.775  0.00  0.00    +0.000 HD
ATOM     14  H   UNL     1      44.289   1.812  12.321  0.00  0.00    +0.000 HD
ENDBRANCH   7  10
ENDBRANCH   1   3
BRANCH   1  15
ATOM     15  C   UNL     1      48.723   9.540  14.519  0.00  0.00    +0.000 C 
BRANCH  15  16
ATOM     16  C   UNL     1      48.581   8.839  15.852  0.00  0.00    +0.000 A 
ATOM     17  C   UNL     1      48.090   9.520  16.968  0.00  0.00    +0.000 A 
ATOM     18  C   UNL     1      47.942   8.854  18.182  0.00  0.00    +0.000 A 
ATOM     19  C   UNL     1      48.267   7.499  18.286  0.00  0.00    +0.000 A 
ATOM     20  C   UNL     1      48.736   6.768  17.178  0.00  0.00    +0.000 A 
ATOM     21  C   UNL     1      48.917   7.478  15.975  0.00  0.00    +0.000 A 
BRANCH  20  22
ATOM     22  C   UNL     1      48.940   5.299  17.247  0.00  0.00    +0.000 A 
ATOM     23  C   UNL     1      47.925   4.411  16.839  0.00  0.00    +0.000 A 
ATOM     24  C   UNL     1      48.128   3.028  16.805  0.00  0.00    +0.000 A 
ATOM     25  C   UNL     1      49.357   2.496  17.177  0.00  0.00    +0.000 A 
ATOM     26  C   UNL     1      50.373   3.346  17.603  0.00  0.00    +0.000 A 
ATOM     27  C   UNL     1      50.162   4.730  17.647  0.00  0.00    +0.000 A 
ENDBRANCH  20  22
ENDBRANCH  15  16
ENDBRANCH   1  15
TORSDOF 5
ENDMDL
