MODEL 1
REMARK VINA RESULT:    -7.343      0.000      0.000
REMARK INTER + INTRA:         -10.353
REMARK INTER:                  -9.919
REMARK INTRA:                  -0.434
REMARK UNBOUND:                -0.434
REMARK  Name = 
REMARK  8 active torsions:
REMARK  status: ('A' for Active; 'I' for Inactive)
REMARK    1  A    between atoms: C_1  and  C_2
REMARK    2  A    between atoms: C_2  and  C_3
REMARK    3  A    between atoms: C_3  and  N_4
REMARK    4  A    between atoms: C_3  and  C_17
REMARK    5  A    between atoms: C_5  and  C_7
REMARK    6  A    between atoms: C_20  and  C_21
REMARK    7  A    between atoms: C_21  and  N_22
REMARK    8  A    between atoms: N_25  and  C_26
REMARK                            x       y       z     vdW  Elec       q    Type
REMARK                         _______ _______ _______ _____ _____    ______ ____
ROOT
ATOM      1  C   UNL     1      44.043   3.939  10.177  0.00  0.00    +0.000 C 
ENDROOT
BRANCH   1   2
ATOM      2  C   UNL     1      44.968   3.376   9.104  0.00  0.00    +0.000 A 
ATOM      3  C   UNL     1      45.192   1.994   9.026  0.00  0.00    +0.000 A 
ATOM      4  C   UNL     1      46.042   1.463   8.052  0.00  0.00    +0.000 A 
ATOM      5  C   UNL     1      46.672   2.299   7.119  0.00  0.00    +0.000 A 
ATOM      6  C   UNL     1      46.441   3.678   7.186  0.00  0.00    +0.000 A 
ATOM      7  C   UNL     1      45.599   4.209   8.165  0.00  0.00    +0.000 A 
BRANCH   5   8
ATOM      8  C   UNL     1      47.547   1.725   6.023  0.00  0.00    +0.000 C 
BRANCH   8   9
ATOM      9  N   UNL     1      46.813   0.853   5.098  0.00  0.00    +0.000 NA
ATOM     10  C   UNL     1      46.820   1.359   3.712  0.00  0.00    +0.000 C 
ATOM     11  C   UNL     1      46.019   0.430   2.774  0.00  0.00    +0.000 C 
ATOM     12  N   UNL     1      46.471  -0.976   2.761  0.00  0.00    +0.000 NA
ATOM     13  C   UNL     1      47.729  -1.127   2.035  0.00  0.00    +0.000 C 
ATOM     14  C   UNL     1      46.582  -1.456   4.156  0.00  0.00    +0.000 C 
ATOM     15  C   UNL     1      47.356  -0.519   5.116  0.00  0.00    +0.000 C 
ENDBRANCH   8   9
ENDBRANCH   5   8
ENDBRANCH   1   2
BRANCH   1  16
ATOM     16  N   UNL     1      44.687   5.082  10.804  0.00  0.00    +0.000 N 
ATOM     17  C   UNL     1      44.034   6.226  11.178  0.00  0.00    +0.000 C 
ATOM     18  O   UNL     1      42.821   6.366  11.063  0.00  0.00    +0.000 OA
ATOM     19  H   UNL     1      45.700   5.071  10.803  0.00  0.00    +0.000 HD
BRANCH  17  20
ATOM     20  C   UNL     1      44.880   7.274  11.764  0.00  0.00    +0.000 A 
ATOM     21  C   UNL     1      44.694   8.607  11.423  0.00  0.00    +0.000 A 
ATOM     22  S   UNL     1      45.793   9.666  12.191  0.00  0.00    +0.000 S 
ATOM     23  C   UNL     1      46.581   8.373  12.968  0.00  0.00    +0.000 A 
ATOM     24  N   UNL     1      47.672   8.584  13.755  0.00  0.00    +0.000 NA
ATOM     25  C   UNL     1      48.189   7.507  14.249  0.00  0.00    +0.000 A 
ATOM     26  N   UNL     1      47.705   6.244  14.048  0.00  0.00    +0.000 N 
ATOM     27  C   UNL     1      46.565   5.992  13.325  0.00  0.00    +0.000 A 
ATOM     28  O   UNL     1      46.084   4.870  13.295  0.00  0.00    +0.000 OA
ATOM     29  C   UNL     1      45.982   7.159  12.688  0.00  0.00    +0.000 A 
ATOM     30  H   UNL     1      48.120   5.442  14.497  0.00  0.00    +0.000 HD
ENDBRANCH  17  20
ENDBRANCH   1  16
BRANCH   1  32
ATOM     31  C   UNL     1      43.712   3.433  12.669  0.00  0.00    +0.000 C 
ATOM     32  C   UNL     1      43.670   2.893  11.245  0.00  0.00    +0.000 C 
ENDBRANCH   1  32
TORSDOF 6
ENDMDL
MODEL 2
REMARK VINA RESULT:    -7.189      5.456     12.165
REMARK INTER + INTRA:         -10.144
REMARK INTER:                  -8.893
REMARK INTRA:                  -1.251
REMARK UNBOUND:                -0.434
REMARK  Name = 
REMARK  8 active torsions:
REMARK  status: ('A' for Active; 'I' for Inactive)
REMARK    1  A    between atoms: C_1  and  C_2
REMARK    2  A    between atoms: C_2  and  C_3
REMARK    3  A    between atoms: C_3  and  N_4
REMARK    4  A    between atoms: C_3  and  C_17
REMARK    5  A    between atoms: C_5  and  C_7
REMARK    6  A    between atoms: C_20  and  C_21
REMARK    7  A    between atoms: C_21  and  N_22
REMARK    8  A    between atoms: N_25  and  C_26
REMARK                            x       y       z     vdW  Elec       q    Type
REMARK                         _______ _______ _______ _____ _____    ______ ____
ROOT
ATOM      1  C   UNL     1      48.179   4.640  16.226  0.00  0.00    +0.000 C 
ENDROOT
BRANCH   1   2
ATOM      2  C   UNL     1      48.075   5.630  17.382  0.00  0.00    +0.000 A 
ATOM      3  C   UNL     1      47.287   5.322  18.500  0.00  0.00    +0.000 A 
ATOM      4  C   UNL     1      47.179   6.221  19.565  0.00  0.00    +0.000 A 
ATOM      5  C   UNL     1      47.871   7.440  19.546  0.00  0.00    +0.000 A 
ATOM      6  C   UNL     1      48.668   7.746  18.436  0.00  0.00    +0.000 A 
ATOM      7  C   UNL     1      48.770   6.851  17.370  0.00  0.00    +0.000 A 
BRANCH   5   8
ATOM      8  C   UNL     1      47.804   8.393  20.723  0.00  0.00    +0.000 C 
BRANCH   8   9
ATOM      9  N   UNL     1      47.776   9.804  20.320  0.00  0.00    +0.000 NA
ATOM     10  C   UNL     1      46.419  10.270  19.975  0.00  0.00    +0.000 C 
ATOM     11  C   UNL     1      46.432  11.751  19.534  0.00  0.00    +0.000 C 
ATOM     12  N   UNL     1      47.012  12.685  20.519  0.00  0.00    +0.000 NA
ATOM     13  C   UNL     1      46.109  12.903  21.646  0.00  0.00    +0.000 C 
ATOM     14  C   UNL     1      48.323  12.162  20.962  0.00  0.00    +0.000 C 
ATOM     15  C   UNL     1      48.332  10.670  21.378  0.00  0.00    +0.000 C 
ENDBRANCH   8   9
ENDBRANCH   5   8
ENDBRANCH   1   2
BRANCH   1  16
ATOM     16  N   UNL     1      47.242   5.031  15.185  0.00  0.00    +0.000 N 
ATOM     17  C   UNL     1      47.578   5.775  14.086  0.00  0.00    +0.000 C 
ATOM     18  O   UNL     1      48.727   6.136  13.854  0.00  0.00    +0.000 OA
ATOM     19  H   UNL     1      46.263   4.871  15.392  0.00  0.00    +0.000 HD
BRANCH  17  20
ATOM     20  C   UNL     1      46.471   6.088  13.172  0.00  0.00    +0.000 A 
ATOM     21  C   UNL     1      46.226   7.397  12.779  0.00  0.00    +0.000 A 
ATOM     22  S   UNL     1      44.882   7.555  11.737  0.00  0.00    +0.000 S 
ATOM     23  C   UNL     1      44.557   5.886  11.813  0.00  0.00    +0.000 A 
ATOM     24  N   UNL     1      43.482   5.348  11.175  0.00  0.00    +0.000 NA
ATOM     25  C   UNL     1      43.339   4.075  11.352  0.00  0.00    +0.000 A 
ATOM     26  N   UNL     1      44.180   3.289  12.089  0.00  0.00    +0.000 N 
ATOM     27  C   UNL     1      45.317   3.774  12.687  0.00  0.00    +0.000 A 
ATOM     28  O   UNL     1      46.118   3.014  13.207  0.00  0.00    +0.000 OA
ATOM     29  C   UNL     1      45.490   5.212  12.579  0.00  0.00    +0.000 A 
ATOM     30  H   UNL     1      44.048   2.291  12.155  0.00  0.00    +0.000 HD
ENDBRANCH  17  20
ENDBRANCH   1  16
BRANCH   1  32
ATOM     31  C   UNL     1      49.161   2.423  17.057  0.00  0.00    +0.000 C 
ATOM     32  C   UNL     1      47.904   3.189  16.664  0.00  0.00    +0.000 C 
ENDBRANCH   1  32
TORSDOF 6
ENDMDL
MODEL 3
REMARK VINA RESULT:    -7.133      3.894     10.759
REMARK INTER + INTRA:         -10.069
REMARK INTER:                  -8.858
REMARK INTRA:                  -1.211
REMARK UNBOUND:                -0.434
REMARK  Name = 
REMARK  8 active torsions:
REMARK  status: ('A' for Active; 'I' for Inactive)
REMARK    1  A    between atoms: C_1  and  C_2
REMARK    2  A    between atoms: C_2  and  C_3
REMARK    3  A    between atoms: C_3  and  N_4
REMARK    4  A    between atoms: C_3  and  C_17
REMARK    5  A    between atoms: C_5  and  C_7
REMARK    6  A    between atoms: C_20  and  C_21
REMARK    7  A    between atoms: C_21  and  N_22
REMARK    8  A    between atoms: N_25  and  C_26
REMARK                            x       y       z     vdW  Elec       q    Type
REMARK                         _______ _______ _______ _____ _____    ______ ____
ROOT
ATOM      1  C   UNL     1      47.910   7.703  12.291  0.00  0.00    +0.000 C 
ENDROOT
BRANCH   1   2
ATOM      2  C   UNL     1      48.219   7.757  13.783  0.00  0.00    +0.000 A 
ATOM      3  C   UNL     1      48.772   6.641  14.426  0.00  0.00    +0.000 A 
ATOM      4  C   UNL     1      49.057   6.674  15.794  0.00  0.00    +0.000 A 
ATOM      5  C   UNL     1      48.814   7.832  16.548  0.00  0.00    +0.000 A 
ATOM      6  C   UNL     1      48.274   8.953  15.906  0.00  0.00    +0.000 A 
ATOM      7  C   UNL     1      47.982   8.916  14.542  0.00  0.00    +0.000 A 
BRANCH   5   8
ATOM      8  C   UNL     1      49.175   7.895  18.018  0.00  0.00    +0.000 C 
BRANCH   8   9
ATOM      9  N   UNL     1      48.588   6.801  18.802  0.00  0.00    +0.000 NA
ATOM     10  C   UNL     1      49.579   5.776  19.181  0.00  0.00    +0.000 C 
ATOM     11  C   UNL     1      48.921   4.632  19.983  0.00  0.00    +0.000 C 
ATOM     12  N   UNL     1      48.203   5.061  21.200  0.00  0.00    +0.000 NA
ATOM     13  C   UNL     1      49.131   5.436  22.264  0.00  0.00    +0.000 C 
ATOM     14  C   UNL     1      47.292   6.173  20.851  0.00  0.00    +0.000 C 
ATOM     15  C   UNL     1      47.930   7.314  20.020  0.00  0.00    +0.000 C 
ENDBRANCH   8   9
ENDBRANCH   5   8
ENDBRANCH   1   2
BRANCH   1  16
ATOM     16  N   UNL     1      47.040   6.567  12.031  0.00  0.00    +0.000 N 
ATOM     17  C   UNL     1      45.673   6.616  12.083  0.00  0.00    +0.000 C 
ATOM     18  O   UNL     1      45.053   7.650  12.306  0.00  0.00    +0.000 OA
ATOM     19  H   UNL     1      47.500   5.666  11.971  0.00  0.00    +0.000 HD
BRANCH  17  20
ATOM     20  C   UNL     1      44.985   5.345  11.820  0.00  0.00    +0.000 A 
ATOM     21  C   UNL     1      44.238   4.725  12.813  0.00  0.00    +0.000 A 
ATOM     22  S   UNL     1      43.539   3.247  12.317  0.00  0.00    +0.000 S 
ATOM     23  C   UNL     1      44.248   3.365  10.775  0.00  0.00    +0.000 A 
ATOM     24  N   UNL     1      44.093   2.379   9.850  0.00  0.00    +0.000 NA
ATOM     25  C   UNL     1      44.719   2.586   8.738  0.00  0.00    +0.000 A 
ATOM     26  N   UNL     1      45.468   3.695   8.457  0.00  0.00    +0.000 N 
ATOM     27  C   UNL     1      45.589   4.749   9.330  0.00  0.00    +0.000 A 
ATOM     28  O   UNL     1      46.140   5.782   8.983  0.00  0.00    +0.000 OA
ATOM     29  C   UNL     1      44.964   4.539  10.623  0.00  0.00    +0.000 A 
ATOM     30  H   UNL     1      45.896   3.829   7.555  0.00  0.00    +0.000 HD
ENDBRANCH  17  20
ENDBRANCH   1  16
BRANCH   1  32
ATOM     31  C   UNL     1      50.068   8.838  11.498  0.00  0.00    +0.000 C 
ATOM     32  C   UNL     1      49.182   7.601  11.426  0.00  0.00    +0.000 C 
ENDBRANCH   1  32
TORSDOF 6
ENDMDL
MODEL 4
REMARK VINA RESULT:    -6.983      4.284     10.045
REMARK INTER + INTRA:          -9.866
REMARK INTER:                  -8.844
REMARK INTRA:                  -1.022
REMARK UNBOUND:                -0.434
REMARK  Name = 
REMARK  8 active torsions:
REMARK  status: ('A' for Active; 'I' for Inactive)
REMARK    1  A    between atoms: C_1  and  C_2
REMARK    2  A    between atoms: C_2  and  C_3
REMARK    3  A    between atoms: C_3  and  N_4
REMARK    4  A    between atoms: C_3  and  C_17
REMARK    5  A    between atoms: C_5  and  C_7
REMARK    6  A    between atoms: C_20  and  C_21
REMARK    7  A    between atoms: C_21  and  N_22
REMARK    8  A    between atoms: N_25  and  C_26
REMARK                            x       y       z     vdW  Elec       q    Type
REMARK                         _______ _______ _______ _____ _____    ______ ____
ROOT
ATOM      1  C   UNL     1      47.888   7.477  12.895  0.00  0.00    +0.000 C 
ENDROOT
BRANCH   1   2
ATOM      2  C   UNL     1      48.666   7.109  14.153  0.00  0.00    +0.000 A 
ATOM      3  C   UNL     1      48.105   6.234  15.094  0.00  0.00    +0.000 A 
ATOM      4  C   UNL     1      48.805   5.890  16.255  0.00  0.00    +0.000 A 
ATOM      5  C   UNL     1      50.090   6.398  16.493  0.00  0.00    +0.000 A 
ATOM      6  C   UNL     1      50.659   7.262  15.549  0.00  0.00    +0.000 A 
ATOM      7  C   UNL     1      49.956   7.611  14.394  0.00  0.00    +0.000 A 
BRANCH   5   8
ATOM      8  C   UNL     1      50.877   5.983  17.720  0.00  0.00    +0.000 C 
BRANCH   8   9
ATOM      9  N   UNL     1      51.823   4.892  17.455  0.00  0.00    +0.000 NA
ATOM     10  C   UNL     1      53.202   5.222  17.863  0.00  0.00    +0.000 C 
ATOM     11  C   UNL     1      54.171   4.062  17.548  0.00  0.00    +0.000 C 
ATOM     12  N   UNL     1      53.801   2.765  18.151  0.00  0.00    +0.000 NA
ATOM     13  C   UNL     1      54.059   2.750  19.588  0.00  0.00    +0.000 C 
ATOM     14  C   UNL     1      52.382   2.482  17.846  0.00  0.00    +0.000 C 
ATOM     15  C   UNL     1      51.402   3.648  18.128  0.00  0.00    +0.000 C 
ENDBRANCH   8   9
ENDBRANCH   5   8
ENDBRANCH   1   2
BRANCH   1  16
ATOM     16  N   UNL     1      47.012   6.373  12.541  0.00  0.00    +0.000 N 
ATOM     17  C   UNL     1      45.766   6.522  11.993  0.00  0.00    +0.000 C 
ATOM     18  O   UNL     1      45.297   7.616  11.699  0.00  0.00    +0.000 OA
ATOM     19  H   UNL     1      47.295   5.460  12.880  0.00  0.00    +0.000 HD
BRANCH  17  20
ATOM     20  C   UNL     1      45.032   5.274  11.743  0.00  0.00    +0.000 A 
ATOM     21  C   UNL     1      44.275   4.686  12.747  0.00  0.00    +0.000 A 
ATOM     22  S   UNL     1      43.520   3.231  12.266  0.00  0.00    +0.000 S 
ATOM     23  C   UNL     1      44.217   3.317  10.715  0.00  0.00    +0.000 A 
ATOM     24  N   UNL     1      44.017   2.332   9.797  0.00  0.00    +0.000 NA
ATOM     25  C   UNL     1      44.638   2.512   8.678  0.00  0.00    +0.000 A 
ATOM     26  N   UNL     1      45.422   3.594   8.384  0.00  0.00    +0.000 N 
ATOM     27  C   UNL     1      45.589   4.646   9.250  0.00  0.00    +0.000 A 
ATOM     28  O   UNL     1      46.171   5.658   8.892  0.00  0.00    +0.000 OA
ATOM     29  C   UNL     1      44.970   4.464  10.550  0.00  0.00    +0.000 A 
ATOM     30  H   UNL     1      45.845   3.708   7.476  0.00  0.00    +0.000 HD
ENDBRANCH  17  20
ENDBRANCH   1  16
BRANCH   1  32
ATOM     31  C   UNL     1      48.944   9.315  11.452  0.00  0.00    +0.000 C 
ATOM     32  C   UNL     1      48.810   7.820  11.709  0.00  0.00    +0.000 C 
ENDBRANCH   1  32
TORSDOF 6
ENDMDL
MODEL 5
REMARK VINA RESULT:    -6.972      4.673     10.738
REMARK INTER + INTRA:          -9.851
REMARK INTER:                  -8.754
REMARK INTRA:                  -1.098
REMARK UNBOUND:                -0.434
REMARK  Name = 
REMARK  8 active torsions:
REMARK  status: ('A' for Active; 'I' for Inactive)
REMARK    1  A    between atoms: C_1  and  C_2
REMARK    2  A    between atoms: C_2  and  C_3
REMARK    3  A    between atoms: C_3  and  N_4
REMARK    4  A    between atoms: C_3  and  C_17
REMARK    5  A    between atoms: C_5  and  C_7
REMARK    6  A    between atoms: C_20  and  C_21
REMARK    7  A    between atoms: C_21  and  N_22
REMARK    8  A    between atoms: N_25  and  C_26
REMARK                            x       y       z     vdW  Elec       q    Type
REMARK                         _______ _______ _______ _____ _____    ______ ____
ROOT
ATOM      1  C   UNL     1      48.416   7.745  12.432  0.00  0.00    +0.000 C 
ENDROOT
BRANCH   1   2
ATOM      2  C   UNL     1      48.811   7.242  13.816  0.00  0.00    +0.000 A 
ATOM      3  C   UNL     1      48.023   6.279  14.463  0.00  0.00    +0.000 A 
ATOM      4  C   UNL     1      48.369   5.811  15.735  0.00  0.00    +0.000 A 
ATOM      5  C   UNL     1      49.521   6.281  16.381  0.00  0.00    +0.000 A 
ATOM      6  C   UNL     1      50.317   7.234  15.733  0.00  0.00    +0.000 A 
ATOM      7  C   UNL     1      49.966   7.706  14.467  0.00  0.00    +0.000 A 
BRANCH   5   8
ATOM      8  C   UNL     1      49.934   5.735  17.733  0.00  0.00    +0.000 C 
BRANCH   8   9
ATOM      9  N   UNL     1      48.926   5.961  18.777  0.00  0.00    +0.000 NA
ATOM     10  C   UNL     1      49.188   5.178  20.000  0.00  0.00    +0.000 C 
ATOM     11  C   UNL     1      48.096   5.424  21.064  0.00  0.00    +0.000 C 
ATOM     12  N   UNL     1      47.908   6.839  21.444  0.00  0.00    +0.000 NA
ATOM     13  C   UNL     1      49.004   7.317  22.283  0.00  0.00    +0.000 C 
ATOM     14  C   UNL     1      47.765   7.650  20.216  0.00  0.00    +0.000 C 
ATOM     15  C   UNL     1      48.835   7.392  19.126  0.00  0.00    +0.000 C 
ENDBRANCH   8   9
ENDBRANCH   5   8
ENDBRANCH   1   2
BRANCH   1  16
ATOM     16  N   UNL     1      47.633   6.720  11.763  0.00  0.00    +0.000 N 
ATOM     17  C   UNL     1      46.291   6.819  11.508  0.00  0.00    +0.000 C 
ATOM     18  O   UNL     1      45.636   7.819  11.779  0.00  0.00    +0.000 OA
ATOM     19  H   UNL     1      48.094   5.826  11.636  0.00  0.00    +0.000 HD
BRANCH  17  20
ATOM     20  C   UNL     1      45.685   5.653  10.851  0.00  0.00    +0.000 A 
ATOM     21  C   UNL     1      45.770   5.492   9.474  0.00  0.00    +0.000 A 
ATOM     22  S   UNL     1      44.981   4.089   8.903  0.00  0.00    +0.000 S 
ATOM     23  C   UNL     1      44.462   3.675  10.470  0.00  0.00    +0.000 A 
ATOM     24  N   UNL     1      43.677   2.584  10.688  0.00  0.00    +0.000 NA
ATOM     25  C   UNL     1      43.329   2.415  11.921  0.00  0.00    +0.000 A 
ATOM     26  N   UNL     1      43.709   3.221  12.959  0.00  0.00    +0.000 N 
ATOM     27  C   UNL     1      44.561   4.286  12.798  0.00  0.00    +0.000 A 
ATOM     28  O   UNL     1      44.995   4.887  13.768  0.00  0.00    +0.000 OA
ATOM     29  C   UNL     1      44.928   4.565  11.421  0.00  0.00    +0.000 A 
ATOM     30  H   UNL     1      43.448   3.015  13.910  0.00  0.00    +0.000 HD
ENDBRANCH  17  20
ENDBRANCH   1  16
BRANCH   1  32
ATOM     31  C   UNL     1      49.824   9.624  11.402  0.00  0.00    +0.000 C 
ATOM     32  C   UNL     1      49.637   8.122  11.570  0.00  0.00    +0.000 C 
ENDBRANCH   1  32
TORSDOF 6
ENDMDL
MODEL 6
REMARK VINA RESULT:    -6.773      6.319     10.040
REMARK INTER + INTRA:          -9.582
REMARK INTER:                  -8.222
REMARK INTRA:                  -1.361
REMARK UNBOUND:                -0.434
REMARK  Name = 
REMARK  8 active torsions:
REMARK  status: ('A' for Active; 'I' for Inactive)
REMARK    1  A    between atoms: C_1  and  C_2
REMARK    2  A    between atoms: C_2  and  C_3
REMARK    3  A    between atoms: C_3  and  N_4
REMARK    4  A    between atoms: C_3  and  C_17
REMARK    5  A    between atoms: C_5  and  C_7
REMARK    6  A    between atoms: C_20  and  C_21
REMARK    7  A    between atoms: C_21  and  N_22
REMARK    8  A    between atoms: N_25  and  C_26
REMARK                            x       y       z     vdW  Elec       q    Type
REMARK                         _______ _______ _______ _____ _____    ______ ____
ROOT
ATOM      1  C   UNL     1      49.129   5.760  18.948  0.00  0.00    +0.000 C 
ENDROOT
BRANCH   1   2
ATOM      2  C   UNL     1      48.636   5.649  17.509  0.00  0.00    +0.000 A 
ATOM      3  C   UNL     1      47.838   4.563  17.123  0.00  0.00    +0.000 A 
ATOM      4  C   UNL     1      47.382   4.445  15.807  0.00  0.00    +0.000 A 
ATOM      5  C   UNL     1      47.697   5.421  14.850  0.00  0.00    +0.000 A 
ATOM      6  C   UNL     1      48.484   6.513  15.235  0.00  0.00    +0.000 A 
ATOM      7  C   UNL     1      48.945   6.626  16.548  0.00  0.00    +0.000 A 
BRANCH   5   8
ATOM      8  C   UNL     1      47.158   5.329  13.437  0.00  0.00    +0.000 C 
BRANCH   8   9
ATOM      9  N   UNL     1      45.765   4.866  13.381  0.00  0.00    +0.000 NA
ATOM     10  C   UNL     1      44.837   5.911  12.909  0.00  0.00    +0.000 C 
ATOM     11  C   UNL     1      43.381   5.395  12.886  0.00  0.00    +0.000 C 
ATOM     12  N   UNL     1      43.168   4.177  12.077  0.00  0.00    +0.000 NA
ATOM     13  C   UNL     1      43.214   4.470  10.647  0.00  0.00    +0.000 C 
ATOM     14  C   UNL     1      44.175   3.164  12.462  0.00  0.00    +0.000 C 
ATOM     15  C   UNL     1      45.636   3.675  12.519  0.00  0.00    +0.000 C 
ENDBRANCH   8   9
ENDBRANCH   5   8
ENDBRANCH   1   2
BRANCH   1  16
ATOM     16  N   UNL     1      50.233   4.835  19.141  0.00  0.00    +0.000 N 
ATOM     17  C   UNL     1      51.525   5.086  18.761  0.00  0.00    +0.000 C 
ATOM     18  O   UNL     1      51.876   6.151  18.265  0.00  0.00    +0.000 OA
ATOM     19  H   UNL     1      49.976   3.896  19.425  0.00  0.00    +0.000 HD
BRANCH  17  20
ATOM     20  C   UNL     1      52.481   4.001  19.018  0.00  0.00    +0.000 A 
ATOM     21  C   UNL     1      53.534   4.180  19.904  0.00  0.00    +0.000 A 
ATOM     22  S   UNL     1      54.547   2.811  20.045  0.00  0.00    +0.000 S 
ATOM     23  C   UNL     1      53.637   1.951  18.892  0.00  0.00    +0.000 A 
ATOM     24  N   UNL     1      54.001   0.700  18.497  0.00  0.00    +0.000 NA
ATOM     25  C   UNL     1      53.240   0.185  17.589  0.00  0.00    +0.000 A 
ATOM     26  N   UNL     1      52.138   0.793  17.054  0.00  0.00    +0.000 N 
ATOM     27  C   UNL     1      51.690   2.021  17.476  0.00  0.00    +0.000 A 
ATOM     28  O   UNL     1      50.621   2.461  17.083  0.00  0.00    +0.000 OA
ATOM     29  C   UNL     1      52.548   2.677  18.447  0.00  0.00    +0.000 A 
ATOM     30  H   UNL     1      51.550   0.325  16.382  0.00  0.00    +0.000 HD
ENDBRANCH  17  20
ENDBRANCH   1  16
BRANCH   1  32
ATOM     31  C   UNL     1      48.541   5.213  21.383  0.00  0.00    +0.000 C 
ATOM     32  C   UNL     1      48.018   5.477  19.977  0.00  0.00    +0.000 C 
ENDBRANCH   1  32
TORSDOF 6
ENDMDL
MODEL 7
REMARK VINA RESULT:    -6.595      6.194     11.996
REMARK INTER + INTRA:          -9.342
REMARK INTER:                  -8.258
REMARK INTRA:                  -1.084
REMARK UNBOUND:                -0.434
REMARK  Name = 
REMARK  8 active torsions:
REMARK  status: ('A' for Active; 'I' for Inactive)
REMARK    1  A    between atoms: C_1  and  C_2
REMARK    2  A    between atoms: C_2  and  C_3
REMARK    3  A    between atoms: C_3  and  N_4
REMARK    4  A    between atoms: C_3  and  C_17
REMARK    5  A    between atoms: C_5  and  C_7
REMARK    6  A    between atoms: C_20  and  C_21
REMARK    7  A    between atoms: C_21  and  N_22
REMARK    8  A    between atoms: N_25  and  C_26
REMARK                            x       y       z     vdW  Elec       q    Type
REMARK                         _______ _______ _______ _____ _____    ______ ____
ROOT
ATOM      1  C   UNL     1      48.070   4.421  16.364  0.00  0.00    +0.000 C 
ENDROOT
BRANCH   1   2
ATOM      2  C   UNL     1      48.104   5.428  17.509  0.00  0.00    +0.000 A 
ATOM      3  C   UNL     1      49.122   6.390  17.567  0.00  0.00    +0.000 A 
ATOM      4  C   UNL     1      49.168   7.317  18.613  0.00  0.00    +0.000 A 
ATOM      5  C   UNL     1      48.187   7.316  19.615  0.00  0.00    +0.000 A 
ATOM      6  C   UNL     1      47.162   6.364  19.553  0.00  0.00    +0.000 A 
ATOM      7  C   UNL     1      47.121   5.434  18.513  0.00  0.00    +0.000 A 
BRANCH   5   8
ATOM      8  C   UNL     1      48.198   8.354  20.718  0.00  0.00    +0.000 C 
BRANCH   8   9
ATOM      9  N   UNL     1      48.263   9.731  20.212  0.00  0.00    +0.000 NA
ATOM     10  C   UNL     1      47.121  10.072  19.342  0.00  0.00    +0.000 C 
ATOM     11  C   UNL     1      47.235  11.518  18.811  0.00  0.00    +0.000 C 
ATOM     12  N   UNL     1      47.354  12.554  19.856  0.00  0.00    +0.000 NA
ATOM     13  C   UNL     1      46.080  12.776  20.536  0.00  0.00    +0.000 C 
ATOM     14  C   UNL     1      48.419  12.160  20.804  0.00  0.00    +0.000 C 
ATOM     15  C   UNL     1      48.335  10.702  21.321  0.00  0.00    +0.000 C 
ENDBRANCH   8   9
ENDBRANCH   5   8
ENDBRANCH   1   2
BRANCH   1  16
ATOM     16  N   UNL     1      47.014   4.795  15.438  0.00  0.00    +0.000 N 
ATOM     17  C   UNL     1      46.909   4.320  14.157  0.00  0.00    +0.000 C 
ATOM     18  O   UNL     1      47.679   3.486  13.693  0.00  0.00    +0.000 OA
ATOM     19  H   UNL     1      46.432   5.573  15.724  0.00  0.00    +0.000 HD
BRANCH  17  20
ATOM     20  C   UNL     1      45.784   4.853  13.376  0.00  0.00    +0.000 A 
ATOM     21  C   UNL     1      44.723   4.035  13.015  0.00  0.00    +0.000 A 
ATOM     22  S   UNL     1      43.530   4.835  12.090  0.00  0.00    +0.000 S 
ATOM     23  C   UNL     1      44.416   6.289  12.104  0.00  0.00    +0.000 A 
ATOM     24  N   UNL     1      43.975   7.389  11.435  0.00  0.00    +0.000 NA
ATOM     25  C   UNL     1      44.768   8.408  11.503  0.00  0.00    +0.000 A 
ATOM     26  N   UNL     1      45.948   8.435  12.194  0.00  0.00    +0.000 N 
ATOM     27  C   UNL     1      46.394   7.376  12.944  0.00  0.00    +0.000 A 
ATOM     28  O   UNL     1      47.373   7.493  13.665  0.00  0.00    +0.000 OA
ATOM     29  C   UNL     1      45.577   6.179  12.848  0.00  0.00    +0.000 A 
ATOM     30  H   UNL     1      46.506   9.274  12.253  0.00  0.00    +0.000 HD
ENDBRANCH  17  20
ENDBRANCH   1  16
BRANCH   1  32
ATOM     31  C   UNL     1      49.097   2.103  16.743  0.00  0.00    +0.000 C 
ATOM     32  C   UNL     1      47.855   2.976  16.854  0.00  0.00    +0.000 C 
ENDBRANCH   1  32
TORSDOF 6
ENDMDL
MODEL 8
REMARK VINA RESULT:    -6.503      3.987     10.977
REMARK INTER + INTRA:          -9.218
REMARK INTER:                  -8.144
REMARK INTRA:                  -1.074
REMARK UNBOUND:                -0.434
REMARK  Name = 
REMARK  8 active torsions:
REMARK  status: ('A' for Active; 'I' for Inactive)
REMARK    1  A    between atoms: C_1  and  C_2
REMARK    2  A    between atoms: C_2  and  C_3
REMARK    3  A    between atoms: C_3  and  N_4
REMARK    4  A    between atoms: C_3  and  C_17
REMARK    5  A    between atoms: C_5  and  C_7
REMARK    6  A    between atoms: C_20  and  C_21
REMARK    7  A    between atoms: C_21  and  N_22
REMARK    8  A    between atoms: N_25  and  C_26
REMARK                            x       y       z     vdW  Elec       q    Type
REMARK                         _______ _______ _______ _____ _____    ______ ____
ROOT
ATOM      1  C   UNL     1      47.710   7.729  12.436  0.00  0.00    +0.000 C 
ENDROOT
BRANCH   1   2
ATOM      2  C   UNL     1      48.063   7.770  13.918  0.00  0.00    +0.000 A 
ATOM      3  C   UNL     1      48.472   6.601  14.576  0.00  0.00    +0.000 A 
ATOM      4  C   UNL     1      48.794   6.622  15.936  0.00  0.00    +0.000 A 
ATOM      5  C   UNL     1      48.735   7.818  16.666  0.00  0.00    +0.000 A 
ATOM      6  C   UNL     1      48.340   8.990  16.011  0.00  0.00    +0.000 A 
ATOM      7  C   UNL     1      48.010   8.966  14.654  0.00  0.00    +0.000 A 
BRANCH   5   8
ATOM      8  C   UNL     1      49.140   7.860  18.126  0.00  0.00    +0.000 C 
BRANCH   8   9
ATOM      9  N   UNL     1      50.568   7.588  18.336  0.00  0.00    +0.000 NA
ATOM     10  C   UNL     1      51.386   8.816  18.337  0.00  0.00    +0.000 C 
ATOM     11  C   UNL     1      52.883   8.489  18.536  0.00  0.00    +0.000 C 
ATOM     12  N   UNL     1      53.191   7.719  19.757  0.00  0.00    +0.000 NA
ATOM     13  C   UNL     1      53.090   8.550  20.954  0.00  0.00    +0.000 C 
ATOM     14  C   UNL     1      52.290   6.548  19.826  0.00  0.00    +0.000 C 
ATOM     15  C   UNL     1      50.790   6.856  19.597  0.00  0.00    +0.000 C 
ENDBRANCH   8   9
ENDBRANCH   5   8
ENDBRANCH   1   2
BRANCH   1  16
ATOM     16  N   UNL     1      46.888   6.558  12.179  0.00  0.00    +0.000 N 
ATOM     17  C   UNL     1      45.605   6.606  11.701  0.00  0.00    +0.000 C 
ATOM     18  O   UNL     1      45.051   7.656  11.394  0.00  0.00    +0.000 OA
ATOM     19  H   UNL     1      47.248   5.680  12.536  0.00  0.00    +0.000 HD
BRANCH  17  20
ATOM     20  C   UNL     1      44.939   5.306  11.546  0.00  0.00    +0.000 A 
ATOM     21  C   UNL     1      44.213   4.754  12.592  0.00  0.00    +0.000 A 
ATOM     22  S   UNL     1      43.537   3.229  12.221  0.00  0.00    +0.000 S 
ATOM     23  C   UNL     1      44.231   3.238  10.667  0.00  0.00    +0.000 A 
ATOM     24  N   UNL     1      44.085   2.179   9.824  0.00  0.00    +0.000 NA
ATOM     25  C   UNL     1      44.697   2.310   8.693  0.00  0.00    +0.000 A 
ATOM     26  N   UNL     1      45.422   3.407   8.318  0.00  0.00    +0.000 N 
ATOM     27  C   UNL     1      45.532   4.528   9.104  0.00  0.00    +0.000 A 
ATOM     28  O   UNL     1      46.059   5.541   8.672  0.00  0.00    +0.000 OA
ATOM     29  C   UNL     1      44.922   4.409  10.416  0.00  0.00    +0.000 A 
ATOM     30  H   UNL     1      45.840   3.477   7.403  0.00  0.00    +0.000 HD
ENDBRANCH  17  20
ENDBRANCH   1  16
BRANCH   1  32
ATOM     31  C   UNL     1      49.718   9.024  11.506  0.00  0.00    +0.000 C 
ATOM     32  C   UNL     1      48.958   7.705  11.531  0.00  0.00    +0.000 C 
ENDBRANCH   1  32
TORSDOF 6
ENDMDL
MODEL 9
REMARK VINA RESULT:    -6.473      5.517      7.758
REMARK INTER + INTRA:          -9.177
REMARK INTER:                  -8.009
REMARK INTRA:                  -1.169
REMARK UNBOUND:                -0.434
REMARK  Name = 
REMARK  8 active torsions:
REMARK  status: ('A' for Active; 'I' for Inactive)
REMARK    1  A    between atoms: C_1  and  C_2
REMARK    2  A    between atoms: C_2  and  C_3
REMARK    3  A    between atoms: C_3  and  N_4
REMARK    4  A    between atoms: C_3  and  C_17
REMARK    5  A    between atoms: C_5  and  C_7
REMARK    6  A    between atoms: C_20  and  C_21
REMARK    7  A    between atoms: C_21  and  N_22
REMARK    8  A    between atoms: N_25  and  C_26
REMARK                            x       y       z     vdW  Elec       q    Type
REMARK                         _______ _______ _______ _____ _____    ______ ____
ROOT
ATOM      1  C   UNL     1      49.100   8.076  13.904  0.00  0.00    +0.000 C 
ENDROOT
BRANCH   1   2
ATOM      2  C   UNL     1      50.245   8.074  12.898  0.00  0.00    +0.000 A 
ATOM      3  C   UNL     1      51.504   8.571  13.265  0.00  0.00    +0.000 A 
ATOM      4  C   UNL     1      52.562   8.580  12.352  0.00  0.00    +0.000 A 
ATOM      5  C   UNL     1      52.393   8.074  11.055  0.00  0.00    +0.000 A 
ATOM      6  C   UNL     1      51.141   7.566  10.688  0.00  0.00    +0.000 A 
ATOM      7  C   UNL     1      50.082   7.565  11.598  0.00  0.00    +0.000 A 
BRANCH   5   8
ATOM      8  C   UNL     1      53.551   8.027  10.079  0.00  0.00    +0.000 C 
BRANCH   8   9
ATOM      9  N   UNL     1      53.178   7.479   8.769  0.00  0.00    +0.000 NA
ATOM     10  C   UNL     1      53.635   8.324   7.649  0.00  0.00    +0.000 C 
ATOM     11  C   UNL     1      53.204   7.729   6.290  0.00  0.00    +0.000 C 
ATOM     12  N   UNL     1      53.656   6.344   6.048  0.00  0.00    +0.000 NA
ATOM     13  C   UNL     1      55.086   6.292   5.754  0.00  0.00    +0.000 C 
ATOM     14  C   UNL     1      53.308   5.514   7.222  0.00  0.00    +0.000 C 
ATOM     15  C   UNL     1      53.706   6.113   8.594  0.00  0.00    +0.000 C 
ENDBRANCH   8   9
ENDBRANCH   5   8
ENDBRANCH   1   2
BRANCH   1  16
ATOM     16  N   UNL     1      48.041   7.208  13.417  0.00  0.00    +0.000 N 
ATOM     17  C   UNL     1      47.648   6.051  14.034  0.00  0.00    +0.000 C 
ATOM     18  O   UNL     1      48.127   5.669  15.097  0.00  0.00    +0.000 OA
ATOM     19  H   UNL     1      47.705   7.407  12.481  0.00  0.00    +0.000 HD
BRANCH  17  20
ATOM     20  C   UNL     1      46.581   5.303  13.355  0.00  0.00    +0.000 A 
ATOM     21  C   UNL     1      46.615   3.917  13.297  0.00  0.00    +0.000 A 
ATOM     22  S   UNL     1      45.299   3.238  12.444  0.00  0.00    +0.000 S 
ATOM     23  C   UNL     1      44.667   4.777  12.085  0.00  0.00    +0.000 A 
ATOM     24  N   UNL     1      43.551   4.920  11.319  0.00  0.00    +0.000 NA
ATOM     25  C   UNL     1      43.209   6.146  11.098  0.00  0.00    +0.000 A 
ATOM     26  N   UNL     1      43.864   7.242  11.588  0.00  0.00    +0.000 N 
ATOM     27  C   UNL     1      44.947   7.145  12.427  0.00  0.00    +0.000 A 
ATOM     28  O   UNL     1      45.409   8.140  12.963  0.00  0.00    +0.000 OA
ATOM     29  C   UNL     1      45.418   5.790  12.653  0.00  0.00    +0.000 A 
ATOM     30  H   UNL     1      43.525   8.177  11.424  0.00  0.00    +0.000 HD
ENDBRANCH  17  20
ENDBRANCH   1  16
BRANCH   1  32
ATOM     31  C   UNL     1      48.175  10.243  12.893  0.00  0.00    +0.000 C 
ATOM     32  C   UNL     1      48.544   9.490  14.164  0.00  0.00    +0.000 C 
ENDBRANCH   1  32
TORSDOF 6
ENDMDL
