MODEL 1
REMARK VINA RESULT:    -8.911      0.000      0.000
REMARK INTER + INTRA:         -13.731
REMARK INTER:                 -12.557
REMARK INTRA:                  -1.174
REMARK UNBOUND:                -1.174
REMARK  Name = 
REMARK  8 active torsions:
REMARK  status: ('A' for Active; 'I' for Inactive)
REMARK    1  A    between atoms: C_1  and  O_2
REMARK    2  A    between atoms: O_2  and  C_3
REMARK    3  A    between atoms: C_6  and  C_7
REMARK    4  A    between atoms: C_7  and  N_8
REMARK    5  A    between atoms: C_9  and  C_11
REMARK    6  A    between atoms: C_22  and  C_23
REMARK    7  A    between atoms: C_23  and  N_24
REMARK    8  A    between atoms: C_25  and  C_27
REMARK                            x       y       z     vdW  Elec       q    Type
REMARK                         _______ _______ _______ _____ _____    ______ ____
ROOT
ATOM      1  C   UNL     1      45.388   6.854  11.977  0.00  0.00    +0.000 A 
ATOM      2  C   UNL     1      46.378   7.064  12.944  0.00  0.00    +0.000 A 
ATOM      3  C   UNL     1      46.868   6.003  13.705  0.00  0.00    +0.000 A 
ATOM      4  C   UNL     1      46.366   4.713  13.525  0.00  0.00    +0.000 A 
ATOM      5  C   UNL     1      45.408   4.494  12.526  0.00  0.00    +0.000 A 
ATOM      6  C   UNL     1      44.927   5.549  11.726  0.00  0.00    +0.000 A 
ENDROOT
BRANCH   1   8
ATOM      7  C   UNL     1      44.957   9.168  11.776  0.00  0.00    +0.000 C 
ATOM      8  O   UNL     1      44.867   7.863  11.205  0.00  0.00    +0.000 OA
ENDBRANCH   1   8
BRANCH   4   9
ATOM      9  C   UNL     1      46.881   3.577  14.364  0.00  0.00    +0.000 C 
BRANCH   9  10
ATOM     10  N   UNL     1      47.762   4.044  15.407  0.00  0.00    +0.000 N 
ATOM     11  C   UNL     1      47.509   3.819  16.734  0.00  0.00    +0.000 C 
ATOM     12  O   UNL     1      46.511   3.216  17.119  0.00  0.00    +0.000 OA
ATOM     13  H   UNL     1      48.487   4.698  15.134  0.00  0.00    +0.000 HD
BRANCH  11  14
ATOM     14  C   UNL     1      48.532   4.275  17.686  0.00  0.00    +0.000 A 
ATOM     15  C   UNL     1      48.254   5.358  18.513  0.00  0.00    +0.000 A 
ATOM     16  S   UNL     1      49.529   5.761  19.569  0.00  0.00    +0.000 S 
ATOM     17  C   UNL     1      50.515   4.529  18.933  0.00  0.00    +0.000 A 
ATOM     18  N   UNL     1      51.785   4.352  19.387  0.00  0.00    +0.000 NA
ATOM     19  C   UNL     1      52.432   3.401  18.800  0.00  0.00    +0.000 A 
ATOM     20  N   UNL     1      51.920   2.603  17.811  0.00  0.00    +0.000 N 
ATOM     21  C   UNL     1      50.624   2.705  17.364  0.00  0.00    +0.000 A 
ATOM     22  O   UNL     1      50.164   1.908  16.553  0.00  0.00    +0.000 OA
ATOM     23  C   UNL     1      49.867   3.795  17.954  0.00  0.00    +0.000 A 
ATOM     24  H   UNL     1      52.470   1.857  17.413  0.00  0.00    +0.000 HD
ENDBRANCH  11  14
ENDBRANCH   9  10
ENDBRANCH   4   9
BRANCH   6  25
ATOM     25  C   UNL     1      43.943   5.233  10.627  0.00  0.00    +0.000 C 
BRANCH  25  26
ATOM     26  N   UNL     1      44.552   4.571   9.494  0.00  0.00    +0.000 N 
ATOM     27  C   UNL     1      44.488   3.209   9.300  0.00  0.00    +0.000 C 
ATOM     28  O   UNL     1      43.921   2.450  10.083  0.00  0.00    +0.000 OA
ATOM     29  H   UNL     1      45.014   5.159   8.818  0.00  0.00    +0.000 HD
BRANCH  27  30
ATOM     30  C   UNL     1      45.245   2.715   8.059  0.00  0.00    +0.000 C 
ATOM     31  C   UNL     1      46.117   1.494   8.385  0.00  0.00    +0.000 C 
ATOM     32  C   UNL     1      46.917   1.024   7.172  0.00  0.00    +0.000 C 
ATOM     33  C   UNL     1      47.770   2.146   6.594  0.00  0.00    +0.000 C 
ATOM     34  C   UNL     1      46.918   3.361   6.246  0.00  0.00    +0.000 C 
ATOM     35  C   UNL     1      46.100   3.839   7.445  0.00  0.00    +0.000 C 
ENDBRANCH  27  30
ENDBRANCH  25  26
ENDBRANCH   6  25
TORSDOF 7
ENDMDL
MODEL 2
REMARK VINA RESULT:    -8.566      1.712      2.069
REMARK INTER + INTRA:         -13.246
REMARK INTER:                 -12.061
REMARK INTRA:                  -1.184
REMARK UNBOUND:                -1.174
REMARK  Name = 
REMARK  8 active torsions:
REMARK  status: ('A' for Active; 'I' for Inactive)
REMARK    1  A    between atoms: C_1  and  O_2
REMARK    2  A    between atoms: O_2  and  C_3
REMARK    3  A    between atoms: C_6  and  C_7
REMARK    4  A    between atoms: C_7  and  N_8
REMARK    5  A    between atoms: C_9  and  C_11
REMARK    6  A    between atoms: C_22  and  C_23
REMARK    7  A    between atoms: C_23  and  N_24
REMARK    8  A    between atoms: C_25  and  C_27
REMARK                            x       y       z     vdW  Elec       q    Type
REMARK                         _______ _______ _______ _____ _____    ______ ____
ROOT
ATOM      1  C   UNL     1      45.043   6.655  11.790  0.00  0.00    +0.000 A 
ATOM      2  C   UNL     1      46.052   6.957  12.711  0.00  0.00    +0.000 A 
ATOM      3  C   UNL     1      46.662   5.950  13.458  0.00  0.00    +0.000 A 
ATOM      4  C   UNL     1      46.264   4.619  13.309  0.00  0.00    +0.000 A 
ATOM      5  C   UNL     1      45.286   4.311  12.354  0.00  0.00    +0.000 A 
ATOM      6  C   UNL     1      44.684   5.313  11.569  0.00  0.00    +0.000 A 
ENDROOT
BRANCH   1   8
ATOM      7  C   UNL     1      44.646   8.956  11.436  0.00  0.00    +0.000 C 
ATOM      8  O   UNL     1      44.406   7.608  11.034  0.00  0.00    +0.000 OA
ENDBRANCH   1   8
BRANCH   4   9
ATOM      9  C   UNL     1      46.908   3.540  14.133  0.00  0.00    +0.000 C 
BRANCH   9  10
ATOM     10  N   UNL     1      47.315   4.031  15.427  0.00  0.00    +0.000 N 
ATOM     11  C   UNL     1      48.203   3.354  16.221  0.00  0.00    +0.000 C 
ATOM     12  O   UNL     1      48.699   2.283  15.885  0.00  0.00    +0.000 OA
ATOM     13  H   UNL     1      46.786   4.808  15.808  0.00  0.00    +0.000 HD
BRANCH  11  14
ATOM     14  C   UNL     1      48.595   4.010  17.477  0.00  0.00    +0.000 A 
ATOM     15  C   UNL     1      48.391   3.345  18.680  0.00  0.00    +0.000 A 
ATOM     16  S   UNL     1      48.907   4.224  20.047  0.00  0.00    +0.000 S 
ATOM     17  C   UNL     1      49.385   5.542  19.083  0.00  0.00    +0.000 A 
ATOM     18  N   UNL     1      49.890   6.670  19.651  0.00  0.00    +0.000 NA
ATOM     19  C   UNL     1      50.186   7.603  18.809  0.00  0.00    +0.000 A 
ATOM     20  N   UNL     1      50.035   7.505  17.450  0.00  0.00    +0.000 N 
ATOM     21  C   UNL     1      49.587   6.364  16.828  0.00  0.00    +0.000 A 
ATOM     22  O   UNL     1      49.563   6.271  15.606  0.00  0.00    +0.000 OA
ATOM     23  C   UNL     1      49.189   5.301  17.734  0.00  0.00    +0.000 A 
ATOM     24  H   UNL     1      50.314   8.262  16.844  0.00  0.00    +0.000 HD
ENDBRANCH  11  14
ENDBRANCH   9  10
ENDBRANCH   4   9
BRANCH   6  25
ATOM     25  C   UNL     1      43.684   4.904  10.516  0.00  0.00    +0.000 C 
BRANCH  25  26
ATOM     26  N   UNL     1      44.214   3.944   9.573  0.00  0.00    +0.000 N 
ATOM     27  C   UNL     1      45.232   4.242   8.694  0.00  0.00    +0.000 C 
ATOM     28  O   UNL     1      45.758   5.351   8.634  0.00  0.00    +0.000 OA
ATOM     29  H   UNL     1      43.821   3.015   9.599  0.00  0.00    +0.000 HD
BRANCH  27  30
ATOM     30  C   UNL     1      45.604   3.090   7.750  0.00  0.00    +0.000 C 
ATOM     31  C   UNL     1      46.131   1.876   8.530  0.00  0.00    +0.000 C 
ATOM     32  C   UNL     1      46.556   0.741   7.599  0.00  0.00    +0.000 C 
ATOM     33  C   UNL     1      47.589   1.208   6.581  0.00  0.00    +0.000 C 
ATOM     34  C   UNL     1      47.076   2.401   5.784  0.00  0.00    +0.000 C 
ATOM     35  C   UNL     1      46.633   3.543   6.698  0.00  0.00    +0.000 C 
ENDBRANCH  27  30
ENDBRANCH  25  26
ENDBRANCH   6  25
TORSDOF 7
ENDMDL
MODEL 3
REMARK VINA RESULT:    -8.393      1.777      2.123
REMARK INTER + INTRA:         -13.002
REMARK INTER:                 -11.975
REMARK INTRA:                  -1.026
REMARK UNBOUND:                -1.174
REMARK  Name = 
REMARK  8 active torsions:
REMARK  status: ('A' for Active; 'I' for Inactive)
REMARK    1  A    between atoms: C_1  and  O_2
REMARK    2  A    between atoms: O_2  and  C_3
REMARK    3  A    between atoms: C_6  and  C_7
REMARK    4  A    between atoms: C_7  and  N_8
REMARK    5  A    between atoms: C_9  and  C_11
REMARK    6  A    between atoms: C_22  and  C_23
REMARK    7  A    between atoms: C_23  and  N_24
REMARK    8  A    between atoms: C_25  and  C_27
REMARK                            x       y       z     vdW  Elec       q    Type
REMARK                         _______ _______ _______ _____ _____    ______ ____
ROOT
ATOM      1  C   UNL     1      45.240   7.241  11.893  0.00  0.00    +0.000 A 
ATOM      2  C   UNL     1      46.275   7.680  12.728  0.00  0.00    +0.000 A 
ATOM      3  C   UNL     1      46.953   6.785  13.554  0.00  0.00    +0.000 A 
ATOM      4  C   UNL     1      46.599   5.434  13.575  0.00  0.00    +0.000 A 
ATOM      5  C   UNL     1      45.595   4.986  12.706  0.00  0.00    +0.000 A 
ATOM      6  C   UNL     1      44.924   5.872  11.841  0.00  0.00    +0.000 A 
ENDROOT
BRANCH   1   8
ATOM      7  C   UNL     1      44.543   9.454  11.451  0.00  0.00    +0.000 C 
ATOM      8  O   UNL     1      44.537   8.080  11.065  0.00  0.00    +0.000 OA
ENDBRANCH   1   8
BRANCH   4   9
ATOM      9  C   UNL     1      47.318   4.477  14.485  0.00  0.00    +0.000 C 
BRANCH   9  10
ATOM     10  N   UNL     1      47.418   4.996  15.828  0.00  0.00    +0.000 N 
ATOM     11  C   UNL     1      48.512   5.698  16.261  0.00  0.00    +0.000 C 
ATOM     12  O   UNL     1      49.479   5.919  15.538  0.00  0.00    +0.000 OA
ATOM     13  H   UNL     1      46.727   4.672  16.496  0.00  0.00    +0.000 HD
BRANCH  11  14
ATOM     14  C   UNL     1      48.446   6.242  17.625  0.00  0.00    +0.000 A 
ATOM     15  C   UNL     1      48.374   7.619  17.803  0.00  0.00    +0.000 A 
ATOM     16  S   UNL     1      48.291   8.097  19.437  0.00  0.00    +0.000 S 
ATOM     17  C   UNL     1      48.388   6.484  19.968  0.00  0.00    +0.000 A 
ATOM     18  N   UNL     1      48.405   6.190  21.296  0.00  0.00    +0.000 NA
ATOM     19  C   UNL     1      48.510   4.931  21.562  0.00  0.00    +0.000 A 
ATOM     20  N   UNL     1      48.586   3.938  20.619  0.00  0.00    +0.000 N 
ATOM     21  C   UNL     1      48.511   4.182  19.269  0.00  0.00    +0.000 A 
ATOM     22  O   UNL     1      48.475   3.265  18.456  0.00  0.00    +0.000 OA
ATOM     23  C   UNL     1      48.445   5.589  18.913  0.00  0.00    +0.000 A 
ATOM     24  H   UNL     1      48.637   2.969  20.894  0.00  0.00    +0.000 HD
ENDBRANCH  11  14
ENDBRANCH   9  10
ENDBRANCH   4   9
BRANCH   6  25
ATOM     25  C   UNL     1      43.898   5.312  10.887  0.00  0.00    +0.000 C 
BRANCH  25  26
ATOM     26  N   UNL     1      44.487   4.681   9.726  0.00  0.00    +0.000 N 
ATOM     27  C   UNL     1      44.444   3.321   9.512  0.00  0.00    +0.000 C 
ATOM     28  O   UNL     1      43.915   2.538  10.297  0.00  0.00    +0.000 OA
ATOM     29  H   UNL     1      44.918   5.289   9.047  0.00  0.00    +0.000 HD
BRANCH  27  30
ATOM     30  C   UNL     1      45.175   2.863   8.241  0.00  0.00    +0.000 C 
ATOM     31  C   UNL     1      45.986   1.583   8.493  0.00  0.00    +0.000 C 
ATOM     32  C   UNL     1      46.761   1.145   7.252  0.00  0.00    +0.000 C 
ATOM     33  C   UNL     1      47.668   2.256   6.737  0.00  0.00    +0.000 C 
ATOM     34  C   UNL     1      46.877   3.529   6.463  0.00  0.00    +0.000 C 
ATOM     35  C   UNL     1      46.084   3.976   7.690  0.00  0.00    +0.000 C 
ENDBRANCH  27  30
ENDBRANCH  25  26
ENDBRANCH   6  25
TORSDOF 7
ENDMDL
MODEL 4
REMARK VINA RESULT:    -8.250      2.144      2.918
REMARK INTER + INTRA:         -12.800
REMARK INTER:                 -11.479
REMARK INTRA:                  -1.321
REMARK UNBOUND:                -1.174
REMARK  Name = 
REMARK  8 active torsions:
REMARK  status: ('A' for Active; 'I' for Inactive)
REMARK    1  A    between atoms: C_1  and  O_2
REMARK    2  A    between atoms: O_2  and  C_3
REMARK    3  A    between atoms: C_6  and  C_7
REMARK    4  A    between atoms: C_7  and  N_8
REMARK    5  A    between atoms: C_9  and  C_11
REMARK    6  A    between atoms: C_22  and  C_23
REMARK    7  A    between atoms: C_23  and  N_24
REMARK    8  A    between atoms: C_25  and  C_27
REMARK                            x       y       z     vdW  Elec       q    Type
REMARK                         _______ _______ _______ _____ _____    ______ ____
ROOT
ATOM      1  C   UNL     1      45.765   4.485  12.688  0.00  0.00    +0.000 A 
ATOM      2  C   UNL     1      46.283   4.315  13.977  0.00  0.00    +0.000 A 
ATOM      3  C   UNL     1      47.182   5.238  14.512  0.00  0.00    +0.000 A 
ATOM      4  C   UNL     1      47.592   6.342  13.762  0.00  0.00    +0.000 A 
ATOM      5  C   UNL     1      47.038   6.538  12.489  0.00  0.00    +0.000 A 
ATOM      6  C   UNL     1      46.105   5.633  11.948  0.00  0.00    +0.000 A 
ENDROOT
BRANCH   1   8
ATOM      7  C   UNL     1      43.562   3.634  12.650  0.00  0.00    +0.000 C 
ATOM      8  O   UNL     1      44.883   3.605  12.112  0.00  0.00    +0.000 OA
ENDBRANCH   1   8
BRANCH   4   9
ATOM      9  C   UNL     1      48.579   7.322  14.334  0.00  0.00    +0.000 C 
BRANCH   9  10
ATOM     10  N   UNL     1      48.596   7.276  15.776  0.00  0.00    +0.000 N 
ATOM     11  C   UNL     1      49.678   6.820  16.481  0.00  0.00    +0.000 C 
ATOM     12  O   UNL     1      50.696   6.411  15.929  0.00  0.00    +0.000 OA
ATOM     13  H   UNL     1      47.712   7.429  16.249  0.00  0.00    +0.000 HD
BRANCH  11  14
ATOM     14  C   UNL     1      49.595   6.908  17.946  0.00  0.00    +0.000 A 
ATOM     15  C   UNL     1      49.939   8.100  18.574  0.00  0.00    +0.000 A 
ATOM     16  S   UNL     1      49.779   8.054  20.270  0.00  0.00    +0.000 S 
ATOM     17  C   UNL     1      49.282   6.427  20.231  0.00  0.00    +0.000 A 
ATOM     18  N   UNL     1      49.014   5.754  21.383  0.00  0.00    +0.000 NA
ATOM     19  C   UNL     1      48.674   4.521  21.212  0.00  0.00    +0.000 A 
ATOM     20  N   UNL     1      48.564   3.903  19.994  0.00  0.00    +0.000 N 
ATOM     21  C   UNL     1      48.765   4.558  18.802  0.00  0.00    +0.000 A 
ATOM     22  O   UNL     1      48.556   4.006  17.727  0.00  0.00    +0.000 OA
ATOM     23  C   UNL     1      49.201   5.936  18.939  0.00  0.00    +0.000 A 
ATOM     24  H   UNL     1      48.265   2.942  19.928  0.00  0.00    +0.000 HD
ENDBRANCH  11  14
ENDBRANCH   9  10
ENDBRANCH   4   9
BRANCH   6  25
ATOM     25  C   UNL     1      45.500   5.937  10.599  0.00  0.00    +0.000 C 
BRANCH  25  26
ATOM     26  N   UNL     1      45.829   4.949   9.595  0.00  0.00    +0.000 N 
ATOM     27  C   UNL     1      44.873   4.236   8.906  0.00  0.00    +0.000 C 
ATOM     28  O   UNL     1      43.668   4.374   9.101  0.00  0.00    +0.000 OA
ATOM     29  H   UNL     1      46.808   4.815   9.391  0.00  0.00    +0.000 HD
BRANCH  27  30
ATOM     30  C   UNL     1      45.446   3.206   7.922  0.00  0.00    +0.000 C 
ATOM     31  C   UNL     1      45.861   1.915   8.643  0.00  0.00    +0.000 C 
ATOM     32  C   UNL     1      46.482   0.901   7.684  0.00  0.00    +0.000 C 
ATOM     33  C   UNL     1      47.667   1.494   6.932  0.00  0.00    +0.000 C 
ATOM     34  C   UNL     1      47.268   2.766   6.193  0.00  0.00    +0.000 C 
ATOM     35  C   UNL     1      46.633   3.789   7.134  0.00  0.00    +0.000 C 
ENDBRANCH  27  30
ENDBRANCH  25  26
ENDBRANCH   6  25
TORSDOF 7
ENDMDL
MODEL 5
REMARK VINA RESULT:    -8.245      2.121      3.197
REMARK INTER + INTRA:         -12.794
REMARK INTER:                 -11.433
REMARK INTRA:                  -1.361
REMARK UNBOUND:                -1.174
REMARK  Name = 
REMARK  8 active torsions:
REMARK  status: ('A' for Active; 'I' for Inactive)
REMARK    1  A    between atoms: C_1  and  O_2
REMARK    2  A    between atoms: O_2  and  C_3
REMARK    3  A    between atoms: C_6  and  C_7
REMARK    4  A    between atoms: C_7  and  N_8
REMARK    5  A    between atoms: C_9  and  C_11
REMARK    6  A    between atoms: C_22  and  C_23
REMARK    7  A    between atoms: C_23  and  N_24
REMARK    8  A    between atoms: C_25  and  C_27
REMARK                            x       y       z     vdW  Elec       q    Type
REMARK                         _______ _______ _______ _____ _____    ______ ____
ROOT
ATOM      1  C   UNL     1      45.243   9.054  11.777  0.00  0.00    +0.000 A 
ATOM      2  C   UNL     1      46.346   9.900  11.939  0.00  0.00    +0.000 A 
ATOM      3  C   UNL     1      47.620   9.377  12.161  0.00  0.00    +0.000 A 
ATOM      4  C   UNL     1      47.814   7.996  12.242  0.00  0.00    +0.000 A 
ATOM      5  C   UNL     1      46.718   7.148  12.035  0.00  0.00    +0.000 A 
ATOM      6  C   UNL     1      45.431   7.660  11.776  0.00  0.00    +0.000 A 
ENDROOT
BRANCH   1   8
ATOM      7  C   UNL     1      43.847  10.494  10.530  0.00  0.00    +0.000 C 
ATOM      8  O   UNL     1      43.968   9.515  11.562  0.00  0.00    +0.000 OA
ENDBRANCH   1   8
BRANCH   4   9
ATOM      9  C   UNL     1      49.185   7.439  12.506  0.00  0.00    +0.000 C 
BRANCH   9  10
ATOM     10  N   UNL     1      49.229   6.702  13.745  0.00  0.00    +0.000 N 
ATOM     11  C   UNL     1      49.328   7.323  14.962  0.00  0.00    +0.000 C 
ATOM     12  O   UNL     1      49.397   8.544  15.073  0.00  0.00    +0.000 OA
ATOM     13  H   UNL     1      49.361   5.698  13.677  0.00  0.00    +0.000 HD
BRANCH  11  14
ATOM     14  C   UNL     1      49.277   6.457  16.149  0.00  0.00    +0.000 A 
ATOM     15  C   UNL     1      50.139   6.710  17.210  0.00  0.00    +0.000 A 
ATOM     16  S   UNL     1      49.953   5.632  18.518  0.00  0.00    +0.000 S 
ATOM     17  C   UNL     1      48.743   4.763  17.698  0.00  0.00    +0.000 A 
ATOM     18  N   UNL     1      48.172   3.665  18.263  0.00  0.00    +0.000 NA
ATOM     19  C   UNL     1      47.288   3.084  17.523  0.00  0.00    +0.000 A 
ATOM     20  N   UNL     1      46.913   3.509  16.274  0.00  0.00    +0.000 N 
ATOM     21  C   UNL     1      47.417   4.646  15.689  0.00  0.00    +0.000 A 
ATOM     22  O   UNL     1      46.985   5.058  14.618  0.00  0.00    +0.000 OA
ATOM     23  C   UNL     1      48.455   5.310  16.458  0.00  0.00    +0.000 A 
ATOM     24  H   UNL     1      46.194   3.026  15.759  0.00  0.00    +0.000 HD
ENDBRANCH  11  14
ENDBRANCH   9  10
ENDBRANCH   4   9
BRANCH   6  25
ATOM     25  C   UNL     1      44.309   6.690  11.500  0.00  0.00    +0.000 C 
BRANCH  25  26
ATOM     26  N   UNL     1      44.609   5.766  10.428  0.00  0.00    +0.000 N 
ATOM     27  C   UNL     1      43.990   4.543  10.299  0.00  0.00    +0.000 C 
ATOM     28  O   UNL     1      43.144   4.136  11.092  0.00  0.00    +0.000 OA
ATOM     29  H   UNL     1      45.287   6.066   9.744  0.00  0.00    +0.000 HD
BRANCH  27  30
ATOM     30  C   UNL     1      44.496   3.703   9.117  0.00  0.00    +0.000 C 
ATOM     31  C   UNL     1      44.978   2.320   9.580  0.00  0.00    +0.000 C 
ATOM     32  C   UNL     1      45.534   1.494   8.422  0.00  0.00    +0.000 C 
ATOM     33  C   UNL     1      46.653   2.229   7.695  0.00  0.00    +0.000 C 
ATOM     34  C   UNL     1      46.187   3.598   7.211  0.00  0.00    +0.000 C 
ATOM     35  C   UNL     1      45.614   4.435   8.354  0.00  0.00    +0.000 C 
ENDBRANCH  27  30
ENDBRANCH  25  26
ENDBRANCH   6  25
TORSDOF 7
ENDMDL
MODEL 6
REMARK VINA RESULT:    -7.987      2.150      3.072
REMARK INTER + INTRA:         -12.429
REMARK INTER:                 -11.047
REMARK INTRA:                  -1.382
REMARK UNBOUND:                -1.174
REMARK  Name = 
REMARK  8 active torsions:
REMARK  status: ('A' for Active; 'I' for Inactive)
REMARK    1  A    between atoms: C_1  and  O_2
REMARK    2  A    between atoms: O_2  and  C_3
REMARK    3  A    between atoms: C_6  and  C_7
REMARK    4  A    between atoms: C_7  and  N_8
REMARK    5  A    between atoms: C_9  and  C_11
REMARK    6  A    between atoms: C_22  and  C_23
REMARK    7  A    between atoms: C_23  and  N_24
REMARK    8  A    between atoms: C_25  and  C_27
REMARK                            x       y       z     vdW  Elec       q    Type
REMARK                         _______ _______ _______ _____ _____    ______ ____
ROOT
ATOM      1  C   UNL     1      43.997   4.156  11.986  0.00  0.00    +0.000 A 
ATOM      2  C   UNL     1      44.512   4.204  13.287  0.00  0.00    +0.000 A 
ATOM      3  C   UNL     1      45.576   5.049  13.602  0.00  0.00    +0.000 A 
ATOM      4  C   UNL     1      46.156   5.854  12.619  0.00  0.00    +0.000 A 
ATOM      5  C   UNL     1      45.610   5.841  11.328  0.00  0.00    +0.000 A 
ATOM      6  C   UNL     1      44.515   5.017  11.002  0.00  0.00    +0.000 A 
ENDROOT
BRANCH   1   8
ATOM      7  C   UNL     1      43.245   1.942  11.655  0.00  0.00    +0.000 C 
ATOM      8  O   UNL     1      42.956   3.339  11.621  0.00  0.00    +0.000 OA
ENDBRANCH   1   8
BRANCH   4   9
ATOM      9  C   UNL     1      47.317   6.746  12.959  0.00  0.00    +0.000 C 
BRANCH   9  10
ATOM     10  N   UNL     1      47.658   6.663  14.358  0.00  0.00    +0.000 N 
ATOM     11  C   UNL     1      48.904   6.985  14.828  0.00  0.00    +0.000 C 
ATOM     12  O   UNL     1      49.811   7.353  14.086  0.00  0.00    +0.000 OA
ATOM     13  H   UNL     1      46.996   6.189  14.963  0.00  0.00    +0.000 HD
BRANCH  11  14
ATOM     14  C   UNL     1      49.091   6.937  16.285  0.00  0.00    +0.000 A 
ATOM     15  C   UNL     1      49.506   8.083  16.953  0.00  0.00    +0.000 A 
ATOM     16  S   UNL     1      49.665   7.877  18.637  0.00  0.00    +0.000 S 
ATOM     17  C   UNL     1      49.225   6.237  18.531  0.00  0.00    +0.000 A 
ATOM     18  N   UNL     1      49.199   5.451  19.641  0.00  0.00    +0.000 NA
ATOM     19  C   UNL     1      48.876   4.222  19.416  0.00  0.00    +0.000 A 
ATOM     20  N   UNL     1      48.563   3.711  18.183  0.00  0.00    +0.000 N 
ATOM     21  C   UNL     1      48.516   4.479  17.045  0.00  0.00    +0.000 A 
ATOM     22  O   UNL     1      48.130   4.015  15.977  0.00  0.00    +0.000 OA
ATOM     23  C   UNL     1      48.923   5.861  17.233  0.00  0.00    +0.000 A 
ATOM     24  H   UNL     1      48.289   2.745  18.080  0.00  0.00    +0.000 HD
ENDBRANCH  11  14
ENDBRANCH   9  10
ENDBRANCH   4   9
BRANCH   6  25
ATOM     25  C   UNL     1      43.938   5.099   9.611  0.00  0.00    +0.000 C 
BRANCH  25  26
ATOM     26  N   UNL     1      44.393   4.034   8.744  0.00  0.00    +0.000 N 
ATOM     27  C   UNL     1      45.595   4.078   8.073  0.00  0.00    +0.000 C 
ATOM     28  O   UNL     1      46.367   5.031   8.147  0.00  0.00    +0.000 OA
ATOM     29  H   UNL     1      43.797   3.224   8.666  0.00  0.00    +0.000 HD
BRANCH  27  30
ATOM     30  C   UNL     1      45.855   2.863   7.170  0.00  0.00    +0.000 C 
ATOM     31  C   UNL     1      46.645   1.774   7.911  0.00  0.00    +0.000 C 
ATOM     32  C   UNL     1      46.957   0.582   7.009  0.00  0.00    +0.000 C 
ATOM     33  C   UNL     1      47.698   1.012   5.749  0.00  0.00    +0.000 C 
ATOM     34  C   UNL     1      46.919   2.079   4.989  0.00  0.00    +0.000 C 
ATOM     35  C   UNL     1      46.586   3.275   5.880  0.00  0.00    +0.000 C 
ENDBRANCH  27  30
ENDBRANCH  25  26
ENDBRANCH   6  25
TORSDOF 7
ENDMDL
MODEL 7
REMARK VINA RESULT:    -7.683      3.531      9.002
REMARK INTER + INTRA:         -12.001
REMARK INTER:                 -10.705
REMARK INTRA:                  -1.296
REMARK UNBOUND:                -1.174
REMARK  Name = 
REMARK  8 active torsions:
REMARK  status: ('A' for Active; 'I' for Inactive)
REMARK    1  A    between atoms: C_1  and  O_2
REMARK    2  A    between atoms: O_2  and  C_3
REMARK    3  A    between atoms: C_6  and  C_7
REMARK    4  A    between atoms: C_7  and  N_8
REMARK    5  A    between atoms: C_9  and  C_11
REMARK    6  A    between atoms: C_22  and  C_23
REMARK    7  A    between atoms: C_23  and  N_24
REMARK    8  A    between atoms: C_25  and  C_27
REMARK                            x       y       z     vdW  Elec       q    Type
REMARK                         _______ _______ _______ _____ _____    ______ ____
ROOT
ATOM      1  C   UNL     1      48.397   5.574  19.381  0.00  0.00    +0.000 A 
ATOM      2  C   UNL     1      48.193   6.950  19.226  0.00  0.00    +0.000 A 
ATOM      3  C   UNL     1      48.309   7.551  17.973  0.00  0.00    +0.000 A 
ATOM      4  C   UNL     1      48.646   6.790  16.852  0.00  0.00    +0.000 A 
ATOM      5  C   UNL     1      48.805   5.405  16.999  0.00  0.00    +0.000 A 
ATOM      6  C   UNL     1      48.658   4.779  18.251  0.00  0.00    +0.000 A 
ENDROOT
BRANCH   1   8
ATOM      7  C   UNL     1      49.460   5.029  21.419  0.00  0.00    +0.000 C 
ATOM      8  O   UNL     1      48.301   4.933  20.592  0.00  0.00    +0.000 OA
ENDBRANCH   1   8
BRANCH   4   9
ATOM      9  C   UNL     1      48.792   7.446  15.507  0.00  0.00    +0.000 C 
BRANCH   9  10
ATOM     10  N   UNL     1      47.639   7.210  14.673  0.00  0.00    +0.000 N 
ATOM     11  C   UNL     1      47.695   6.422  13.553  0.00  0.00    +0.000 C 
ATOM     12  O   UNL     1      48.733   5.878  13.185  0.00  0.00    +0.000 OA
ATOM     13  H   UNL     1      46.824   7.789  14.844  0.00  0.00    +0.000 HD
BRANCH  11  14
ATOM     14  C   UNL     1      46.428   6.196  12.843  0.00  0.00    +0.000 A 
ATOM     15  C   UNL     1      45.779   7.276  12.256  0.00  0.00    +0.000 A 
ATOM     16  S   UNL     1      44.332   6.858  11.459  0.00  0.00    +0.000 S 
ATOM     17  C   UNL     1      44.499   5.224  11.903  0.00  0.00    +0.000 A 
ATOM     18  N   UNL     1      43.552   4.310  11.559  0.00  0.00    +0.000 NA
ATOM     19  C   UNL     1      43.788   3.114  11.982  0.00  0.00    +0.000 A 
ATOM     20  N   UNL     1      44.892   2.745  12.707  0.00  0.00    +0.000 N 
ATOM     21  C   UNL     1      45.903   3.620  13.025  0.00  0.00    +0.000 A 
ATOM     22  O   UNL     1      46.926   3.237  13.582  0.00  0.00    +0.000 OA
ATOM     23  C   UNL     1      45.663   4.993  12.617  0.00  0.00    +0.000 A 
ATOM     24  H   UNL     1      45.031   1.785  12.982  0.00  0.00    +0.000 HD
ENDBRANCH  11  14
ENDBRANCH   9  10
ENDBRANCH   4   9
BRANCH   6  25
ATOM     25  C   UNL     1      48.780   3.277  18.327  0.00  0.00    +0.000 C 
BRANCH  25  26
ATOM     26  N   UNL     1      50.142   2.810  18.187  0.00  0.00    +0.000 N 
ATOM     27  C   UNL     1      50.564   2.040  17.126  0.00  0.00    +0.000 C 
ATOM     28  O   UNL     1      49.812   1.677  16.224  0.00  0.00    +0.000 OA
ATOM     29  H   UNL     1      50.798   3.098  18.898  0.00  0.00    +0.000 HD
BRANCH  27  30
ATOM     30  C   UNL     1      52.038   1.616  17.204  0.00  0.00    +0.000 C 
ATOM     31  C   UNL     1      52.199   0.287  17.957  0.00  0.00    +0.000 C 
ATOM     32  C   UNL     1      53.665  -0.120  18.089  0.00  0.00    +0.000 C 
ATOM     33  C   UNL     1      54.492   0.972  18.756  0.00  0.00    +0.000 C 
ATOM     34  C   UNL     1      54.360   2.295  18.011  0.00  0.00    +0.000 C 
ATOM     35  C   UNL     1      52.898   2.713  17.858  0.00  0.00    +0.000 C 
ENDBRANCH  27  30
ENDBRANCH  25  26
ENDBRANCH   6  25
TORSDOF 7
ENDMDL
MODEL 8
REMARK VINA RESULT:    -7.635      4.300      7.132
REMARK INTER + INTRA:         -11.933
REMARK INTER:                 -10.682
REMARK INTRA:                  -1.251
REMARK UNBOUND:                -1.174
REMARK  Name = 
REMARK  8 active torsions:
REMARK  status: ('A' for Active; 'I' for Inactive)
REMARK    1  A    between atoms: C_1  and  O_2
REMARK    2  A    between atoms: O_2  and  C_3
REMARK    3  A    between atoms: C_6  and  C_7
REMARK    4  A    between atoms: C_7  and  N_8
REMARK    5  A    between atoms: C_9  and  C_11
REMARK    6  A    between atoms: C_22  and  C_23
REMARK    7  A    between atoms: C_23  and  N_24
REMARK    8  A    between atoms: C_25  and  C_27
REMARK                            x       y       z     vdW  Elec       q    Type
REMARK                         _______ _______ _______ _____ _____    ______ ____
ROOT
ATOM      1  C   UNL     1      45.588   4.645  12.989  0.00  0.00    +0.000 A 
ATOM      2  C   UNL     1      46.398   4.636  14.131  0.00  0.00    +0.000 A 
ATOM      3  C   UNL     1      47.496   5.490  14.233  0.00  0.00    +0.000 A 
ATOM      4  C   UNL     1      47.815   6.360  13.189  0.00  0.00    +0.000 A 
ATOM      5  C   UNL     1      46.978   6.402  12.066  0.00  0.00    +0.000 A 
ATOM      6  C   UNL     1      45.847   5.570  11.962  0.00  0.00    +0.000 A 
ENDROOT
BRANCH   1   8
ATOM      7  C   UNL     1      43.270   4.348  13.330  0.00  0.00    +0.000 C 
ATOM      8  O   UNL     1      44.500   3.822  12.835  0.00  0.00    +0.000 OA
ENDBRANCH   1   8
BRANCH   4   9
ATOM      9  C   UNL     1      49.013   7.262  13.294  0.00  0.00    +0.000 C 
BRANCH   9  10
ATOM     10  N   UNL     1      48.969   8.320  12.314  0.00  0.00    +0.000 N 
ATOM     11  C   UNL     1      49.658   9.493  12.472  0.00  0.00    +0.000 C 
ATOM     12  O   UNL     1      50.346   9.722  13.463  0.00  0.00    +0.000 OA
ATOM     13  H   UNL     1      48.270   8.238  11.584  0.00  0.00    +0.000 HD
BRANCH  11  14
ATOM     14  C   UNL     1      49.593  10.450  11.358  0.00  0.00    +0.000 A 
ATOM     15  C   UNL     1      50.765  10.808  10.702  0.00  0.00    +0.000 A 
ATOM     16  S   UNL     1      50.529  11.913   9.427  0.00  0.00    +0.000 S 
ATOM     17  C   UNL     1      48.856  11.986   9.729  0.00  0.00    +0.000 A 
ATOM     18  N   UNL     1      48.052  12.800   8.994  0.00  0.00    +0.000 NA
ATOM     19  C   UNL     1      46.810  12.780   9.346  0.00  0.00    +0.000 A 
ATOM     20  N   UNL     1      46.297  12.009  10.357  0.00  0.00    +0.000 N 
ATOM     21  C   UNL     1      47.060  11.127  11.085  0.00  0.00    +0.000 A 
ATOM     22  O   UNL     1      46.552  10.375  11.910  0.00  0.00    +0.000 OA
ATOM     23  C   UNL     1      48.476  11.148  10.765  0.00  0.00    +0.000 A 
ATOM     24  H   UNL     1      45.310  12.018  10.562  0.00  0.00    +0.000 HD
ENDBRANCH  11  14
ENDBRANCH   9  10
ENDBRANCH   4   9
BRANCH   6  25
ATOM     25  C   UNL     1      44.953   5.711  10.754  0.00  0.00    +0.000 C 
BRANCH  25  26
ATOM     26  N   UNL     1      45.364   4.879   9.644  0.00  0.00    +0.000 N 
ATOM     27  C   UNL     1      44.679   3.747   9.264  0.00  0.00    +0.000 C 
ATOM     28  O   UNL     1      43.674   3.347   9.848  0.00  0.00    +0.000 OA
ATOM     29  H   UNL     1      46.176   5.180   9.126  0.00  0.00    +0.000 HD
BRANCH  27  30
ATOM     30  C   UNL     1      45.319   2.989   8.092  0.00  0.00    +0.000 C 
ATOM     31  C   UNL     1      46.033   1.716   8.572  0.00  0.00    +0.000 C 
ATOM     32  C   UNL     1      46.720   0.980   7.423  0.00  0.00    +0.000 C 
ATOM     33  C   UNL     1      47.692   1.887   6.679  0.00  0.00    +0.000 C 
ATOM     34  C   UNL     1      46.997   3.147   6.178  0.00  0.00    +0.000 C 
ATOM     35  C   UNL     1      46.292   3.891   7.312  0.00  0.00    +0.000 C 
ENDBRANCH  27  30
ENDBRANCH  25  26
ENDBRANCH   6  25
TORSDOF 7
ENDMDL
MODEL 9
REMARK VINA RESULT:    -7.580      2.310      3.244
REMARK INTER + INTRA:         -11.856
REMARK INTER:                 -10.840
REMARK INTRA:                  -1.016
REMARK UNBOUND:                -1.174
REMARK  Name = 
REMARK  8 active torsions:
REMARK  status: ('A' for Active; 'I' for Inactive)
REMARK    1  A    between atoms: C_1  and  O_2
REMARK    2  A    between atoms: O_2  and  C_3
REMARK    3  A    between atoms: C_6  and  C_7
REMARK    4  A    between atoms: C_7  and  N_8
REMARK    5  A    between atoms: C_9  and  C_11
REMARK    6  A    between atoms: C_22  and  C_23
REMARK    7  A    between atoms: C_23  and  N_24
REMARK    8  A    between atoms: C_25  and  C_27
REMARK                            x       y       z     vdW  Elec       q    Type
REMARK                         _______ _______ _______ _____ _____    ______ ____
ROOT
ATOM      1  C   UNL     1      44.547   6.169  11.714  0.00  0.00    +0.000 A 
ATOM      2  C   UNL     1      44.929   7.470  12.062  0.00  0.00    +0.000 A 
ATOM      3  C   UNL     1      46.097   7.701  12.788  0.00  0.00    +0.000 A 
ATOM      4  C   UNL     1      46.900   6.632  13.194  0.00  0.00    +0.000 A 
ATOM      5  C   UNL     1      46.542   5.334  12.807  0.00  0.00    +0.000 A 
ATOM      6  C   UNL     1      45.383   5.088  12.046  0.00  0.00    +0.000 A 
ENDROOT
BRANCH   1   8
ATOM      7  C   UNL     1      42.229   5.723  11.798  0.00  0.00    +0.000 C 
ATOM      8  O   UNL     1      43.405   5.887  11.006  0.00  0.00    +0.000 OA
ENDBRANCH   1   8
BRANCH   4   9
ATOM      9  C   UNL     1      48.146   6.884  13.997  0.00  0.00    +0.000 C 
BRANCH   9  10
ATOM     10  N   UNL     1      48.041   6.335  15.327  0.00  0.00    +0.000 N 
ATOM     11  C   UNL     1      49.118   6.241  16.167  0.00  0.00    +0.000 C 
ATOM     12  O   UNL     1      50.243   6.606  15.836  0.00  0.00    +0.000 OA
ATOM     13  H   UNL     1      47.175   5.858  15.558  0.00  0.00    +0.000 HD
BRANCH  11  14
ATOM     14  C   UNL     1      48.853   5.741  17.524  0.00  0.00    +0.000 A 
ATOM     15  C   UNL     1      49.056   4.394  17.802  0.00  0.00    +0.000 A 
ATOM     16  S   UNL     1      48.720   3.968  19.417  0.00  0.00    +0.000 S 
ATOM     17  C   UNL     1      48.253   5.559  19.795  0.00  0.00    +0.000 A 
ATOM     18  N   UNL     1      47.807   5.875  21.041  0.00  0.00    +0.000 NA
ATOM     19  C   UNL     1      47.459   7.110  21.185  0.00  0.00    +0.000 A 
ATOM     20  N   UNL     1      47.530   8.061  20.200  0.00  0.00    +0.000 N 
ATOM     21  C   UNL     1      48.031   7.802  18.946  0.00  0.00    +0.000 A 
ATOM     22  O   UNL     1      48.179   8.698  18.121  0.00  0.00    +0.000 OA
ATOM     23  C   UNL     1      48.388   6.414  18.714  0.00  0.00    +0.000 A 
ATOM     24  H   UNL     1      47.270   9.017  20.386  0.00  0.00    +0.000 HD
ENDBRANCH  11  14
ENDBRANCH   9  10
ENDBRANCH   4   9
BRANCH   6  25
ATOM     25  C   UNL     1      45.091   3.674  11.609  0.00  0.00    +0.000 C 
BRANCH  25  26
ATOM     26  N   UNL     1      45.489   3.407  10.244  0.00  0.00    +0.000 N 
ATOM     27  C   UNL     1      44.843   2.494   9.441  0.00  0.00    +0.000 C 
ATOM     28  O   UNL     1      43.887   1.824   9.827  0.00  0.00    +0.000 OA
ATOM     29  H   UNL     1      46.260   3.947   9.882  0.00  0.00    +0.000 HD
BRANCH  27  30
ATOM     30  C   UNL     1      45.464   2.335   8.045  0.00  0.00    +0.000 C 
ATOM     31  C   UNL     1      46.513   1.214   8.025  0.00  0.00    +0.000 C 
ATOM     32  C   UNL     1      47.177   1.081   6.655  0.00  0.00    +0.000 C 
ATOM     33  C   UNL     1      47.796   2.397   6.202  0.00  0.00    +0.000 C 
ATOM     34  C   UNL     1      46.764   3.518   6.198  0.00  0.00    +0.000 C 
ATOM     35  C   UNL     1      46.079   3.659   7.556  0.00  0.00    +0.000 C 
ENDBRANCH  27  30
ENDBRANCH  25  26
ENDBRANCH   6  25
TORSDOF 7
ENDMDL
