MODEL 1
REMARK VINA RESULT:    -8.075      0.000      0.000
REMARK INTER + INTRA:         -12.086
REMARK INTER:                 -11.380
REMARK INTRA:                  -0.706
REMARK UNBOUND:                -0.706
REMARK  Name = 
REMARK  8 active torsions:
REMARK  status: ('A' for Active; 'I' for Inactive)
REMARK    1  A    between atoms: C_1  and  O_2
REMARK    2  A    between atoms: O_2  and  C_3
REMARK    3  A    between atoms: C_7  and  C_8
REMARK    4  A    between atoms: C_8  and  N_9
REMARK    5  A    between atoms: N_9  and  C_10
REMARK    6  A    between atoms: C_13  and  C_14
REMARK    7  A    between atoms: C_14  and  N_15
REMARK    8  A    between atoms: C_16  and  C_18
REMARK                            x       y       z     vdW  Elec       q    Type
REMARK                         _______ _______ _______ _____ _____    ______ ____
ROOT
ATOM      1  C   UNL     1      44.908   6.360  11.606  0.00  0.00    +0.000 C 
ATOM      2  C   UNL     1      44.635   7.868  11.758  0.00  0.00    +0.000 C 
ATOM      3  C   UNL     1      45.502   8.503  12.848  0.00  0.00    +0.000 C 
ATOM      4  C   UNL     1      46.999   8.244  12.611  0.00  0.00    +0.000 C 
ATOM      5  C   UNL     1      47.259   6.740  12.473  0.00  0.00    +0.000 C 
ATOM      6  C   UNL     1      46.406   6.111  11.378  0.00  0.00    +0.000 C 
ENDROOT
BRANCH   1   7
ATOM      7  N   UNL     1      44.080   5.851  10.505  0.00  0.00    +0.000 NA
ATOM      8  H   UNL     1      43.126   6.196  10.617  0.00  0.00    +0.000 HD
BRANCH   7   9
ATOM      9  C   UNL     1      44.031   4.388  10.447  0.00  0.00    +0.000 C 
BRANCH   9  14
ATOM     10  C   UNL     1      45.893   1.860   8.284  0.00  0.00    +0.000 A 
ATOM     11  C   UNL     1      46.541   2.689   7.369  0.00  0.00    +0.000 A 
ATOM     12  C   UNL     1      46.409   4.075   7.465  0.00  0.00    +0.000 A 
ATOM     13  C   UNL     1      45.611   4.638   8.461  0.00  0.00    +0.000 A 
ATOM     14  C   UNL     1      44.915   3.819   9.359  0.00  0.00    +0.000 A 
ATOM     15  C   UNL     1      45.097   2.430   9.281  0.00  0.00    +0.000 A 
BRANCH  10  17
ATOM     16  C   UNL     1      46.923  -0.118   7.475  0.00  0.00    +0.000 C 
ATOM     17  O   UNL     1      45.953   0.493   8.317  0.00  0.00    +0.000 OA
ENDBRANCH  10  17
ENDBRANCH   9  14
ENDBRANCH   7   9
ENDBRANCH   1   7
BRANCH   4  18
ATOM     18  C   UNL     1      47.877   8.801  13.745  0.00  0.00    +0.000 C 
BRANCH  18  19
ATOM     19  N   UNL     1      48.014   7.888  14.854  0.00  0.00    +0.000 N 
ATOM     20  C   UNL     1      49.211   7.300  15.179  0.00  0.00    +0.000 C 
ATOM     21  O   UNL     1      50.241   7.526  14.550  0.00  0.00    +0.000 OA
ATOM     22  H   UNL     1      47.165   7.585  15.318  0.00  0.00    +0.000 HD
BRANCH  20  23
ATOM     23  C   UNL     1      49.215   6.430  16.360  0.00  0.00    +0.000 A 
ATOM     24  C   UNL     1      50.060   6.725  17.420  0.00  0.00    +0.000 A 
ATOM     25  S   UNL     1      49.933   5.637  18.725  0.00  0.00    +0.000 S 
ATOM     26  C   UNL     1      48.770   4.701  17.897  0.00  0.00    +0.000 A 
ATOM     27  N   UNL     1      48.255   3.579  18.460  0.00  0.00    +0.000 NA
ATOM     28  C   UNL     1      47.417   2.943  17.714  0.00  0.00    +0.000 A 
ATOM     29  N   UNL     1      47.038   3.339  16.456  0.00  0.00    +0.000 N 
ATOM     30  C   UNL     1      47.487   4.502  15.873  0.00  0.00    +0.000 A 
ATOM     31  O   UNL     1      47.052   4.876  14.787  0.00  0.00    +0.000 OA
ATOM     32  C   UNL     1      48.468   5.231  16.658  0.00  0.00    +0.000 A 
ATOM     33  H   UNL     1      46.357   2.809  15.931  0.00  0.00    +0.000 HD
ENDBRANCH  20  23
ENDBRANCH  18  19
ENDBRANCH   4  18
TORSDOF 7
ENDMDL
MODEL 2
REMARK VINA RESULT:    -7.960      2.085      2.661
REMARK INTER + INTRA:         -11.924
REMARK INTER:                 -10.805
REMARK INTRA:                  -1.119
REMARK UNBOUND:                -0.706
REMARK  Name = 
REMARK  8 active torsions:
REMARK  status: ('A' for Active; 'I' for Inactive)
REMARK    1  A    between atoms: C_1  and  O_2
REMARK    2  A    between atoms: O_2  and  C_3
REMARK    3  A    between atoms: C_7  and  C_8
REMARK    4  A    between atoms: C_8  and  N_9
REMARK    5  A    between atoms: N_9  and  C_10
REMARK    6  A    between atoms: C_13  and  C_14
REMARK    7  A    between atoms: C_14  and  N_15
REMARK    8  A    between atoms: C_16  and  C_18
REMARK                            x       y       z     vdW  Elec       q    Type
REMARK                         _______ _______ _______ _____ _____    ______ ____
ROOT
ATOM      1  C   UNL     1      44.459   5.429  13.003  0.00  0.00    +0.000 C 
ATOM      2  C   UNL     1      45.013   6.650  12.246  0.00  0.00    +0.000 C 
ATOM      3  C   UNL     1      46.219   7.270  12.956  0.00  0.00    +0.000 C 
ATOM      4  C   UNL     1      47.330   6.236  13.204  0.00  0.00    +0.000 C 
ATOM      5  C   UNL     1      46.769   5.032  13.968  0.00  0.00    +0.000 C 
ATOM      6  C   UNL     1      45.578   4.406  13.253  0.00  0.00    +0.000 C 
ENDROOT
BRANCH   1   7
ATOM      7  N   UNL     1      43.349   4.867  12.222  0.00  0.00    +0.000 NA
ATOM      8  H   UNL     1      43.363   3.850  12.305  0.00  0.00    +0.000 HD
BRANCH   7   9
ATOM      9  C   UNL     1      43.413   5.208  10.799  0.00  0.00    +0.000 C 
BRANCH   9  14
ATOM     10  C   UNL     1      45.523   3.592   8.065  0.00  0.00    +0.000 A 
ATOM     11  C   UNL     1      45.447   2.242   8.406  0.00  0.00    +0.000 A 
ATOM     12  C   UNL     1      44.683   1.839   9.502  0.00  0.00    +0.000 A 
ATOM     13  C   UNL     1      44.012   2.784  10.276  0.00  0.00    +0.000 A 
ATOM     14  C   UNL     1      44.116   4.149   9.978  0.00  0.00    +0.000 A 
ATOM     15  C   UNL     1      44.847   4.534   8.844  0.00  0.00    +0.000 A 
BRANCH  10  17
ATOM     16  C   UNL     1      46.819   3.187   6.121  0.00  0.00    +0.000 C 
ATOM     17  O   UNL     1      46.216   4.119   7.009  0.00  0.00    +0.000 OA
ENDBRANCH  10  17
ENDBRANCH   9  14
ENDBRANCH   7   9
ENDBRANCH   1   7
BRANCH   4  18
ATOM     18  C   UNL     1      48.511   6.824  13.995  0.00  0.00    +0.000 C 
BRANCH  18  19
ATOM     19  N   UNL     1      48.231   6.970  15.404  0.00  0.00    +0.000 N 
ATOM     20  C   UNL     1      49.122   6.586  16.374  0.00  0.00    +0.000 C 
ATOM     21  O   UNL     1      50.216   6.102  16.101  0.00  0.00    +0.000 OA
ATOM     22  H   UNL     1      47.293   7.251  15.667  0.00  0.00    +0.000 HD
BRANCH  20  23
ATOM     23  C   UNL     1      48.725   6.837  17.764  0.00  0.00    +0.000 A 
ATOM     24  C   UNL     1      48.412   8.130  18.159  0.00  0.00    +0.000 A 
ATOM     25  S   UNL     1      47.949   8.256  19.794  0.00  0.00    +0.000 S 
ATOM     26  C   UNL     1      48.195   6.586  20.046  0.00  0.00    +0.000 A 
ATOM     27  N   UNL     1      48.000   6.033  21.270  0.00  0.00    +0.000 NA
ATOM     28  C   UNL     1      48.260   4.772  21.334  0.00  0.00    +0.000 A 
ATOM     29  N   UNL     1      48.686   4.010  20.275  0.00  0.00    +0.000 N 
ATOM     30  C   UNL     1      48.836   4.515  19.004  0.00  0.00    +0.000 A 
ATOM     31  O   UNL     1      49.123   3.784  18.060  0.00  0.00    +0.000 OA
ATOM     32  C   UNL     1      48.597   5.944  18.891  0.00  0.00    +0.000 A 
ATOM     33  H   UNL     1      48.849   3.019  20.385  0.00  0.00    +0.000 HD
ENDBRANCH  20  23
ENDBRANCH  18  19
ENDBRANCH   4  18
TORSDOF 7
ENDMDL
MODEL 3
REMARK VINA RESULT:    -7.789      2.272      2.938
REMARK INTER + INTRA:         -11.682
REMARK INTER:                 -10.375
REMARK INTRA:                  -1.307
REMARK UNBOUND:                -0.706
REMARK  Name = 
REMARK  8 active torsions:
REMARK  status: ('A' for Active; 'I' for Inactive)
REMARK    1  A    between atoms: C_1  and  O_2
REMARK    2  A    between atoms: O_2  and  C_3
REMARK    3  A    between atoms: C_7  and  C_8
REMARK    4  A    between atoms: C_8  and  N_9
REMARK    5  A    between atoms: N_9  and  C_10
REMARK    6  A    between atoms: C_13  and  C_14
REMARK    7  A    between atoms: C_14  and  N_15
REMARK    8  A    between atoms: C_16  and  C_18
REMARK                            x       y       z     vdW  Elec       q    Type
REMARK                         _______ _______ _______ _____ _____    ______ ____
ROOT
ATOM      1  C   UNL     1      44.450   5.210  12.688  0.00  0.00    +0.000 C 
ATOM      2  C   UNL     1      44.857   6.530  12.008  0.00  0.00    +0.000 C 
ATOM      3  C   UNL     1      45.919   7.287  12.810  0.00  0.00    +0.000 C 
ATOM      4  C   UNL     1      47.156   6.417  13.086  0.00  0.00    +0.000 C 
ATOM      5  C   UNL     1      46.739   5.112  13.773  0.00  0.00    +0.000 C 
ATOM      6  C   UNL     1      45.693   4.351  12.967  0.00  0.00    +0.000 C 
ENDROOT
BRANCH   1   7
ATOM      7  N   UNL     1      43.478   4.527  11.824  0.00  0.00    +0.000 NA
ATOM      8  H   UNL     1      43.620   3.519  11.893  0.00  0.00    +0.000 HD
BRANCH   7   9
ATOM      9  C   UNL     1      43.591   4.907  10.413  0.00  0.00    +0.000 C 
BRANCH   9  14
ATOM     10  C   UNL     1      45.851   3.431   7.720  0.00  0.00    +0.000 A 
ATOM     11  C   UNL     1      45.826   2.073   8.038  0.00  0.00    +0.000 A 
ATOM     12  C   UNL     1      45.050   1.619   9.105  0.00  0.00    +0.000 A 
ATOM     13  C   UNL     1      44.314   2.521   9.873  0.00  0.00    +0.000 A 
ATOM     14  C   UNL     1      44.365   3.893   9.598  0.00  0.00    +0.000 A 
ATOM     15  C   UNL     1      45.110   4.329   8.493  0.00  0.00    +0.000 A 
BRANCH  10  17
ATOM     16  C   UNL     1      46.960   3.137   5.644  0.00  0.00    +0.000 C 
ATOM     17  O   UNL     1      46.550   4.005   6.693  0.00  0.00    +0.000 OA
ENDBRANCH  10  17
ENDBRANCH   9  14
ENDBRANCH   7   9
ENDBRANCH   1   7
BRANCH   4  18
ATOM     18  C   UNL     1      48.193   7.135  13.965  0.00  0.00    +0.000 C 
BRANCH  18  19
ATOM     19  N   UNL     1      48.074   6.805  15.365  0.00  0.00    +0.000 N 
ATOM     20  C   UNL     1      49.159   6.474  16.138  0.00  0.00    +0.000 C 
ATOM     21  O   UNL     1      50.299   6.449  15.684  0.00  0.00    +0.000 OA
ATOM     22  H   UNL     1      47.138   6.695  15.741  0.00  0.00    +0.000 HD
BRANCH  20  23
ATOM     23  C   UNL     1      48.896   6.207  17.556  0.00  0.00    +0.000 A 
ATOM     24  C   UNL     1      49.173   4.949  18.074  0.00  0.00    +0.000 A 
ATOM     25  S   UNL     1      48.837   4.802  19.738  0.00  0.00    +0.000 S 
ATOM     26  C   UNL     1      48.264   6.408  19.816  0.00  0.00    +0.000 A 
ATOM     27  N   UNL     1      47.786   6.917  20.980  0.00  0.00    +0.000 NA
ATOM     28  C   UNL     1      47.347   8.127  20.893  0.00  0.00    +0.000 A 
ATOM     29  N   UNL     1      47.357   8.878  19.745  0.00  0.00    +0.000 N 
ATOM     30  C   UNL     1      47.888   8.424  18.560  0.00  0.00    +0.000 A 
ATOM     31  O   UNL     1      47.970   9.157  17.579  0.00  0.00    +0.000 OA
ATOM     32  C   UNL     1      48.356   7.049  18.597  0.00  0.00    +0.000 A 
ATOM     33  H   UNL     1      47.020   9.830  19.749  0.00  0.00    +0.000 HD
ENDBRANCH  20  23
ENDBRANCH  18  19
ENDBRANCH   4  18
TORSDOF 7
ENDMDL
MODEL 4
REMARK VINA RESULT:    -7.340      3.085      7.826
REMARK INTER + INTRA:         -11.049
REMARK INTER:                  -9.740
REMARK INTRA:                  -1.309
REMARK UNBOUND:                -0.706
REMARK  Name = 
REMARK  8 active torsions:
REMARK  status: ('A' for Active; 'I' for Inactive)
REMARK    1  A    between atoms: C_1  and  O_2
REMARK    2  A    between atoms: O_2  and  C_3
REMARK    3  A    between atoms: C_7  and  C_8
REMARK    4  A    between atoms: C_8  and  N_9
REMARK    5  A    between atoms: N_9  and  C_10
REMARK    6  A    between atoms: C_13  and  C_14
REMARK    7  A    between atoms: C_14  and  N_15
REMARK    8  A    between atoms: C_16  and  C_18
REMARK                            x       y       z     vdW  Elec       q    Type
REMARK                         _______ _______ _______ _____ _____    ______ ____
ROOT
ATOM      1  C   UNL     1      48.863   7.710  15.969  0.00  0.00    +0.000 C 
ATOM      2  C   UNL     1      49.846   7.176  14.911  0.00  0.00    +0.000 C 
ATOM      3  C   UNL     1      49.182   7.003  13.543  0.00  0.00    +0.000 C 
ATOM      4  C   UNL     1      48.521   8.304  13.060  0.00  0.00    +0.000 C 
ATOM      5  C   UNL     1      47.537   8.819  14.115  0.00  0.00    +0.000 C 
ATOM      6  C   UNL     1      48.202   9.005  15.474  0.00  0.00    +0.000 C 
ENDROOT
BRANCH   1   7
ATOM      7  N   UNL     1      49.598   7.900  17.227  0.00  0.00    +0.000 NA
ATOM      8  H   UNL     1      50.572   7.628  17.089  0.00  0.00    +0.000 HD
BRANCH   7   9
ATOM      9  C   UNL     1      49.058   7.112  18.337  0.00  0.00    +0.000 C 
BRANCH   9  14
ATOM     10  C   UNL     1      49.927   3.524  17.384  0.00  0.00    +0.000 A 
ATOM     11  C   UNL     1      48.666   2.931  17.323  0.00  0.00    +0.000 A 
ATOM     12  C   UNL     1      47.521   3.695  17.556  0.00  0.00    +0.000 A 
ATOM     13  C   UNL     1      47.632   5.048  17.873  0.00  0.00    +0.000 A 
ATOM     14  C   UNL     1      48.892   5.650  17.985  0.00  0.00    +0.000 A 
ATOM     15  C   UNL     1      50.030   4.881  17.700  0.00  0.00    +0.000 A 
BRANCH  10  17
ATOM     16  C   UNL     1      51.150   1.492  17.362  0.00  0.00    +0.000 C 
ATOM     17  O   UNL     1      51.123   2.899  17.158  0.00  0.00    +0.000 OA
ENDBRANCH  10  17
ENDBRANCH   9  14
ENDBRANCH   7   9
ENDBRANCH   1   7
BRANCH   4  18
ATOM     18  C   UNL     1      47.774   8.122  11.728  0.00  0.00    +0.000 C 
BRANCH  18  19
ATOM     19  N   UNL     1      47.006   6.901  11.672  0.00  0.00    +0.000 N 
ATOM     20  C   UNL     1      45.637   6.889  11.766  0.00  0.00    +0.000 C 
ATOM     21  O   UNL     1      44.983   7.920  11.893  0.00  0.00    +0.000 OA
ATOM     22  H   UNL     1      47.518   6.026  11.690  0.00  0.00    +0.000 HD
BRANCH  20  23
ATOM     23  C   UNL     1      44.983   5.581  11.646  0.00  0.00    +0.000 A 
ATOM     24  C   UNL     1      44.262   5.081  12.721  0.00  0.00    +0.000 A 
ATOM     25  S   UNL     1      43.544   3.565  12.421  0.00  0.00    +0.000 S 
ATOM     26  C   UNL     1      44.212   3.502  10.852  0.00  0.00    +0.000 A 
ATOM     27  N   UNL     1      44.001   2.427  10.051  0.00  0.00    +0.000 NA
ATOM     28  C   UNL     1      44.595   2.488   8.907  0.00  0.00    +0.000 A 
ATOM     29  N   UNL     1      45.372   3.539   8.488  0.00  0.00    +0.000 N 
ATOM     30  C   UNL     1      45.560   4.674   9.241  0.00  0.00    +0.000 A 
ATOM     31  O   UNL     1      46.179   5.636   8.795  0.00  0.00    +0.000 OA
ATOM     32  C   UNL     1      44.947   4.634  10.558  0.00  0.00    +0.000 A 
ATOM     33  H   UNL     1      45.789   3.536   7.569  0.00  0.00    +0.000 HD
ENDBRANCH  20  23
ENDBRANCH  18  19
ENDBRANCH   4  18
TORSDOF 7
ENDMDL
MODEL 5
REMARK VINA RESULT:    -7.325      2.017      2.517
REMARK INTER + INTRA:         -11.028
REMARK INTER:                 -10.197
REMARK INTRA:                  -0.831
REMARK UNBOUND:                -0.706
REMARK  Name = 
REMARK  8 active torsions:
REMARK  status: ('A' for Active; 'I' for Inactive)
REMARK    1  A    between atoms: C_1  and  O_2
REMARK    2  A    between atoms: O_2  and  C_3
REMARK    3  A    between atoms: C_7  and  C_8
REMARK    4  A    between atoms: C_8  and  N_9
REMARK    5  A    between atoms: N_9  and  C_10
REMARK    6  A    between atoms: C_13  and  C_14
REMARK    7  A    between atoms: C_14  and  N_15
REMARK    8  A    between atoms: C_16  and  C_18
REMARK                            x       y       z     vdW  Elec       q    Type
REMARK                         _______ _______ _______ _____ _____    ______ ____
ROOT
ATOM      1  C   UNL     1      44.705   4.503  11.319  0.00  0.00    +0.000 C 
ATOM      2  C   UNL     1      45.591   5.533  10.595  0.00  0.00    +0.000 C 
ATOM      3  C   UNL     1      46.148   6.589  11.553  0.00  0.00    +0.000 C 
ATOM      4  C   UNL     1      46.908   5.952  12.727  0.00  0.00    +0.000 C 
ATOM      5  C   UNL     1      46.013   4.938  13.447  0.00  0.00    +0.000 C 
ATOM      6  C   UNL     1      45.471   3.878  12.495  0.00  0.00    +0.000 C 
ENDROOT
BRANCH   1   7
ATOM      7  N   UNL     1      44.267   3.501  10.338  0.00  0.00    +0.000 NA
ATOM      8  H   UNL     1      44.820   2.652  10.458  0.00  0.00    +0.000 HD
BRANCH   7   9
ATOM      9  C   UNL     1      44.414   3.948   8.950  0.00  0.00    +0.000 C 
BRANCH   9  14
ATOM     10  C   UNL     1      46.646   1.083   7.791  0.00  0.00    +0.000 A 
ATOM     11  C   UNL     1      47.475   1.721   6.869  0.00  0.00    +0.000 A 
ATOM     12  C   UNL     1      47.342   3.092   6.640  0.00  0.00    +0.000 A 
ATOM     13  C   UNL     1      46.366   3.825   7.313  0.00  0.00    +0.000 A 
ATOM     14  C   UNL     1      45.493   3.192   8.207  0.00  0.00    +0.000 A 
ATOM     15  C   UNL     1      45.671   1.824   8.463  0.00  0.00    +0.000 A 
BRANCH  10  17
ATOM     16  C   UNL     1      46.649  -1.168   7.045  0.00  0.00    +0.000 C 
ATOM     17  O   UNL     1      46.683  -0.244   8.124  0.00  0.00    +0.000 OA
ENDBRANCH  10  17
ENDBRANCH   9  14
ENDBRANCH   7   9
ENDBRANCH   1   7
BRANCH   4  18
ATOM     18  C   UNL     1      47.398   6.996  13.744  0.00  0.00    +0.000 C 
BRANCH  18  19
ATOM     19  N   UNL     1      48.669   6.655  14.338  0.00  0.00    +0.000 N 
ATOM     20  C   UNL     1      49.142   7.272  15.469  0.00  0.00    +0.000 C 
ATOM     21  O   UNL     1      48.504   8.146  16.050  0.00  0.00    +0.000 OA
ATOM     22  H   UNL     1      49.274   6.028  13.818  0.00  0.00    +0.000 HD
BRANCH  20  23
ATOM     23  C   UNL     1      50.427   6.793  15.988  0.00  0.00    +0.000 A 
ATOM     24  C   UNL     1      51.601   7.401  15.564  0.00  0.00    +0.000 A 
ATOM     25  S   UNL     1      53.007   6.749  16.273  0.00  0.00    +0.000 S 
ATOM     26  C   UNL     1      52.096   5.595  17.141  0.00  0.00    +0.000 A 
ATOM     27  N   UNL     1      52.710   4.685  17.940  0.00  0.00    +0.000 NA
ATOM     28  C   UNL     1      51.910   3.847  18.506  0.00  0.00    +0.000 A 
ATOM     29  N   UNL     1      50.547   3.846  18.354  0.00  0.00    +0.000 N 
ATOM     30  C   UNL     1      49.879   4.787  17.605  0.00  0.00    +0.000 A 
ATOM     31  O   UNL     1      48.651   4.817  17.571  0.00  0.00    +0.000 OA
ATOM     32  C   UNL     1      50.741   5.728  16.911  0.00  0.00    +0.000 A 
ATOM     33  H   UNL     1      49.973   3.176  18.846  0.00  0.00    +0.000 HD
ENDBRANCH  20  23
ENDBRANCH  18  19
ENDBRANCH   4  18
TORSDOF 7
ENDMDL
MODEL 6
REMARK VINA RESULT:    -7.244      1.929      2.605
REMARK INTER + INTRA:         -10.914
REMARK INTER:                  -9.827
REMARK INTRA:                  -1.086
REMARK UNBOUND:                -0.706
REMARK  Name = 
REMARK  8 active torsions:
REMARK  status: ('A' for Active; 'I' for Inactive)
REMARK    1  A    between atoms: C_1  and  O_2
REMARK    2  A    between atoms: O_2  and  C_3
REMARK    3  A    between atoms: C_7  and  C_8
REMARK    4  A    between atoms: C_8  and  N_9
REMARK    5  A    between atoms: N_9  and  C_10
REMARK    6  A    between atoms: C_13  and  C_14
REMARK    7  A    between atoms: C_14  and  N_15
REMARK    8  A    between atoms: C_16  and  C_18
REMARK                            x       y       z     vdW  Elec       q    Type
REMARK                         _______ _______ _______ _____ _____    ______ ____
ROOT
ATOM      1  C   UNL     1      44.493   4.571  12.528  0.00  0.00    +0.000 C 
ATOM      2  C   UNL     1      44.635   5.980  11.923  0.00  0.00    +0.000 C 
ATOM      3  C   UNL     1      45.497   6.896  12.795  0.00  0.00    +0.000 C 
ATOM      4  C   UNL     1      46.880   6.285  13.073  0.00  0.00    +0.000 C 
ATOM      5  C   UNL     1      46.725   4.888  13.685  0.00  0.00    +0.000 C 
ATOM      6  C   UNL     1      45.879   3.972  12.810  0.00  0.00    +0.000 C 
ENDROOT
BRANCH   1   7
ATOM      7  N   UNL     1      43.704   3.749  11.600  0.00  0.00    +0.000 NA
ATOM      8  H   UNL     1      44.139   2.830  11.515  0.00  0.00    +0.000 HD
BRANCH   7   9
ATOM      9  C   UNL     1      43.599   4.329  10.259  0.00  0.00    +0.000 C 
BRANCH   9  14
ATOM     10  C   UNL     1      45.846   1.888   8.381  0.00  0.00    +0.000 A 
ATOM     11  C   UNL     1      46.600   2.749   7.584  0.00  0.00    +0.000 A 
ATOM     12  C   UNL     1      46.413   4.129   7.673  0.00  0.00    +0.000 A 
ATOM     13  C   UNL     1      45.456   4.654   8.541  0.00  0.00    +0.000 A 
ATOM     14  C   UNL     1      44.656   3.802   9.314  0.00  0.00    +0.000 A 
ATOM     15  C   UNL     1      44.890   2.421   9.249  0.00  0.00    +0.000 A 
BRANCH  10  17
ATOM     16  C   UNL     1      46.956  -0.055   7.597  0.00  0.00    +0.000 C 
ATOM     17  O   UNL     1      45.942   0.523   8.408  0.00  0.00    +0.000 OA
ENDBRANCH  10  17
ENDBRANCH   9  14
ENDBRANCH   7   9
ENDBRANCH   1   7
BRANCH   4  18
ATOM     18  C   UNL     1      47.726   7.153  14.019  0.00  0.00    +0.000 C 
BRANCH  18  19
ATOM     19  N   UNL     1      48.267   6.413  15.134  0.00  0.00    +0.000 N 
ATOM     20  C   UNL     1      48.899   7.027  16.187  0.00  0.00    +0.000 C 
ATOM     21  O   UNL     1      49.030   8.246  16.248  0.00  0.00    +0.000 OA
ATOM     22  H   UNL     1      48.286   5.402  15.059  0.00  0.00    +0.000 HD
BRANCH  20  23
ATOM     23  C   UNL     1      49.359   6.155  17.273  0.00  0.00    +0.000 A 
ATOM     24  C   UNL     1      48.438   5.666  18.190  0.00  0.00    +0.000 A 
ATOM     25  S   UNL     1      49.121   4.651  19.376  0.00  0.00    +0.000 S 
ATOM     26  C   UNL     1      50.687   4.866  18.731  0.00  0.00    +0.000 A 
ATOM     27  N   UNL     1      51.763   4.276  19.311  0.00  0.00    +0.000 NA
ATOM     28  C   UNL     1      52.890   4.552  18.750  0.00  0.00    +0.000 A 
ATOM     29  N   UNL     1      53.036   5.357  17.648  0.00  0.00    +0.000 N 
ATOM     30  C   UNL     1      51.968   5.924  16.992  0.00  0.00    +0.000 A 
ATOM     31  O   UNL     1      52.126   6.557  15.951  0.00  0.00    +0.000 OA
ATOM     32  C   UNL     1      50.678   5.677  17.613  0.00  0.00    +0.000 A 
ATOM     33  H   UNL     1      53.947   5.514  17.241  0.00  0.00    +0.000 HD
ENDBRANCH  20  23
ENDBRANCH  18  19
ENDBRANCH   4  18
TORSDOF 7
ENDMDL
MODEL 7
REMARK VINA RESULT:    -6.990      3.583      7.910
REMARK INTER + INTRA:         -10.557
REMARK INTER:                  -9.069
REMARK INTRA:                  -1.488
REMARK UNBOUND:                -0.706
REMARK  Name = 
REMARK  8 active torsions:
REMARK  status: ('A' for Active; 'I' for Inactive)
REMARK    1  A    between atoms: C_1  and  O_2
REMARK    2  A    between atoms: O_2  and  C_3
REMARK    3  A    between atoms: C_7  and  C_8
REMARK    4  A    between atoms: C_8  and  N_9
REMARK    5  A    between atoms: N_9  and  C_10
REMARK    6  A    between atoms: C_13  and  C_14
REMARK    7  A    between atoms: C_14  and  N_15
REMARK    8  A    between atoms: C_16  and  C_18
REMARK                            x       y       z     vdW  Elec       q    Type
REMARK                         _______ _______ _______ _____ _____    ______ ____
ROOT
ATOM      1  C   UNL     1      51.203   7.183  17.526  0.00  0.00    +0.000 C 
ATOM      2  C   UNL     1      49.727   7.168  17.961  0.00  0.00    +0.000 C 
ATOM      3  C   UNL     1      48.830   7.931  16.984  0.00  0.00    +0.000 C 
ATOM      4  C   UNL     1      48.976   7.408  15.546  0.00  0.00    +0.000 C 
ATOM      5  C   UNL     1      50.448   7.439  15.120  0.00  0.00    +0.000 C 
ATOM      6  C   UNL     1      51.338   6.666  16.086  0.00  0.00    +0.000 C 
ENDROOT
BRANCH   1   7
ATOM      7  N   UNL     1      51.975   6.382  18.485  0.00  0.00    +0.000 NA
ATOM      8  H   UNL     1      52.760   5.945  18.000  0.00  0.00    +0.000 HD
BRANCH   7   9
ATOM      9  C   UNL     1      51.187   5.323  19.120  0.00  0.00    +0.000 C 
BRANCH   9  14
ATOM     10  C   UNL     1      50.530   2.170  17.080  0.00  0.00    +0.000 A 
ATOM     11  C   UNL     1      51.724   1.468  17.247  0.00  0.00    +0.000 A 
ATOM     12  C   UNL     1      52.738   1.992  18.049  0.00  0.00    +0.000 A 
ATOM     13  C   UNL     1      52.574   3.230  18.670  0.00  0.00    +0.000 A 
ATOM     14  C   UNL     1      51.401   3.971  18.475  0.00  0.00    +0.000 A 
ATOM     15  C   UNL     1      50.371   3.409  17.706  0.00  0.00    +0.000 A 
BRANCH  10  17
ATOM     16  C   UNL     1      48.352   2.661  16.281  0.00  0.00    +0.000 C 
ATOM     17  O   UNL     1      49.452   1.763  16.342  0.00  0.00    +0.000 OA
ENDBRANCH  10  17
ENDBRANCH   9  14
ENDBRANCH   7   9
ENDBRANCH   1   7
BRANCH   4  18
ATOM     18  C   UNL     1      48.147   8.222  14.538  0.00  0.00    +0.000 C 
BRANCH  18  19
ATOM     19  N   UNL     1      47.036   7.482  13.990  0.00  0.00    +0.000 N 
ATOM     20  C   UNL     1      46.628   7.624  12.688  0.00  0.00    +0.000 C 
ATOM     21  O   UNL     1      47.193   8.384  11.907  0.00  0.00    +0.000 OA
ATOM     22  H   UNL     1      46.472   6.939  14.636  0.00  0.00    +0.000 HD
BRANCH  20  23
ATOM     23  C   UNL     1      45.514   6.774  12.253  0.00  0.00    +0.000 A 
ATOM     24  C   UNL     1      44.417   7.355  11.632  0.00  0.00    +0.000 A 
ATOM     25  S   UNL     1      43.219   6.236  11.166  0.00  0.00    +0.000 S 
ATOM     26  C   UNL     1      44.107   4.934  11.821  0.00  0.00    +0.000 A 
ATOM     27  N   UNL     1      43.616   3.669  11.779  0.00  0.00    +0.000 NA
ATOM     28  C   UNL     1      44.368   2.787  12.344  0.00  0.00    +0.000 A 
ATOM     29  N   UNL     1      45.576   3.055  12.937  0.00  0.00    +0.000 N 
ATOM     30  C   UNL     1      46.139   4.310  12.947  0.00  0.00    +0.000 A 
ATOM     31  O   UNL     1      47.266   4.497  13.398  0.00  0.00    +0.000 OA
ATOM     32  C   UNL     1      45.310   5.349  12.360  0.00  0.00    +0.000 A 
ATOM     33  H   UNL     1      46.128   2.313  13.341  0.00  0.00    +0.000 HD
ENDBRANCH  20  23
ENDBRANCH  18  19
ENDBRANCH   4  18
TORSDOF 7
ENDMDL
MODEL 8
REMARK VINA RESULT:    -6.861      3.572      7.393
REMARK INTER + INTRA:         -10.374
REMARK INTER:                  -8.907
REMARK INTRA:                  -1.468
REMARK UNBOUND:                -0.706
REMARK  Name = 
REMARK  8 active torsions:
REMARK  status: ('A' for Active; 'I' for Inactive)
REMARK    1  A    between atoms: C_1  and  O_2
REMARK    2  A    between atoms: O_2  and  C_3
REMARK    3  A    between atoms: C_7  and  C_8
REMARK    4  A    between atoms: C_8  and  N_9
REMARK    5  A    between atoms: N_9  and  C_10
REMARK    6  A    between atoms: C_13  and  C_14
REMARK    7  A    between atoms: C_14  and  N_15
REMARK    8  A    between atoms: C_16  and  C_18
REMARK                            x       y       z     vdW  Elec       q    Type
REMARK                         _______ _______ _______ _____ _____    ______ ____
ROOT
ATOM      1  C   UNL     1      49.537   6.978  17.925  0.00  0.00    +0.000 C 
ATOM      2  C   UNL     1      50.544   7.201  16.781  0.00  0.00    +0.000 C 
ATOM      3  C   UNL     1      49.875   7.772  15.528  0.00  0.00    +0.000 C 
ATOM      4  C   UNL     1      49.105   9.067  15.831  0.00  0.00    +0.000 C 
ATOM      5  C   UNL     1      48.099   8.831  16.963  0.00  0.00    +0.000 C 
ATOM      6  C   UNL     1      48.767   8.276  18.215  0.00  0.00    +0.000 C 
ENDROOT
BRANCH   1   7
ATOM      7  N   UNL     1      50.273   6.488  19.098  0.00  0.00    +0.000 NA
ATOM      8  H   UNL     1      51.237   6.289  18.828  0.00  0.00    +0.000 HD
BRANCH   7   9
ATOM      9  C   UNL     1      49.700   5.268  19.672  0.00  0.00    +0.000 C 
BRANCH   9  14
ATOM     10  C   UNL     1      49.507   2.521  17.036  0.00  0.00    +0.000 A 
ATOM     11  C   UNL     1      48.166   2.582  16.657  0.00  0.00    +0.000 A 
ATOM     12  C   UNL     1      47.320   3.535  17.226  0.00  0.00    +0.000 A 
ATOM     13  C   UNL     1      47.805   4.417  18.192  0.00  0.00    +0.000 A 
ATOM     14  C   UNL     1      49.137   4.339  18.619  0.00  0.00    +0.000 A 
ATOM     15  C   UNL     1      49.986   3.408  18.003  0.00  0.00    +0.000 A 
BRANCH  10  17
ATOM     16  C   UNL     1      51.526   1.334  17.410  0.00  0.00    +0.000 C 
ATOM     17  O   UNL     1      50.444   1.654  16.544  0.00  0.00    +0.000 OA
ENDBRANCH  10  17
ENDBRANCH   9  14
ENDBRANCH   7   9
ENDBRANCH   1   7
BRANCH   4  18
ATOM     18  C   UNL     1      48.355   9.605  14.601  0.00  0.00    +0.000 C 
BRANCH  18  19
ATOM     19  N   UNL     1      47.345   8.697  14.113  0.00  0.00    +0.000 N 
ATOM     20  C   UNL     1      47.218   8.385  12.782  0.00  0.00    +0.000 C 
ATOM     21  O   UNL     1      47.966   8.852  11.928  0.00  0.00    +0.000 OA
ATOM     22  H   UNL     1      46.636   8.389  14.770  0.00  0.00    +0.000 HD
BRANCH  20  23
ATOM     23  C   UNL     1      46.177   7.412  12.434  0.00  0.00    +0.000 A 
ATOM     24  C   UNL     1      45.041   7.842  11.764  0.00  0.00    +0.000 A 
ATOM     25  S   UNL     1      43.937   6.593  11.410  0.00  0.00    +0.000 S 
ATOM     26  C   UNL     1      44.922   5.434  12.184  0.00  0.00    +0.000 A 
ATOM     27  N   UNL     1      44.533   4.136  12.265  0.00  0.00    +0.000 NA
ATOM     28  C   UNL     1      45.349   3.373  12.910  0.00  0.00    +0.000 A 
ATOM     29  N   UNL     1      46.529   3.792  13.471  0.00  0.00    +0.000 N 
ATOM     30  C   UNL     1      46.991   5.083  13.359  0.00  0.00    +0.000 A 
ATOM     31  O   UNL     1      48.098   5.400  13.787  0.00  0.00    +0.000 OA
ATOM     32  C   UNL     1      46.085   5.992  12.678  0.00  0.00    +0.000 A 
ATOM     33  H   UNL     1      47.136   3.138  13.942  0.00  0.00    +0.000 HD
ENDBRANCH  20  23
ENDBRANCH  18  19
ENDBRANCH   4  18
TORSDOF 7
ENDMDL
MODEL 9
REMARK VINA RESULT:    -6.822      2.954      4.486
REMARK INTER + INTRA:         -10.320
REMARK INTER:                  -9.188
REMARK INTRA:                  -1.132
REMARK UNBOUND:                -0.706
REMARK  Name = 
REMARK  8 active torsions:
REMARK  status: ('A' for Active; 'I' for Inactive)
REMARK    1  A    between atoms: C_1  and  O_2
REMARK    2  A    between atoms: O_2  and  C_3
REMARK    3  A    between atoms: C_7  and  C_8
REMARK    4  A    between atoms: C_8  and  N_9
REMARK    5  A    between atoms: N_9  and  C_10
REMARK    6  A    between atoms: C_13  and  C_14
REMARK    7  A    between atoms: C_14  and  N_15
REMARK    8  A    between atoms: C_16  and  C_18
REMARK                            x       y       z     vdW  Elec       q    Type
REMARK                         _______ _______ _______ _____ _____    ______ ____
ROOT
ATOM      1  C   UNL     1      44.865   4.720  11.218  0.00  0.00    +0.000 C 
ATOM      2  C   UNL     1      45.756   5.753  10.505  0.00  0.00    +0.000 C 
ATOM      3  C   UNL     1      46.112   6.932  11.414  0.00  0.00    +0.000 C 
ATOM      4  C   UNL     1      46.766   6.466  12.725  0.00  0.00    +0.000 C 
ATOM      5  C   UNL     1      45.865   5.448  13.431  0.00  0.00    +0.000 C 
ATOM      6  C   UNL     1      45.522   4.267  12.531  0.00  0.00    +0.000 C 
ENDROOT
BRANCH   1   7
ATOM      7  N   UNL     1      44.625   3.603  10.296  0.00  0.00    +0.000 NA
ATOM      8  H   UNL     1      45.322   2.877  10.462  0.00  0.00    +0.000 HD
BRANCH   7   9
ATOM      9  C   UNL     1      44.699   3.992   8.885  0.00  0.00    +0.000 C 
BRANCH   9  14
ATOM     10  C   UNL     1      46.752   1.010   7.687  0.00  0.00    +0.000 A 
ATOM     11  C   UNL     1      47.562   1.594   6.713  0.00  0.00    +0.000 A 
ATOM     12  C   UNL     1      47.475   2.963   6.459  0.00  0.00    +0.000 A 
ATOM     13  C   UNL     1      46.564   3.752   7.161  0.00  0.00    +0.000 A 
ATOM     14  C   UNL     1      45.709   3.175   8.109  0.00  0.00    +0.000 A 
ATOM     15  C   UNL     1      45.842   1.806   8.388  0.00  0.00    +0.000 A 
BRANCH  10  17
ATOM     16  C   UNL     1      46.619  -1.254   6.994  0.00  0.00    +0.000 C 
ATOM     17  O   UNL     1      46.750  -0.309   8.049  0.00  0.00    +0.000 OA
ENDBRANCH  10  17
ENDBRANCH   9  14
ENDBRANCH   7   9
ENDBRANCH   1   7
BRANCH   4  18
ATOM     18  C   UNL     1      47.049   7.633  13.686  0.00  0.00    +0.000 C 
BRANCH  18  19
ATOM     19  N   UNL     1      48.401   8.129  13.590  0.00  0.00    +0.000 N 
ATOM     20  C   UNL     1      49.452   7.531  14.240  0.00  0.00    +0.000 C 
ATOM     21  O   UNL     1      49.304   6.530  14.934  0.00  0.00    +0.000 OA
ATOM     22  H   UNL     1      48.540   9.021  13.128  0.00  0.00    +0.000 HD
BRANCH  20  23
ATOM     23  C   UNL     1      50.779   8.114  14.016  0.00  0.00    +0.000 A 
ATOM     24  C   UNL     1      51.542   8.507  15.106  0.00  0.00    +0.000 A 
ATOM     25  S   UNL     1      53.066   9.144  14.685  0.00  0.00    +0.000 S 
ATOM     26  C   UNL     1      52.740   8.958  13.020  0.00  0.00    +0.000 A 
ATOM     27  N   UNL     1      53.647   9.348  12.089  0.00  0.00    +0.000 NA
ATOM     28  C   UNL     1      53.260   9.190  10.869  0.00  0.00    +0.000 A 
ATOM     29  N   UNL     1      52.049   8.663  10.497  0.00  0.00    +0.000 N 
ATOM     30  C   UNL     1      51.128   8.197  11.406  0.00  0.00    +0.000 A 
ATOM     31  O   UNL     1      50.097   7.641  11.037  0.00  0.00    +0.000 OA
ATOM     32  C   UNL     1      51.499   8.394  12.797  0.00  0.00    +0.000 A 
ATOM     33  H   UNL     1      51.817   8.542   9.522  0.00  0.00    +0.000 HD
ENDBRANCH  20  23
ENDBRANCH  18  19
ENDBRANCH   4  18
TORSDOF 7
ENDMDL
