MODEL 1
REMARK VINA RESULT:    -7.449      0.000      0.000
REMARK INTER + INTRA:         -10.907
REMARK INTER:                 -10.279
REMARK INTRA:                  -0.628
REMARK UNBOUND:                -0.628
REMARK  Name = 
REMARK  8 active torsions:
REMARK  status: ('A' for Active; 'I' for Inactive)
REMARK    1  A    between atoms: C_1  and  N_2
REMARK    2  A    between atoms: C_4  and  C_5
REMARK    3  A    between atoms: N_7  and  C_8
REMARK    4  A    between atoms: C_8  and  C_9
REMARK    5  A    between atoms: C_12  and  O_13
REMARK    6  A    between atoms: O_13  and  C_14
REMARK    7  A    between atoms: C_14  and  C_15
REMARK    8  A    between atoms: C_15  and  O_16
REMARK                            x       y       z     vdW  Elec       q    Type
REMARK                         _______ _______ _______ _____ _____    ______ ____
ROOT
ATOM      1  C   UNL     1      45.404   4.692  12.218  0.00  0.00    +0.000 C 
ATOM      2  O   UNL     1      44.779   5.620  11.713  0.00  0.00    +0.000 OA
ATOM      3  N   UNL     1      45.296   3.408  11.721  0.00  0.00    +0.000 N 
ATOM      4  H   UNL     1      45.825   2.672  12.179  0.00  0.00    +0.000 HD
ENDROOT
BRANCH   1   8
ATOM      5  C   UNL     1      47.287   3.910  16.618  0.00  0.00    +0.000 C 
ATOM      6  N   UNL     1      47.117   4.503  15.312  0.00  0.00    +0.000 N 
ATOM      7  N   UNL     1      46.152   4.073  14.474  0.00  0.00    +0.000 NA
ATOM      8  C   UNL     1      46.299   4.855  13.377  0.00  0.00    +0.000 A 
ATOM      9  C   UNL     1      47.381   5.782  13.538  0.00  0.00    +0.000 A 
ATOM     10  C   UNL     1      48.053   6.801  12.875  0.00  0.00    +0.000 A 
ATOM     11 CL   UNL     1      47.634   7.300  11.313  0.00  0.00    +0.000 Cl
ATOM     12  N   UNL     1      49.088   7.456  13.434  0.00  0.00    +0.000 NA
ATOM     13  C   UNL     1      49.452   7.087  14.668  0.00  0.00    +0.000 A 
ATOM     14  N   UNL     1      48.902   6.127  15.426  0.00  0.00    +0.000 NA
ATOM     15  C   UNL     1      47.877   5.516  14.806  0.00  0.00    +0.000 A 
ENDBRANCH   1   8
BRANCH   3  16
ATOM     16  C   UNL     1      44.429   3.171  10.596  0.00  0.00    +0.000 C 
BRANCH  16  17
ATOM     17  C   UNL     1      45.135   3.019   9.286  0.00  0.00    +0.000 A 
ATOM     18  C   UNL     1      45.613   1.782   8.844  0.00  0.00    +0.000 A 
ATOM     19  C   UNL     1      46.340   1.704   7.657  0.00  0.00    +0.000 A 
ATOM     20  C   UNL     1      46.578   2.875   6.955  0.00  0.00    +0.000 A 
ATOM     21  N   UNL     1      46.108   4.080   7.338  0.00  0.00    +0.000 NA
ATOM     22  C   UNL     1      45.395   4.124   8.486  0.00  0.00    +0.000 A 
BRANCH  20  23
ATOM     23  O   UNL     1      47.313   2.773   5.789  0.00  0.00    +0.000 OA
BRANCH  23  24
ATOM     24  C   UNL     1      47.491   1.406   5.387  0.00  0.00    +0.000 C 
BRANCH  24  25
ATOM     25  C   UNL     1      46.774   1.186   4.058  0.00  0.00    +0.000 C 
BRANCH  25  26
ATOM     26  O   UNL     1      47.578   0.412   3.171  0.00  0.00    +0.000 OA
ATOM     27  H   UNL     1      47.219   0.562   2.277  0.00  0.00    +0.000 HD
ENDBRANCH  25  26
ENDBRANCH  24  25
ENDBRANCH  23  24
ENDBRANCH  20  23
ENDBRANCH  16  17
ENDBRANCH   3  16
TORSDOF 7
ENDMDL
MODEL 2
REMARK VINA RESULT:    -7.443      1.410      1.698
REMARK INTER + INTRA:         -10.900
REMARK INTER:                 -10.533
REMARK INTRA:                  -0.366
REMARK UNBOUND:                -0.628
REMARK  Name = 
REMARK  8 active torsions:
REMARK  status: ('A' for Active; 'I' for Inactive)
REMARK    1  A    between atoms: C_1  and  N_2
REMARK    2  A    between atoms: C_4  and  C_5
REMARK    3  A    between atoms: N_7  and  C_8
REMARK    4  A    between atoms: C_8  and  C_9
REMARK    5  A    between atoms: C_12  and  O_13
REMARK    6  A    between atoms: O_13  and  C_14
REMARK    7  A    between atoms: C_14  and  C_15
REMARK    8  A    between atoms: C_15  and  O_16
REMARK                            x       y       z     vdW  Elec       q    Type
REMARK                         _______ _______ _______ _____ _____    ______ ____
ROOT
ATOM      1  C   UNL     1      45.883   4.018  13.376  0.00  0.00    +0.000 C 
ATOM      2  O   UNL     1      45.921   2.871  12.941  0.00  0.00    +0.000 OA
ATOM      3  N   UNL     1      44.930   4.914  12.935  0.00  0.00    +0.000 N 
ATOM      4  H   UNL     1      44.946   5.856  13.317  0.00  0.00    +0.000 HD
ENDROOT
BRANCH   1   8
ATOM      5  C   UNL     1      48.253   4.377  17.591  0.00  0.00    +0.000 C 
ATOM      6  N   UNL     1      47.866   4.683  16.235  0.00  0.00    +0.000 N 
ATOM      7  N   UNL     1      46.924   3.956  15.600  0.00  0.00    +0.000 NA
ATOM      8  C   UNL     1      46.832   4.535  14.377  0.00  0.00    +0.000 A 
ATOM      9  C   UNL     1      47.741   5.637  14.253  0.00  0.00    +0.000 A 
ATOM     10  C   UNL     1      48.159   6.610  13.353  0.00  0.00    +0.000 A 
ATOM     11 CL   UNL     1      47.522   6.737  11.791  0.00  0.00    +0.000 Cl
ATOM     12  N   UNL     1      49.104   7.515  13.669  0.00  0.00    +0.000 NA
ATOM     13  C   UNL     1      49.635   7.444  14.896  0.00  0.00    +0.000 A 
ATOM     14  N   UNL     1      49.334   6.565  15.864  0.00  0.00    +0.000 NA
ATOM     15  C   UNL     1      48.385   5.693  15.479  0.00  0.00    +0.000 A 
ENDBRANCH   1   8
BRANCH   3  16
ATOM     16  C   UNL     1      43.976   4.482  11.946  0.00  0.00    +0.000 C 
BRANCH  16  17
ATOM     17  C   UNL     1      44.531   4.343  10.564  0.00  0.00    +0.000 A 
ATOM     18  C   UNL     1      44.356   3.179   9.811  0.00  0.00    +0.000 A 
ATOM     19  C   UNL     1      44.964   3.063   8.562  0.00  0.00    +0.000 A 
ATOM     20  C   UNL     1      45.743   4.117   8.112  0.00  0.00    +0.000 A 
ATOM     21  N   UNL     1      45.911   5.265   8.799  0.00  0.00    +0.000 NA
ATOM     22  C   UNL     1      45.299   5.355  10.001  0.00  0.00    +0.000 A 
BRANCH  20  23
ATOM     23  O   UNL     1      46.347   3.972   6.876  0.00  0.00    +0.000 OA
BRANCH  23  24
ATOM     24  C   UNL     1      47.301   2.899   6.871  0.00  0.00    +0.000 C 
BRANCH  24  25
ATOM     25  C   UNL     1      47.462   2.390   5.442  0.00  0.00    +0.000 C 
BRANCH  25  26
ATOM     26  O   UNL     1      48.453   1.367   5.376  0.00  0.00    +0.000 OA
ATOM     27  H   UNL     1      48.540   1.014   6.281  0.00  0.00    +0.000 HD
ENDBRANCH  25  26
ENDBRANCH  24  25
ENDBRANCH  23  24
ENDBRANCH  20  23
ENDBRANCH  16  17
ENDBRANCH   3  16
TORSDOF 7
ENDMDL
MODEL 3
REMARK VINA RESULT:    -7.345      2.133      2.886
REMARK INTER + INTRA:         -10.765
REMARK INTER:                 -10.155
REMARK INTRA:                  -0.610
REMARK UNBOUND:                -0.628
REMARK  Name = 
REMARK  8 active torsions:
REMARK  status: ('A' for Active; 'I' for Inactive)
REMARK    1  A    between atoms: C_1  and  N_2
REMARK    2  A    between atoms: C_4  and  C_5
REMARK    3  A    between atoms: N_7  and  C_8
REMARK    4  A    between atoms: C_8  and  C_9
REMARK    5  A    between atoms: C_12  and  O_13
REMARK    6  A    between atoms: O_13  and  C_14
REMARK    7  A    between atoms: C_14  and  C_15
REMARK    8  A    between atoms: C_15  and  O_16
REMARK                            x       y       z     vdW  Elec       q    Type
REMARK                         _______ _______ _______ _____ _____    ______ ____
ROOT
ATOM      1  C   UNL     1      44.742   5.304  11.379  0.00  0.00    +0.000 C 
ATOM      2  O   UNL     1      44.225   4.423  12.060  0.00  0.00    +0.000 OA
ATOM      3  N   UNL     1      44.812   5.189  10.004  0.00  0.00    +0.000 N 
ATOM      4  H   UNL     1      45.258   5.940   9.485  0.00  0.00    +0.000 HD
ENDROOT
BRANCH   1   8
ATOM      5  C   UNL     1      45.442  10.039  12.152  0.00  0.00    +0.000 C 
ATOM      6  N   UNL     1      45.625   8.613  12.280  0.00  0.00    +0.000 N 
ATOM      7  N   UNL     1      44.866   7.748  11.575  0.00  0.00    +0.000 NA
ATOM      8  C   UNL     1      45.326   6.529  11.949  0.00  0.00    +0.000 A 
ATOM      9  C   UNL     1      46.385   6.643  12.910  0.00  0.00    +0.000 A 
ATOM     10  C   UNL     1      47.254   5.872  13.673  0.00  0.00    +0.000 A 
ATOM     11 CL   UNL     1      47.246   4.181  13.628  0.00  0.00    +0.000 Cl
ATOM     12  N   UNL     1      48.158   6.426  14.502  0.00  0.00    +0.000 NA
ATOM     13  C   UNL     1      48.192   7.762  14.568  0.00  0.00    +0.000 A 
ATOM     14  N   UNL     1      47.420   8.631  13.897  0.00  0.00    +0.000 NA
ATOM     15  C   UNL     1      46.542   8.009  13.090  0.00  0.00    +0.000 A 
ENDBRANCH   1   8
BRANCH   3  16
ATOM     16  C   UNL     1      44.271   4.011   9.377  0.00  0.00    +0.000 C 
BRANCH  16  17
ATOM     17  C   UNL     1      45.260   3.220   8.580  0.00  0.00    +0.000 A 
ATOM     18  C   UNL     1      45.967   3.782   7.514  0.00  0.00    +0.000 A 
ATOM     19  C   UNL     1      46.813   2.983   6.746  0.00  0.00    +0.000 A 
ATOM     20  C   UNL     1      46.913   1.638   7.065  0.00  0.00    +0.000 A 
ATOM     21  N   UNL     1      46.266   1.069   8.103  0.00  0.00    +0.000 NA
ATOM     22  C   UNL     1      45.463   1.870   8.838  0.00  0.00    +0.000 A 
BRANCH  20  23
ATOM     23  O   UNL     1      47.747   0.864   6.279  0.00  0.00    +0.000 OA
BRANCH  23  24
ATOM     24  C   UNL     1      47.695   1.255   4.898  0.00  0.00    +0.000 C 
BRANCH  24  25
ATOM     25  C   UNL     1      46.948   0.182   4.111  0.00  0.00    +0.000 C 
BRANCH  25  26
ATOM     26  O   UNL     1      47.400   0.139   2.759  0.00  0.00    +0.000 OA
ATOM     27  H   UNL     1      48.293   0.530   2.758  0.00  0.00    +0.000 HD
ENDBRANCH  25  26
ENDBRANCH  24  25
ENDBRANCH  23  24
ENDBRANCH  20  23
ENDBRANCH  16  17
ENDBRANCH   3  16
TORSDOF 7
ENDMDL
MODEL 4
REMARK VINA RESULT:    -7.181      2.408      3.675
REMARK INTER + INTRA:         -10.538
REMARK INTER:                  -9.952
REMARK INTRA:                  -0.585
REMARK UNBOUND:                -0.628
REMARK  Name = 
REMARK  8 active torsions:
REMARK  status: ('A' for Active; 'I' for Inactive)
REMARK    1  A    between atoms: C_1  and  N_2
REMARK    2  A    between atoms: C_4  and  C_5
REMARK    3  A    between atoms: N_7  and  C_8
REMARK    4  A    between atoms: C_8  and  C_9
REMARK    5  A    between atoms: C_12  and  O_13
REMARK    6  A    between atoms: O_13  and  C_14
REMARK    7  A    between atoms: C_14  and  C_15
REMARK    8  A    between atoms: C_15  and  O_16
REMARK                            x       y       z     vdW  Elec       q    Type
REMARK                         _______ _______ _______ _____ _____    ______ ____
ROOT
ATOM      1  C   UNL     1      46.705   4.652  14.159  0.00  0.00    +0.000 C 
ATOM      2  O   UNL     1      46.734   3.431  14.030  0.00  0.00    +0.000 OA
ATOM      3  N   UNL     1      45.659   5.396  13.650  0.00  0.00    +0.000 N 
ATOM      4  H   UNL     1      45.686   6.404  13.774  0.00  0.00    +0.000 HD
ENDROOT
BRANCH   1   8
ATOM      5  C   UNL     1      50.154   7.995  14.824  0.00  0.00    +0.000 C 
ATOM      6  N   UNL     1      49.275   6.890  15.124  0.00  0.00    +0.000 N 
ATOM      7  N   UNL     1      48.386   6.442  14.214  0.00  0.00    +0.000 NA
ATOM      8  C   UNL     1      47.761   5.417  14.844  0.00  0.00    +0.000 A 
ATOM      9  C   UNL     1      48.269   5.234  16.173  0.00  0.00    +0.000 A 
ATOM     10  C   UNL     1      48.109   4.441  17.302  0.00  0.00    +0.000 A 
ATOM     11 CL   UNL     1      46.973   3.190  17.381  0.00  0.00    +0.000 Cl
ATOM     12  N   UNL     1      48.850   4.622  18.412  0.00  0.00    +0.000 NA
ATOM     13  C   UNL     1      49.757   5.606  18.390  0.00  0.00    +0.000 A 
ATOM     14  N   UNL     1      50.022   6.447  17.378  0.00  0.00    +0.000 NA
ATOM     15  C   UNL     1      49.247   6.208  16.305  0.00  0.00    +0.000 A 
ENDBRANCH   1   8
BRANCH   3  16
ATOM     16  C   UNL     1      44.597   4.716  12.956  0.00  0.00    +0.000 C 
BRANCH  16  17
ATOM     17  C   UNL     1      44.889   4.404  11.522  0.00  0.00    +0.000 A 
ATOM     18  C   UNL     1      45.365   5.376  10.637  0.00  0.00    +0.000 A 
ATOM     19  C   UNL     1      45.541   5.060   9.291  0.00  0.00    +0.000 A 
ATOM     20  C   UNL     1      45.218   3.780   8.870  0.00  0.00    +0.000 A 
ATOM     21  N   UNL     1      44.782   2.811   9.700  0.00  0.00    +0.000 NA
ATOM     22  C   UNL     1      44.634   3.141  11.003  0.00  0.00    +0.000 A 
BRANCH  20  23
ATOM     23  O   UNL     1      45.387   3.497   7.527  0.00  0.00    +0.000 OA
BRANCH  23  24
ATOM     24  C   UNL     1      46.741   3.718   7.101  0.00  0.00    +0.000 C 
BRANCH  24  25
ATOM     25  C   UNL     1      47.466   2.377   7.047  0.00  0.00    +0.000 C 
BRANCH  25  26
ATOM     26  O   UNL     1      48.635   2.465   6.234  0.00  0.00    +0.000 OA
ATOM     27  H   UNL     1      49.392   2.318   6.830  0.00  0.00    +0.000 HD
ENDBRANCH  25  26
ENDBRANCH  24  25
ENDBRANCH  23  24
ENDBRANCH  20  23
ENDBRANCH  16  17
ENDBRANCH   3  16
TORSDOF 7
ENDMDL
MODEL 5
REMARK VINA RESULT:    -6.731      3.331      4.243
REMARK INTER + INTRA:          -9.917
REMARK INTER:                  -9.410
REMARK INTRA:                  -0.507
REMARK UNBOUND:                -0.628
REMARK  Name = 
REMARK  8 active torsions:
REMARK  status: ('A' for Active; 'I' for Inactive)
REMARK    1  A    between atoms: C_1  and  N_2
REMARK    2  A    between atoms: C_4  and  C_5
REMARK    3  A    between atoms: N_7  and  C_8
REMARK    4  A    between atoms: C_8  and  C_9
REMARK    5  A    between atoms: C_12  and  O_13
REMARK    6  A    between atoms: O_13  and  C_14
REMARK    7  A    between atoms: C_14  and  C_15
REMARK    8  A    between atoms: C_15  and  O_16
REMARK                            x       y       z     vdW  Elec       q    Type
REMARK                         _______ _______ _______ _____ _____    ______ ____
ROOT
ATOM      1  C   UNL     1      44.799   6.835  12.045  0.00  0.00    +0.000 C 
ATOM      2  O   UNL     1      44.512   6.142  13.017  0.00  0.00    +0.000 OA
ATOM      3  N   UNL     1      44.402   6.472  10.773  0.00  0.00    +0.000 N 
ATOM      4  H   UNL     1      44.672   7.073   9.999  0.00  0.00    +0.000 HD
ENDROOT
BRANCH   1   8
ATOM      5  C   UNL     1      48.526   9.763  13.068  0.00  0.00    +0.000 C 
ATOM      6  N   UNL     1      47.224   9.357  12.596  0.00  0.00    +0.000 N 
ATOM      7  N   UNL     1      46.832   8.067  12.659  0.00  0.00    +0.000 NA
ATOM      8  C   UNL     1      45.579   8.080  12.141  0.00  0.00    +0.000 A 
ATOM      9  C   UNL     1      45.193   9.402  11.743  0.00  0.00    +0.000 A 
ATOM     10  C   UNL     1      44.137  10.107  11.178  0.00  0.00    +0.000 A 
ATOM     11 CL   UNL     1      42.696   9.358  10.703  0.00  0.00    +0.000 Cl
ATOM     12  N   UNL     1      44.197  11.435  10.968  0.00  0.00    +0.000 NA
ATOM     13  C   UNL     1      45.323  12.063  11.326  0.00  0.00    +0.000 A 
ATOM     14  N   UNL     1      46.418  11.518  11.878  0.00  0.00    +0.000 NA
ATOM     15  C   UNL     1      46.288  10.191  12.059  0.00  0.00    +0.000 A 
ENDBRANCH   1   8
BRANCH   3  16
ATOM     16  C   UNL     1      43.646   5.259  10.601  0.00  0.00    +0.000 C 
BRANCH  16  17
ATOM     17  C   UNL     1      44.382   4.159   9.904  0.00  0.00    +0.000 A 
ATOM     18  C   UNL     1      45.286   4.415   8.869  0.00  0.00    +0.000 A 
ATOM     19  C   UNL     1      45.883   3.353   8.192  0.00  0.00    +0.000 A 
ATOM     20  C   UNL     1      45.543   2.063   8.566  0.00  0.00    +0.000 A 
ATOM     21  N   UNL     1      44.696   1.780   9.576  0.00  0.00    +0.000 NA
ATOM     22  C   UNL     1      44.142   2.829  10.224  0.00  0.00    +0.000 A 
BRANCH  20  23
ATOM     23  O   UNL     1      46.138   1.027   7.869  0.00  0.00    +0.000 OA
BRANCH  23  24
ATOM     24  C   UNL     1      47.395   1.421   7.297  0.00  0.00    +0.000 C 
BRANCH  24  25
ATOM     25  C   UNL     1      47.341   1.198   5.789  0.00  0.00    +0.000 C 
BRANCH  25  26
ATOM     26  O   UNL     1      48.517   1.704   5.160  0.00  0.00    +0.000 OA
ATOM     27  H   UNL     1      48.294   1.818   4.218  0.00  0.00    +0.000 HD
ENDBRANCH  25  26
ENDBRANCH  24  25
ENDBRANCH  23  24
ENDBRANCH  20  23
ENDBRANCH  16  17
ENDBRANCH   3  16
TORSDOF 7
ENDMDL
MODEL 6
REMARK VINA RESULT:    -6.669      4.802      8.183
REMARK INTER + INTRA:          -9.832
REMARK INTER:                  -9.308
REMARK INTRA:                  -0.523
REMARK UNBOUND:                -0.628
REMARK  Name = 
REMARK  8 active torsions:
REMARK  status: ('A' for Active; 'I' for Inactive)
REMARK    1  A    between atoms: C_1  and  N_2
REMARK    2  A    between atoms: C_4  and  C_5
REMARK    3  A    between atoms: N_7  and  C_8
REMARK    4  A    between atoms: C_8  and  C_9
REMARK    5  A    between atoms: C_12  and  O_13
REMARK    6  A    between atoms: O_13  and  C_14
REMARK    7  A    between atoms: C_14  and  C_15
REMARK    8  A    between atoms: C_15  and  O_16
REMARK                            x       y       z     vdW  Elec       q    Type
REMARK                         _______ _______ _______ _____ _____    ______ ____
ROOT
ATOM      1  C   UNL     1      47.173   5.277  14.615  0.00  0.00    +0.000 C 
ATOM      2  O   UNL     1      48.206   5.851  14.281  0.00  0.00    +0.000 OA
ATOM      3  N   UNL     1      46.993   4.837  15.911  0.00  0.00    +0.000 N 
ATOM      4  H   UNL     1      46.124   4.359  16.136  0.00  0.00    +0.000 HD
ENDROOT
BRANCH   1   8
ATOM      5  C   UNL     1      43.836   2.735  12.184  0.00  0.00    +0.000 C 
ATOM      6  N   UNL     1      44.601   3.878  12.623  0.00  0.00    +0.000 N 
ATOM      7  N   UNL     1      45.583   3.746  13.539  0.00  0.00    +0.000 NA
ATOM      8  C   UNL     1      46.063   5.006  13.686  0.00  0.00    +0.000 A 
ATOM      9  C   UNL     1      45.358   5.934  12.851  0.00  0.00    +0.000 A 
ATOM     10  C   UNL     1      45.311   7.281  12.514  0.00  0.00    +0.000 A 
ATOM     11 CL   UNL     1      46.348   8.427  13.203  0.00  0.00    +0.000 Cl
ATOM     12  N   UNL     1      44.432   7.762  11.616  0.00  0.00    +0.000 NA
ATOM     13  C   UNL     1      43.591   6.886  11.051  0.00  0.00    +0.000 A 
ATOM     14  N   UNL     1      43.519   5.566  11.277  0.00  0.00    +0.000 NA
ATOM     15  C   UNL     1      44.425   5.156  12.183  0.00  0.00    +0.000 A 
ENDBRANCH   1   8
BRANCH   3  16
ATOM     16  C   UNL     1      48.042   5.057  16.872  0.00  0.00    +0.000 C 
BRANCH  16  17
ATOM     17  C   UNL     1      49.000   3.917  17.021  0.00  0.00    +0.000 A 
ATOM     18  C   UNL     1      50.183   4.038  17.755  0.00  0.00    +0.000 A 
ATOM     19  C   UNL     1      51.085   2.976  17.794  0.00  0.00    +0.000 A 
ATOM     20  C   UNL     1      50.777   1.827  17.083  0.00  0.00    +0.000 A 
ATOM     21  N   UNL     1      49.633   1.667  16.388  0.00  0.00    +0.000 NA
ATOM     22  C   UNL     1      48.771   2.707  16.377  0.00  0.00    +0.000 A 
BRANCH  20  23
ATOM     23  O   UNL     1      51.695   0.794  17.126  0.00  0.00    +0.000 OA
BRANCH  23  24
ATOM     24  C   UNL     1      53.013   1.262  17.452  0.00  0.00    +0.000 C 
BRANCH  24  25
ATOM     25  C   UNL     1      54.010   0.132  17.215  0.00  0.00    +0.000 C 
BRANCH  25  26
ATOM     26  O   UNL     1      53.712  -0.561  16.005  0.00  0.00    +0.000 OA
ATOM     27  H   UNL     1      53.812  -1.510  16.203  0.00  0.00    +0.000 HD
ENDBRANCH  25  26
ENDBRANCH  24  25
ENDBRANCH  23  24
ENDBRANCH  20  23
ENDBRANCH  16  17
ENDBRANCH   3  16
TORSDOF 7
ENDMDL
MODEL 7
REMARK VINA RESULT:    -6.429      5.083      8.424
REMARK INTER + INTRA:          -9.499
REMARK INTER:                  -8.944
REMARK INTRA:                  -0.555
REMARK UNBOUND:                -0.628
REMARK  Name = 
REMARK  8 active torsions:
REMARK  status: ('A' for Active; 'I' for Inactive)
REMARK    1  A    between atoms: C_1  and  N_2
REMARK    2  A    between atoms: C_4  and  C_5
REMARK    3  A    between atoms: N_7  and  C_8
REMARK    4  A    between atoms: C_8  and  C_9
REMARK    5  A    between atoms: C_12  and  O_13
REMARK    6  A    between atoms: O_13  and  C_14
REMARK    7  A    between atoms: C_14  and  C_15
REMARK    8  A    between atoms: C_15  and  O_16
REMARK                            x       y       z     vdW  Elec       q    Type
REMARK                         _______ _______ _______ _____ _____    ______ ____
ROOT
ATOM      1  C   UNL     1      47.005   4.305  14.566  0.00  0.00    +0.000 C 
ATOM      2  O   UNL     1      47.156   3.156  14.159  0.00  0.00    +0.000 OA
ATOM      3  N   UNL     1      47.023   4.588  15.918  0.00  0.00    +0.000 N 
ATOM      4  H   UNL     1      46.883   5.552  16.206  0.00  0.00    +0.000 HD
ENDROOT
BRANCH   1   8
ATOM      5  C   UNL     1      47.951   8.433  12.206  0.00  0.00    +0.000 C 
ATOM      6  N   UNL     1      47.214   7.271  12.643  0.00  0.00    +0.000 N 
ATOM      7  N   UNL     1      47.761   6.383  13.499  0.00  0.00    +0.000 NA
ATOM      8  C   UNL     1      46.787   5.456  13.675  0.00  0.00    +0.000 A 
ATOM      9  C   UNL     1      45.619   5.775  12.906  0.00  0.00    +0.000 A 
ATOM     10  C   UNL     1      44.342   5.310  12.619  0.00  0.00    +0.000 A 
ATOM     11 CL   UNL     1      43.723   3.883  13.285  0.00  0.00    +0.000 Cl
ATOM     12  N   UNL     1      43.514   5.967  11.785  0.00  0.00    +0.000 NA
ATOM     13  C   UNL     1      43.969   7.099  11.234  0.00  0.00    +0.000 A 
ATOM     14  N   UNL     1      45.171   7.666  11.416  0.00  0.00    +0.000 NA
ATOM     15  C   UNL     1      45.944   6.957  12.258  0.00  0.00    +0.000 A 
ENDBRANCH   1   8
BRANCH   3  16
ATOM     16  C   UNL     1      47.219   3.508  16.850  0.00  0.00    +0.000 C 
BRANCH  16  17
ATOM     17  C   UNL     1      48.652   3.178  17.129  0.00  0.00    +0.000 A 
ATOM     18  C   UNL     1      49.480   4.038  17.856  0.00  0.00    +0.000 A 
ATOM     19  C   UNL     1      50.829   3.728  18.017  0.00  0.00    +0.000 A 
ATOM     20  C   UNL     1      51.311   2.568  17.430  0.00  0.00    +0.000 A 
ATOM     21  N   UNL     1      50.535   1.704  16.746  0.00  0.00    +0.000 NA
ATOM     22  C   UNL     1      49.228   2.022  16.616  0.00  0.00    +0.000 A 
BRANCH  20  23
ATOM     23  O   UNL     1      52.655   2.291  17.592  0.00  0.00    +0.000 OA
BRANCH  23  24
ATOM     24  C   UNL     1      52.889   0.892  17.815  0.00  0.00    +0.000 C 
BRANCH  24  25
ATOM     25  C   UNL     1      54.085   0.452  16.976  0.00  0.00    +0.000 C 
BRANCH  25  26
ATOM     26  O   UNL     1      54.102  -0.966  16.823  0.00  0.00    +0.000 OA
ATOM     27  H   UNL     1      53.191  -1.269  16.988  0.00  0.00    +0.000 HD
ENDBRANCH  25  26
ENDBRANCH  24  25
ENDBRANCH  23  24
ENDBRANCH  20  23
ENDBRANCH  16  17
ENDBRANCH   3  16
TORSDOF 7
ENDMDL
MODEL 8
REMARK VINA RESULT:    -6.307      3.033      4.198
REMARK INTER + INTRA:          -9.332
REMARK INTER:                  -8.701
REMARK INTRA:                  -0.630
REMARK UNBOUND:                -0.628
REMARK  Name = 
REMARK  8 active torsions:
REMARK  status: ('A' for Active; 'I' for Inactive)
REMARK    1  A    between atoms: C_1  and  N_2
REMARK    2  A    between atoms: C_4  and  C_5
REMARK    3  A    between atoms: N_7  and  C_8
REMARK    4  A    between atoms: C_8  and  C_9
REMARK    5  A    between atoms: C_12  and  O_13
REMARK    6  A    between atoms: O_13  and  C_14
REMARK    7  A    between atoms: C_14  and  C_15
REMARK    8  A    between atoms: C_15  and  O_16
REMARK                            x       y       z     vdW  Elec       q    Type
REMARK                         _______ _______ _______ _____ _____    ______ ____
ROOT
ATOM      1  C   UNL     1      45.320   7.482  12.182  0.00  0.00    +0.000 C 
ATOM      2  O   UNL     1      45.669   6.710  13.071  0.00  0.00    +0.000 OA
ATOM      3  N   UNL     1      44.397   7.097  11.230  0.00  0.00    +0.000 N 
ATOM      4  H   UNL     1      44.147   7.769  10.509  0.00  0.00    +0.000 HD
ENDROOT
BRANCH   1   8
ATOM      5  C   UNL     1      45.288  12.306  11.695  0.00  0.00    +0.000 C 
ATOM      6  N   UNL     1      45.819  10.971  11.833  0.00  0.00    +0.000 N 
ATOM      7  N   UNL     1      45.000   9.905  11.947  0.00  0.00    +0.000 NA
ATOM      8  C   UNL     1      45.846   8.851  12.047  0.00  0.00    +0.000 A 
ATOM      9  C   UNL     1      47.215   9.275  12.002  0.00  0.00    +0.000 A 
ATOM     10  C   UNL     1      48.513   8.780  12.049  0.00  0.00    +0.000 A 
ATOM     11 CL   UNL     1      48.851   7.132  12.223  0.00  0.00    +0.000 Cl
ATOM     12  N   UNL     1      49.587   9.587  11.962  0.00  0.00    +0.000 NA
ATOM     13  C   UNL     1      49.360  10.899  11.827  0.00  0.00    +0.000 A 
ATOM     14  N   UNL     1      48.171  11.517  11.768  0.00  0.00    +0.000 NA
ATOM     15  C   UNL     1      47.145  10.653  11.861  0.00  0.00    +0.000 A 
ENDBRANCH   1   8
BRANCH   3  16
ATOM     16  C   UNL     1      43.849   5.768  11.292  0.00  0.00    +0.000 C 
BRANCH  16  17
ATOM     17  C   UNL     1      44.478   4.789  10.351  0.00  0.00    +0.000 A 
ATOM     18  C   UNL     1      45.393   5.189   9.374  0.00  0.00    +0.000 A 
ATOM     19  C   UNL     1      45.888   4.256   8.464  0.00  0.00    +0.000 A 
ATOM     20  C   UNL     1      45.436   2.949   8.555  0.00  0.00    +0.000 A 
ATOM     21  N   UNL     1      44.575   2.523   9.502  0.00  0.00    +0.000 NA
ATOM     22  C   UNL     1      44.122   3.447  10.378  0.00  0.00    +0.000 A 
BRANCH  20  23
ATOM     23  O   UNL     1      45.930   2.045   7.633  0.00  0.00    +0.000 OA
BRANCH  23  24
ATOM     24  C   UNL     1      47.153   2.505   7.036  0.00  0.00    +0.000 C 
BRANCH  24  25
ATOM     25  C   UNL     1      47.158   2.118   5.561  0.00  0.00    +0.000 C 
BRANCH  25  26
ATOM     26  O   UNL     1      48.485   1.853   5.110  0.00  0.00    +0.000 OA
ATOM     27  H   UNL     1      49.042   1.821   5.910  0.00  0.00    +0.000 HD
ENDBRANCH  25  26
ENDBRANCH  24  25
ENDBRANCH  23  24
ENDBRANCH  20  23
ENDBRANCH  16  17
ENDBRANCH   3  16
TORSDOF 7
ENDMDL
MODEL 9
REMARK VINA RESULT:    -6.268      3.475      5.237
REMARK INTER + INTRA:          -9.277
REMARK INTER:                  -8.500
REMARK INTRA:                  -0.777
REMARK UNBOUND:                -0.628
REMARK  Name = 
REMARK  8 active torsions:
REMARK  status: ('A' for Active; 'I' for Inactive)
REMARK    1  A    between atoms: C_1  and  N_2
REMARK    2  A    between atoms: C_4  and  C_5
REMARK    3  A    between atoms: N_7  and  C_8
REMARK    4  A    between atoms: C_8  and  C_9
REMARK    5  A    between atoms: C_12  and  O_13
REMARK    6  A    between atoms: O_13  and  C_14
REMARK    7  A    between atoms: C_14  and  C_15
REMARK    8  A    between atoms: C_15  and  O_16
REMARK                            x       y       z     vdW  Elec       q    Type
REMARK                         _______ _______ _______ _____ _____    ______ ____
ROOT
ATOM      1  C   UNL     1      48.741   6.955  14.644  0.00  0.00    +0.000 C 
ATOM      2  O   UNL     1      49.546   6.965  13.717  0.00  0.00    +0.000 OA
ATOM      3  N   UNL     1      47.451   7.415  14.470  0.00  0.00    +0.000 N 
ATOM      4  H   UNL     1      46.825   7.395  15.270  0.00  0.00    +0.000 HD
ENDROOT
BRANCH   1   8
ATOM      5  C   UNL     1      50.750   6.899  19.057  0.00  0.00    +0.000 C 
ATOM      6  N   UNL     1      49.960   6.458  17.932  0.00  0.00    +0.000 N 
ATOM      7  N   UNL     1      49.877   7.198  16.808  0.00  0.00    +0.000 NA
ATOM      8  C   UNL     1      49.071   6.471  15.996  0.00  0.00    +0.000 A 
ATOM      9  C   UNL     1      48.641   5.262  16.635  0.00  0.00    +0.000 A 
ATOM     10  C   UNL     1      47.863   4.131  16.419  0.00  0.00    +0.000 A 
ATOM     11 CL   UNL     1      47.024   3.867  14.973  0.00  0.00    +0.000 Cl
ATOM     12  N   UNL     1      47.724   3.172  17.353  0.00  0.00    +0.000 NA
ATOM     13  C   UNL     1      48.369   3.347  18.512  0.00  0.00    +0.000 A 
ATOM     14  N   UNL     1      49.150   4.380  18.862  0.00  0.00    +0.000 NA
ATOM     15  C   UNL     1      49.243   5.298  17.883  0.00  0.00    +0.000 A 
ENDBRANCH   1   8
BRANCH   3  16
ATOM     16  C   UNL     1      47.061   7.915  13.177  0.00  0.00    +0.000 C 
BRANCH  16  17
ATOM     17  C   UNL     1      46.229   6.970  12.368  0.00  0.00    +0.000 A 
ATOM     18  C   UNL     1      46.629   6.533  11.102  0.00  0.00    +0.000 A 
ATOM     19  C   UNL     1      45.781   5.721  10.350  0.00  0.00    +0.000 A 
ATOM     20  C   UNL     1      44.550   5.383  10.888  0.00  0.00    +0.000 A 
ATOM     21  N   UNL     1      44.144   5.764  12.117  0.00  0.00    +0.000 NA
ATOM     22  C   UNL     1      44.991   6.540  12.829  0.00  0.00    +0.000 A 
BRANCH  20  23
ATOM     23  O   UNL     1      43.722   4.589  10.117  0.00  0.00    +0.000 OA
BRANCH  23  24
ATOM     24  C   UNL     1      44.444   3.924   9.068  0.00  0.00    +0.000 C 
BRANCH  24  25
ATOM     25  C   UNL     1      44.460   2.425   9.355  0.00  0.00    +0.000 C 
BRANCH  25  26
ATOM     26  O   UNL     1      43.855   2.144  10.615  0.00  0.00    +0.000 OA
ATOM     27  H   UNL     1      43.566   1.214  10.576  0.00  0.00    +0.000 HD
ENDBRANCH  25  26
ENDBRANCH  24  25
ENDBRANCH  23  24
ENDBRANCH  20  23
ENDBRANCH  16  17
ENDBRANCH   3  16
TORSDOF 7
ENDMDL
