MODEL 1
REMARK VINA RESULT:    -7.854      0.000      0.000
REMARK INTER + INTRA:         -11.114
REMARK INTER:                 -10.150
REMARK INTRA:                  -0.965
REMARK UNBOUND:                -0.965
REMARK  Name = 
REMARK  6 active torsions:
REMARK  status: ('A' for Active; 'I' for Inactive)
REMARK    1  A    between atoms: C_1  and  C_2
REMARK    2  A    between atoms: C_2  and  C_3
REMARK    3  A    between atoms: C_2  and  C_14
REMARK    4  A    between atoms: C_3  and  N_4
REMARK    5  A    between atoms: C_8  and  C_9
REMARK    6  A    between atoms: C_18  and  N_19
REMARK                            x       y       z     vdW  Elec       q    Type
REMARK                         _______ _______ _______ _____ _____    ______ ____
ROOT
ATOM      1  C   UNL     1      42.513   5.912  12.169  0.00  0.00    +0.000 C 
ATOM      2  C   UNL     1      43.235   4.564  12.238  0.00  0.00    +0.000 C 
ENDROOT
BRANCH   2   3
ATOM      3  C   UNL     1      44.664   4.750  12.743  0.00  0.00    +0.000 A 
ATOM      4  C   UNL     1      45.473   3.642  13.001  0.00  0.00    +0.000 A 
ATOM      5  C   UNL     1      46.797   3.826  13.393  0.00  0.00    +0.000 A 
ATOM      6  C   UNL     1      47.324   5.118  13.506  0.00  0.00    +0.000 A 
ATOM      7  C   UNL     1      46.550   6.259  13.254  0.00  0.00    +0.000 A 
ATOM      8  C   UNL     1      45.213   6.044  12.899  0.00  0.00    +0.000 A 
BRANCH   7   9
ATOM      9  N   UNL     1      47.099   7.523  13.369  0.00  0.00    +0.000 N 
ATOM     10  C   UNL     1      46.294   8.755  13.334  0.00  0.00    +0.000 C 
ATOM     11  C   UNL     1      46.552   9.552  12.048  0.00  0.00    +0.000 C 
ATOM     12  O   UNL     1      47.953   9.816  11.865  0.00  0.00    +0.000 OA
ATOM     13  C   UNL     1      48.677   8.579  11.773  0.00  0.00    +0.000 C 
ATOM     14  C   UNL     1      48.525   7.726  13.046  0.00  0.00    +0.000 C 
ENDBRANCH   7   9
ENDBRANCH   2   3
BRANCH   2  15
ATOM     15  C   UNL     1      43.269   3.832  10.878  0.00  0.00    +0.000 C 
BRANCH  15  16
ATOM     16  N   UNL     1      43.950   4.599   9.829  0.00  0.00    +0.000 N 
ATOM     17  C   UNL     1      44.826   3.792   9.070  0.00  0.00    +0.000 A 
ATOM     18  C   UNL     1      45.575   4.387   8.060  0.00  0.00    +0.000 A 
ATOM     19  C   UNL     1      46.437   3.599   7.291  0.00  0.00    +0.000 A 
ATOM     20  C   UNL     1      46.536   2.229   7.543  0.00  0.00    +0.000 A 
ATOM     21  C   UNL     1      45.748   1.721   8.558  0.00  0.00    +0.000 A 
ATOM     22  N   UNL     1      44.906   2.468   9.313  0.00  0.00    +0.000 NA
ATOM     23  H   UNL     1      44.489   5.374  10.204  0.00  0.00    +0.000 HD
BRANCH  20  24
ATOM     24  C   UNL     1      47.449   1.399   6.725  0.00  0.00    +0.000 C 
ATOM     25  N   UNL     1      48.577   1.966   6.206  0.00  0.00    +0.000 N 
ATOM     26  O   UNL     1      47.205   0.218   6.503  0.00  0.00    +0.000 OA
ATOM     27  H   UNL     1      48.880   2.915   6.331  0.00  0.00    +0.000 HD
ATOM     28  H   UNL     1      49.174   1.359   5.659  0.00  0.00    +0.000 HD
ENDBRANCH  20  24
ENDBRANCH  15  16
ENDBRANCH   2  15
TORSDOF 5
ENDMDL
MODEL 2
REMARK VINA RESULT:    -7.399      2.194      3.123
REMARK INTER + INTRA:         -10.526
REMARK INTER:                  -9.991
REMARK INTRA:                  -0.535
REMARK UNBOUND:                -0.965
REMARK  Name = 
REMARK  6 active torsions:
REMARK  status: ('A' for Active; 'I' for Inactive)
REMARK    1  A    between atoms: C_1  and  C_2
REMARK    2  A    between atoms: C_2  and  C_3
REMARK    3  A    between atoms: C_2  and  C_14
REMARK    4  A    between atoms: C_3  and  N_4
REMARK    5  A    between atoms: C_8  and  C_9
REMARK    6  A    between atoms: C_18  and  N_19
REMARK                            x       y       z     vdW  Elec       q    Type
REMARK                         _______ _______ _______ _____ _____    ______ ____
ROOT
ATOM      1  C   UNL     1      42.357   5.830  12.142  0.00  0.00    +0.000 C 
ATOM      2  C   UNL     1      43.474   4.798  12.315  0.00  0.00    +0.000 C 
ENDROOT
BRANCH   2   3
ATOM      3  C   UNL     1      44.786   5.489  12.679  0.00  0.00    +0.000 A 
ATOM      4  C   UNL     1      45.083   6.755  12.171  0.00  0.00    +0.000 A 
ATOM      5  C   UNL     1      46.250   7.405  12.568  0.00  0.00    +0.000 A 
ATOM      6  C   UNL     1      47.112   6.802  13.489  0.00  0.00    +0.000 A 
ATOM      7  C   UNL     1      46.854   5.534  14.027  0.00  0.00    +0.000 A 
ATOM      8  C   UNL     1      45.693   4.889  13.582  0.00  0.00    +0.000 A 
BRANCH   7   9
ATOM      9  N   UNL     1      47.722   4.965  14.941  0.00  0.00    +0.000 N 
ATOM     10  C   UNL     1      47.509   3.632  15.529  0.00  0.00    +0.000 C 
ATOM     11  C   UNL     1      47.159   3.733  17.021  0.00  0.00    +0.000 C 
ATOM     12  O   UNL     1      48.144   4.491  17.742  0.00  0.00    +0.000 OA
ATOM     13  C   UNL     1      48.220   5.825  17.213  0.00  0.00    +0.000 C 
ATOM     14  C   UNL     1      48.619   5.834  15.727  0.00  0.00    +0.000 C 
ENDBRANCH   7   9
ENDBRANCH   2   3
BRANCH   2  15
ATOM     15  C   UNL     1      43.691   3.932  11.054  0.00  0.00    +0.000 C 
BRANCH  15  16
ATOM     16  N   UNL     1      44.297   4.676   9.943  0.00  0.00    +0.000 N 
ATOM     17  C   UNL     1      45.082   3.841   9.117  0.00  0.00    +0.000 A 
ATOM     18  C   UNL     1      45.755   4.410   8.041  0.00  0.00    +0.000 A 
ATOM     19  C   UNL     1      46.525   3.596   7.205  0.00  0.00    +0.000 A 
ATOM     20  C   UNL     1      46.610   2.224   7.457  0.00  0.00    +0.000 A 
ATOM     21  C   UNL     1      45.901   1.744   8.541  0.00  0.00    +0.000 A 
ATOM     22  N   UNL     1      45.148   2.517   9.361  0.00  0.00    +0.000 NA
ATOM     23  H   UNL     1      44.887   5.438  10.263  0.00  0.00    +0.000 HD
BRANCH  20  24
ATOM     24  C   UNL     1      47.425   1.366   6.569  0.00  0.00    +0.000 C 
ATOM     25  N   UNL     1      48.560   1.877   6.011  0.00  0.00    +0.000 N 
ATOM     26  O   UNL     1      47.094   0.211   6.324  0.00  0.00    +0.000 OA
ATOM     27  H   UNL     1      48.931   2.800   6.148  0.00  0.00    +0.000 HD
ATOM     28  H   UNL     1      49.090   1.253   5.415  0.00  0.00    +0.000 HD
ENDBRANCH  20  24
ENDBRANCH  15  16
ENDBRANCH   2  15
TORSDOF 5
ENDMDL
MODEL 3
REMARK VINA RESULT:    -7.101      2.544      3.508
REMARK INTER + INTRA:         -10.142
REMARK INTER:                  -9.494
REMARK INTRA:                  -0.648
REMARK UNBOUND:                -0.965
REMARK  Name = 
REMARK  6 active torsions:
REMARK  status: ('A' for Active; 'I' for Inactive)
REMARK    1  A    between atoms: C_1  and  C_2
REMARK    2  A    between atoms: C_2  and  C_3
REMARK    3  A    between atoms: C_2  and  C_14
REMARK    4  A    between atoms: C_3  and  N_4
REMARK    5  A    between atoms: C_8  and  C_9
REMARK    6  A    between atoms: C_18  and  N_19
REMARK                            x       y       z     vdW  Elec       q    Type
REMARK                         _______ _______ _______ _____ _____    ______ ____
ROOT
ATOM      1  C   UNL     1      43.194   4.814  13.238  0.00  0.00    +0.000 C 
ATOM      2  C   UNL     1      44.298   5.035  12.201  0.00  0.00    +0.000 C 
ENDROOT
BRANCH   2   3
ATOM      3  C   UNL     1      44.761   6.490  12.218  0.00  0.00    +0.000 A 
ATOM      4  C   UNL     1      45.917   6.857  12.911  0.00  0.00    +0.000 A 
ATOM      5  C   UNL     1      46.367   8.173  12.861  0.00  0.00    +0.000 A 
ATOM      6  C   UNL     1      45.679   9.124  12.099  0.00  0.00    +0.000 A 
ATOM      7  C   UNL     1      44.516   8.802  11.385  0.00  0.00    +0.000 A 
ATOM      8  C   UNL     1      44.066   7.479  11.485  0.00  0.00    +0.000 A 
BRANCH   7   9
ATOM      9  N   UNL     1      43.859   9.760  10.637  0.00  0.00    +0.000 N 
ATOM     10  C   UNL     1      44.475  11.040  10.249  0.00  0.00    +0.000 C 
ATOM     11  C   UNL     1      43.824  12.217  10.990  0.00  0.00    +0.000 C 
ATOM     12  O   UNL     1      42.399  12.228  10.811  0.00  0.00    +0.000 OA
ATOM     13  C   UNL     1      41.831  11.011  11.325  0.00  0.00    +0.000 C 
ATOM     14  C   UNL     1      42.383   9.768  10.604  0.00  0.00    +0.000 C 
ENDBRANCH   7   9
ENDBRANCH   2   3
BRANCH   2  15
ATOM     15  C   UNL     1      43.859   4.660  10.768  0.00  0.00    +0.000 C 
BRANCH  15  16
ATOM     16  N   UNL     1      44.063   3.241  10.456  0.00  0.00    +0.000 N 
ATOM     17  C   UNL     1      44.906   3.063   9.337  0.00  0.00    +0.000 A 
ATOM     18  C   UNL     1      45.162   1.770   8.893  0.00  0.00    +0.000 A 
ATOM     19  C   UNL     1      46.005   1.576   7.795  0.00  0.00    +0.000 A 
ATOM     20  C   UNL     1      46.581   2.678   7.158  0.00  0.00    +0.000 A 
ATOM     21  C   UNL     1      46.279   3.925   7.672  0.00  0.00    +0.000 A 
ATOM     22  N   UNL     1      45.465   4.132   8.735  0.00  0.00    +0.000 NA
ATOM     23  H   UNL     1      43.190   2.757  10.266  0.00  0.00    +0.000 HD
BRANCH  20  24
ATOM     24  C   UNL     1      47.473   2.468   5.996  0.00  0.00    +0.000 C 
ATOM     25  N   UNL     1      48.825   2.490   6.185  0.00  0.00    +0.000 N 
ATOM     26  O   UNL     1      47.020   2.284   4.872  0.00  0.00    +0.000 OA
ATOM     27  H   UNL     1      49.305   2.622   7.057  0.00  0.00    +0.000 HD
ATOM     28  H   UNL     1      49.397   2.336   5.363  0.00  0.00    +0.000 HD
ENDBRANCH  20  24
ENDBRANCH  15  16
ENDBRANCH   2  15
TORSDOF 5
ENDMDL
MODEL 4
REMARK VINA RESULT:    -7.075      1.483      2.242
REMARK INTER + INTRA:         -10.108
REMARK INTER:                  -9.602
REMARK INTRA:                  -0.507
REMARK UNBOUND:                -0.965
REMARK  Name = 
REMARK  6 active torsions:
REMARK  status: ('A' for Active; 'I' for Inactive)
REMARK    1  A    between atoms: C_1  and  C_2
REMARK    2  A    between atoms: C_2  and  C_3
REMARK    3  A    between atoms: C_2  and  C_14
REMARK    4  A    between atoms: C_3  and  N_4
REMARK    5  A    between atoms: C_8  and  C_9
REMARK    6  A    between atoms: C_18  and  N_19
REMARK                            x       y       z     vdW  Elec       q    Type
REMARK                         _______ _______ _______ _____ _____    ______ ____
ROOT
ATOM      1  C   UNL     1      43.202   4.668  13.251  0.00  0.00    +0.000 C 
ATOM      2  C   UNL     1      44.187   4.689  12.080  0.00  0.00    +0.000 C 
ENDROOT
BRANCH   2   3
ATOM      3  C   UNL     1      45.044   5.952  12.126  0.00  0.00    +0.000 A 
ATOM      4  C   UNL     1      44.464   7.208  11.936  0.00  0.00    +0.000 A 
ATOM      5  C   UNL     1      45.243   8.356  12.051  0.00  0.00    +0.000 A 
ATOM      6  C   UNL     1      46.599   8.256  12.379  0.00  0.00    +0.000 A 
ATOM      7  C   UNL     1      47.224   7.018  12.581  0.00  0.00    +0.000 A 
ATOM      8  C   UNL     1      46.424   5.879  12.421  0.00  0.00    +0.000 A 
BRANCH   7   9
ATOM      9  N   UNL     1      48.565   6.949  12.909  0.00  0.00    +0.000 N 
ATOM     10  C   UNL     1      49.057   6.989  14.296  0.00  0.00    +0.000 C 
ATOM     11  C   UNL     1      49.800   8.301  14.585  0.00  0.00    +0.000 C 
ATOM     12  O   UNL     1      50.852   8.531  13.632  0.00  0.00    +0.000 OA
ATOM     13  C   UNL     1      50.302   8.614  12.307  0.00  0.00    +0.000 C 
ATOM     14  C   UNL     1      49.578   7.318  11.900  0.00  0.00    +0.000 C 
ENDBRANCH   7   9
ENDBRANCH   2   3
BRANCH   2  15
ATOM     15  C   UNL     1      43.487   4.603  10.705  0.00  0.00    +0.000 C 
BRANCH  15  16
ATOM     16  N   UNL     1      44.324   5.087   9.602  0.00  0.00    +0.000 N 
ATOM     17  C   UNL     1      45.041   4.037   8.986  0.00  0.00    +0.000 A 
ATOM     18  C   UNL     1      45.912   4.345   7.946  0.00  0.00    +0.000 A 
ATOM     19  C   UNL     1      46.620   3.316   7.317  0.00  0.00    +0.000 A 
ATOM     20  C   UNL     1      46.445   1.995   7.736  0.00  0.00    +0.000 A 
ATOM     21  C   UNL     1      45.554   1.781   8.769  0.00  0.00    +0.000 A 
ATOM     22  N   UNL     1      44.858   2.764   9.390  0.00  0.00    +0.000 NA
ATOM     23  H   UNL     1      44.996   5.786   9.903  0.00  0.00    +0.000 HD
BRANCH  20  24
ATOM     24  C   UNL     1      47.196   0.909   7.067  0.00  0.00    +0.000 C 
ATOM     25  N   UNL     1      46.916  -0.387   7.389  0.00  0.00    +0.000 N 
ATOM     26  O   UNL     1      48.064   1.156   6.237  0.00  0.00    +0.000 OA
ATOM     27  H   UNL     1      46.223  -0.705   8.042  0.00  0.00    +0.000 HD
ATOM     28  H   UNL     1      47.450  -1.097   6.902  0.00  0.00    +0.000 HD
ENDBRANCH  20  24
ENDBRANCH  15  16
ENDBRANCH   2  15
TORSDOF 5
ENDMDL
MODEL 5
REMARK VINA RESULT:    -7.071      2.938      7.234
REMARK INTER + INTRA:         -10.102
REMARK INTER:                  -9.370
REMARK INTRA:                  -0.733
REMARK UNBOUND:                -0.965
REMARK  Name = 
REMARK  6 active torsions:
REMARK  status: ('A' for Active; 'I' for Inactive)
REMARK    1  A    between atoms: C_1  and  C_2
REMARK    2  A    between atoms: C_2  and  C_3
REMARK    3  A    between atoms: C_2  and  C_14
REMARK    4  A    between atoms: C_3  and  N_4
REMARK    5  A    between atoms: C_8  and  C_9
REMARK    6  A    between atoms: C_18  and  N_19
REMARK                            x       y       z     vdW  Elec       q    Type
REMARK                         _______ _______ _______ _____ _____    ______ ____
ROOT
ATOM      1  C   UNL     1      45.687   8.275  12.998  0.00  0.00    +0.000 C 
ATOM      2  C   UNL     1      46.191   7.364  11.875  0.00  0.00    +0.000 C 
ENDROOT
BRANCH   2   3
ATOM      3  C   UNL     1      45.260   6.166  11.704  0.00  0.00    +0.000 A 
ATOM      4  C   UNL     1      44.287   5.883  12.665  0.00  0.00    +0.000 A 
ATOM      5  C   UNL     1      43.398   4.830  12.462  0.00  0.00    +0.000 A 
ATOM      6  C   UNL     1      43.464   4.069  11.290  0.00  0.00    +0.000 A 
ATOM      7  C   UNL     1      44.422   4.318  10.297  0.00  0.00    +0.000 A 
ATOM      8  C   UNL     1      45.326   5.358  10.545  0.00  0.00    +0.000 A 
BRANCH   7   9
ATOM      9  N   UNL     1      44.461   3.553   9.146  0.00  0.00    +0.000 N 
ATOM     10  C   UNL     1      44.447   2.081   9.157  0.00  0.00    +0.000 C 
ATOM     11  C   UNL     1      45.801   1.510   8.712  0.00  0.00    +0.000 C 
ATOM     12  O   UNL     1      46.200   2.037   7.436  0.00  0.00    +0.000 OA
ATOM     13  C   UNL     1      46.326   3.466   7.514  0.00  0.00    +0.000 C 
ATOM     14  C   UNL     1      44.998   4.141   7.903  0.00  0.00    +0.000 C 
ENDBRANCH   7   9
ENDBRANCH   2   3
BRANCH   2  15
ATOM     15  C   UNL     1      47.630   6.857  12.115  0.00  0.00    +0.000 C 
BRANCH  15  16
ATOM     16  N   UNL     1      48.181   7.280  13.408  0.00  0.00    +0.000 N 
ATOM     17  C   UNL     1      48.031   6.282  14.396  0.00  0.00    +0.000 A 
ATOM     18  C   UNL     1      48.470   6.551  15.688  0.00  0.00    +0.000 A 
ATOM     19  C   UNL     1      48.341   5.569  16.675  0.00  0.00    +0.000 A 
ATOM     20  C   UNL     1      47.776   4.332  16.354  0.00  0.00    +0.000 A 
ATOM     21  C   UNL     1      47.377   4.148  15.045  0.00  0.00    +0.000 A 
ATOM     22  N   UNL     1      47.495   5.088  14.075  0.00  0.00    +0.000 NA
ATOM     23  H   UNL     1      47.745   8.129  13.756  0.00  0.00    +0.000 HD
BRANCH  20  24
ATOM     24  C   UNL     1      47.643   3.295  17.402  0.00  0.00    +0.000 C 
ATOM     25  N   UNL     1      48.736   2.960  18.147  0.00  0.00    +0.000 N 
ATOM     26  O   UNL     1      46.573   2.731  17.604  0.00  0.00    +0.000 OA
ATOM     27  H   UNL     1      49.654   3.360  18.076  0.00  0.00    +0.000 HD
ATOM     28  H   UNL     1      48.597   2.250  18.855  0.00  0.00    +0.000 HD
ENDBRANCH  20  24
ENDBRANCH  15  16
ENDBRANCH   2  15
TORSDOF 5
ENDMDL
MODEL 6
REMARK VINA RESULT:    -6.698      3.754      7.542
REMARK INTER + INTRA:          -9.621
REMARK INTER:                  -8.520
REMARK INTRA:                  -1.101
REMARK UNBOUND:                -0.965
REMARK  Name = 
REMARK  6 active torsions:
REMARK  status: ('A' for Active; 'I' for Inactive)
REMARK    1  A    between atoms: C_1  and  C_2
REMARK    2  A    between atoms: C_2  and  C_3
REMARK    3  A    between atoms: C_2  and  C_14
REMARK    4  A    between atoms: C_3  and  N_4
REMARK    5  A    between atoms: C_8  and  C_9
REMARK    6  A    between atoms: C_18  and  N_19
REMARK                            x       y       z     vdW  Elec       q    Type
REMARK                         _______ _______ _______ _____ _____    ______ ____
ROOT
ATOM      1  C   UNL     1      48.697  10.082  13.330  0.00  0.00    +0.000 C 
ATOM      2  C   UNL     1      48.461   8.885  12.406  0.00  0.00    +0.000 C 
ENDROOT
BRANCH   2   3
ATOM      3  C   UNL     1      46.970   8.724  12.115  0.00  0.00    +0.000 A 
ATOM      4  C   UNL     1      46.166   9.845  11.898  0.00  0.00    +0.000 A 
ATOM      5  C   UNL     1      44.824   9.681  11.563  0.00  0.00    +0.000 A 
ATOM      6  C   UNL     1      44.286   8.398  11.422  0.00  0.00    +0.000 A 
ATOM      7  C   UNL     1      45.055   7.244  11.628  0.00  0.00    +0.000 A 
ATOM      8  C   UNL     1      46.391   7.439  12.000  0.00  0.00    +0.000 A 
BRANCH   7   9
ATOM      9  N   UNL     1      44.497   5.988  11.476  0.00  0.00    +0.000 N 
ATOM     10  C   UNL     1      43.089   5.691  11.784  0.00  0.00    +0.000 C 
ATOM     11  C   UNL     1      42.968   4.797  13.026  0.00  0.00    +0.000 C 
ATOM     12  O   UNL     1      43.755   3.602  12.894  0.00  0.00    +0.000 OA
ATOM     13  C   UNL     1      45.141   3.945  12.727  0.00  0.00    +0.000 C 
ATOM     14  C   UNL     1      45.375   4.802  11.469  0.00  0.00    +0.000 C 
ENDBRANCH   7   9
ENDBRANCH   2   3
BRANCH   2  15
ATOM     15  C   UNL     1      49.009   7.562  12.985  0.00  0.00    +0.000 C 
BRANCH  15  16
ATOM     16  N   UNL     1      49.462   7.687  14.376  0.00  0.00    +0.000 N 
ATOM     17  C   UNL     1      48.922   6.674  15.198  0.00  0.00    +0.000 A 
ATOM     18  C   UNL     1      49.227   6.682  16.555  0.00  0.00    +0.000 A 
ATOM     19  C   UNL     1      48.712   5.678  17.380  0.00  0.00    +0.000 A 
ATOM     20  C   UNL     1      47.900   4.680  16.836  0.00  0.00    +0.000 A 
ATOM     21  C   UNL     1      47.656   4.744  15.478  0.00  0.00    +0.000 A 
ATOM     22  N   UNL     1      48.148   5.708  14.662  0.00  0.00    +0.000 NA
ATOM     23  H   UNL     1      49.213   8.583  14.785  0.00  0.00    +0.000 HD
BRANCH  20  24
ATOM     24  C   UNL     1      47.357   3.618  17.713  0.00  0.00    +0.000 C 
ATOM     25  N   UNL     1      47.937   3.401  18.929  0.00  0.00    +0.000 N 
ATOM     26  O   UNL     1      46.405   2.931  17.362  0.00  0.00    +0.000 OA
ATOM     27  H   UNL     1      48.711   3.907  19.322  0.00  0.00    +0.000 HD
ATOM     28  H   UNL     1      47.530   2.669  19.498  0.00  0.00    +0.000 HD
ENDBRANCH  20  24
ENDBRANCH  15  16
ENDBRANCH   2  15
TORSDOF 5
ENDMDL
MODEL 7
REMARK VINA RESULT:    -6.591      3.845      8.218
REMARK INTER + INTRA:          -9.482
REMARK INTER:                  -8.893
REMARK INTRA:                  -0.589
REMARK UNBOUND:                -0.965
REMARK  Name = 
REMARK  6 active torsions:
REMARK  status: ('A' for Active; 'I' for Inactive)
REMARK    1  A    between atoms: C_1  and  C_2
REMARK    2  A    between atoms: C_2  and  C_3
REMARK    3  A    between atoms: C_2  and  C_14
REMARK    4  A    between atoms: C_3  and  N_4
REMARK    5  A    between atoms: C_8  and  C_9
REMARK    6  A    between atoms: C_18  and  N_19
REMARK                            x       y       z     vdW  Elec       q    Type
REMARK                         _______ _______ _______ _____ _____    ______ ____
ROOT
ATOM      1  C   UNL     1      49.292   8.022  11.675  0.00  0.00    +0.000 C 
ATOM      2  C   UNL     1      48.449   6.893  12.273  0.00  0.00    +0.000 C 
ENDROOT
BRANCH   2   3
ATOM      3  C   UNL     1      46.966   7.131  11.995  0.00  0.00    +0.000 A 
ATOM      4  C   UNL     1      46.415   8.406  12.140  0.00  0.00    +0.000 A 
ATOM      5  C   UNL     1      45.079   8.625  11.815  0.00  0.00    +0.000 A 
ATOM      6  C   UNL     1      44.294   7.576  11.324  0.00  0.00    +0.000 A 
ATOM      7  C   UNL     1      44.804   6.281  11.160  0.00  0.00    +0.000 A 
ATOM      8  C   UNL     1      46.141   6.082  11.530  0.00  0.00    +0.000 A 
BRANCH   7   9
ATOM      9  N   UNL     1      44.007   5.265  10.667  0.00  0.00    +0.000 N 
ATOM     10  C   UNL     1      42.958   4.607  11.463  0.00  0.00    +0.000 C 
ATOM     11  C   UNL     1      43.340   3.159  11.799  0.00  0.00    +0.000 C 
ATOM     12  O   UNL     1      43.666   2.413  10.614  0.00  0.00    +0.000 OA
ATOM     13  C   UNL     1      44.781   3.022   9.943  0.00  0.00    +0.000 C 
ATOM     14  C   UNL     1      44.476   4.469   9.515  0.00  0.00    +0.000 C 
ENDBRANCH   7   9
ENDBRANCH   2   3
BRANCH   2  15
ATOM     15  C   UNL     1      48.659   6.731  13.795  0.00  0.00    +0.000 C 
BRANCH  15  16
ATOM     16  N   UNL     1      47.671   5.843  14.421  0.00  0.00    +0.000 N 
ATOM     17  C   UNL     1      48.048   5.476  15.731  0.00  0.00    +0.000 A 
ATOM     18  C   UNL     1      47.230   4.603  16.441  0.00  0.00    +0.000 A 
ATOM     19  C   UNL     1      47.582   4.239  17.744  0.00  0.00    +0.000 A 
ATOM     20  C   UNL     1      48.747   4.755  18.318  0.00  0.00    +0.000 A 
ATOM     21  C   UNL     1      49.494   5.623  17.545  0.00  0.00    +0.000 A 
ATOM     22  N   UNL     1      49.168   5.987  16.281  0.00  0.00    +0.000 NA
ATOM     23  H   UNL     1      47.525   4.990  13.889  0.00  0.00    +0.000 HD
BRANCH  20  24
ATOM     24  C   UNL     1      49.115   4.369  19.699  0.00  0.00    +0.000 C 
ATOM     25  N   UNL     1      48.414   3.376  20.320  0.00  0.00    +0.000 N 
ATOM     26  O   UNL     1      50.031   4.929  20.291  0.00  0.00    +0.000 OA
ATOM     27  H   UNL     1      47.656   2.845  19.930  0.00  0.00    +0.000 HD
ATOM     28  H   UNL     1      48.705   3.141  21.261  0.00  0.00    +0.000 HD
ENDBRANCH  20  24
ENDBRANCH  15  16
ENDBRANCH   2  15
TORSDOF 5
ENDMDL
MODEL 8
REMARK VINA RESULT:    -6.211      3.856      6.280
REMARK INTER + INTRA:          -8.991
REMARK INTER:                  -8.041
REMARK INTRA:                  -0.950
REMARK UNBOUND:                -0.965
REMARK  Name = 
REMARK  6 active torsions:
REMARK  status: ('A' for Active; 'I' for Inactive)
REMARK    1  A    between atoms: C_1  and  C_2
REMARK    2  A    between atoms: C_2  and  C_3
REMARK    3  A    between atoms: C_2  and  C_14
REMARK    4  A    between atoms: C_3  and  N_4
REMARK    5  A    between atoms: C_8  and  C_9
REMARK    6  A    between atoms: C_18  and  N_19
REMARK                            x       y       z     vdW  Elec       q    Type
REMARK                         _______ _______ _______ _____ _____    ______ ____
ROOT
ATOM      1  C   UNL     1      49.923   8.010  12.052  0.00  0.00    +0.000 C 
ATOM      2  C   UNL     1      49.199   8.422  13.336  0.00  0.00    +0.000 C 
ENDROOT
BRANCH   2   3
ATOM      3  C   UNL     1      49.717   7.612  14.523  0.00  0.00    +0.000 A 
ATOM      4  C   UNL     1      51.050   7.719  14.924  0.00  0.00    +0.000 A 
ATOM      5  C   UNL     1      51.493   7.030  16.050  0.00  0.00    +0.000 A 
ATOM      6  C   UNL     1      50.600   6.249  16.793  0.00  0.00    +0.000 A 
ATOM      7  C   UNL     1      49.254   6.114  16.429  0.00  0.00    +0.000 A 
ATOM      8  C   UNL     1      48.846   6.788  15.271  0.00  0.00    +0.000 A 
BRANCH   7   9
ATOM      9  N   UNL     1      48.393   5.339  17.185  0.00  0.00    +0.000 N 
ATOM     10  C   UNL     1      48.364   5.371  18.656  0.00  0.00    +0.000 C 
ATOM     11  C   UNL     1      48.901   4.063  19.252  0.00  0.00    +0.000 C 
ATOM     12  O   UNL     1      48.207   2.920  18.723  0.00  0.00    +0.000 OA
ATOM     13  C   UNL     1      48.377   2.862  17.297  0.00  0.00    +0.000 C 
ATOM     14  C   UNL     1      47.817   4.114  16.598  0.00  0.00    +0.000 C 
ENDBRANCH   7   9
ENDBRANCH   2   3
BRANCH   2  15
ATOM     15  C   UNL     1      47.666   8.256  13.241  0.00  0.00    +0.000 C 
BRANCH  15  16
ATOM     16  N   UNL     1      47.213   7.856  11.903  0.00  0.00    +0.000 N 
ATOM     17  C   UNL     1      46.441   6.674  11.942  0.00  0.00    +0.000 A 
ATOM     18  C   UNL     1      45.971   6.144  10.743  0.00  0.00    +0.000 A 
ATOM     19  C   UNL     1      45.195   4.982  10.765  0.00  0.00    +0.000 A 
ATOM     20  C   UNL     1      44.898   4.367  11.983  0.00  0.00    +0.000 A 
ATOM     21  C   UNL     1      45.397   4.966  13.124  0.00  0.00    +0.000 A 
ATOM     22  N   UNL     1      46.150   6.093  13.123  0.00  0.00    +0.000 NA
ATOM     23  H   UNL     1      47.986   7.701  11.263  0.00  0.00    +0.000 HD
BRANCH  20  24
ATOM     24  C   UNL     1      44.074   3.137  12.001  0.00  0.00    +0.000 C 
ATOM     25  N   UNL     1      43.953   2.403  10.857  0.00  0.00    +0.000 N 
ATOM     26  O   UNL     1      43.497   2.775  13.020  0.00  0.00    +0.000 OA
ATOM     27  H   UNL     1      44.386   2.598   9.973  0.00  0.00    +0.000 HD
ATOM     28  H   UNL     1      43.385   1.567  10.917  0.00  0.00    +0.000 HD
ENDBRANCH  20  24
ENDBRANCH  15  16
ENDBRANCH   2  15
TORSDOF 5
ENDMDL
MODEL 9
REMARK VINA RESULT:    -6.022      4.253      6.774
REMARK INTER + INTRA:          -8.748
REMARK INTER:                  -7.813
REMARK INTRA:                  -0.935
REMARK UNBOUND:                -0.965
REMARK  Name = 
REMARK  6 active torsions:
REMARK  status: ('A' for Active; 'I' for Inactive)
REMARK    1  A    between atoms: C_1  and  C_2
REMARK    2  A    between atoms: C_2  and  C_3
REMARK    3  A    between atoms: C_2  and  C_14
REMARK    4  A    between atoms: C_3  and  N_4
REMARK    5  A    between atoms: C_8  and  C_9
REMARK    6  A    between atoms: C_18  and  N_19
REMARK                            x       y       z     vdW  Elec       q    Type
REMARK                         _______ _______ _______ _____ _____    ______ ____
ROOT
ATOM      1  C   UNL     1      50.131   9.409  15.081  0.00  0.00    +0.000 C 
ATOM      2  C   UNL     1      48.896   8.504  15.063  0.00  0.00    +0.000 C 
ENDROOT
BRANCH   2   3
ATOM      3  C   UNL     1      48.614   7.960  16.462  0.00  0.00    +0.000 A 
ATOM      4  C   UNL     1      48.105   8.798  17.457  0.00  0.00    +0.000 A 
ATOM      5  C   UNL     1      47.785   8.274  18.707  0.00  0.00    +0.000 A 
ATOM      6  C   UNL     1      47.951   6.909  18.962  0.00  0.00    +0.000 A 
ATOM      7  C   UNL     1      48.456   6.030  17.993  0.00  0.00    +0.000 A 
ATOM      8  C   UNL     1      48.804   6.591  16.758  0.00  0.00    +0.000 A 
BRANCH   7   9
ATOM      9  N   UNL     1      48.604   4.683  18.271  0.00  0.00    +0.000 N 
ATOM     10  C   UNL     1      49.898   4.071  18.614  0.00  0.00    +0.000 C 
ATOM     11  C   UNL     1      50.392   3.150  17.489  0.00  0.00    +0.000 C 
ATOM     12  O   UNL     1      49.404   2.166  17.142  0.00  0.00    +0.000 OA
ATOM     13  C   UNL     1      48.204   2.815  16.689  0.00  0.00    +0.000 C 
ATOM     14  C   UNL     1      47.598   3.726  17.772  0.00  0.00    +0.000 C 
ENDBRANCH   7   9
ENDBRANCH   2   3
BRANCH   2  15
ATOM     15  C   UNL     1      49.034   7.321  14.079  0.00  0.00    +0.000 C 
BRANCH  15  16
ATOM     16  N   UNL     1      48.329   7.543  12.811  0.00  0.00    +0.000 N 
ATOM     17  C   UNL     1      47.284   6.612  12.620  0.00  0.00    +0.000 A 
ATOM     18  C   UNL     1      46.546   6.669  11.442  0.00  0.00    +0.000 A 
ATOM     19  C   UNL     1      45.500   5.764  11.243  0.00  0.00    +0.000 A 
ATOM     20  C   UNL     1      45.205   4.816  12.227  0.00  0.00    +0.000 A 
ATOM     21  C   UNL     1      45.981   4.839  13.369  0.00  0.00    +0.000 A 
ATOM     22  N   UNL     1      46.999   5.709  13.579  0.00  0.00    +0.000 NA
ATOM     23  H   UNL     1      48.948   7.482  12.008  0.00  0.00    +0.000 HD
BRANCH  20  24
ATOM     24  C   UNL     1      44.095   3.861  12.013  0.00  0.00    +0.000 C 
ATOM     25  N   UNL     1      44.170   2.619  12.575  0.00  0.00    +0.000 N 
ATOM     26  O   UNL     1      43.118   4.164  11.337  0.00  0.00    +0.000 OA
ATOM     27  H   UNL     1      44.913   2.268  13.152  0.00  0.00    +0.000 HD
ATOM     28  H   UNL     1      43.386   2.001  12.407  0.00  0.00    +0.000 HD
ENDBRANCH  20  24
ENDBRANCH  15  16
ENDBRANCH   2  15
TORSDOF 5
ENDMDL
