MODEL 1
REMARK VINA RESULT:    -8.856      0.000      0.000
REMARK INTER + INTRA:         -12.261
REMARK INTER:                 -11.445
REMARK INTRA:                  -0.816
REMARK UNBOUND:                -0.816
REMARK  Name = 
REMARK  5 active torsions:
REMARK  status: ('A' for Active; 'I' for Inactive)
REMARK    1  A    between atoms: C_2  and  C_4
REMARK    2  A    between atoms: C_7  and  O_8
REMARK    3  A    between atoms: O_8  and  C_9
REMARK    4  A    between atoms: C_9  and  C_10
REMARK    5  A    between atoms: C_15  and  C_16
REMARK                            x       y       z     vdW  Elec       q    Type
REMARK                         _______ _______ _______ _____ _____    ______ ____
ROOT
ATOM      1  C   UNL     1      45.009   4.358  11.838  0.00  0.00    +0.000 A 
ATOM      2  C   UNL     1      45.660   3.549  12.772  0.00  0.00    +0.000 A 
ATOM      3  C   UNL     1      46.739   4.053  13.485  0.00  0.00    +0.000 A 
ATOM      4  F   UNL     1      47.365   3.267  14.372  0.00  0.00    +0.000 F 
ATOM      5  C   UNL     1      47.180   5.361  13.302  0.00  0.00    +0.000 A 
ATOM      6  C   UNL     1      46.544   6.212  12.383  0.00  0.00    +0.000 A 
ATOM      7  C   UNL     1      45.454   5.682  11.664  0.00  0.00    +0.000 A 
ENDROOT
BRANCH   6   8
ATOM      8  C   UNL     1      46.994   7.608  12.171  0.00  0.00    +0.000 A 
ATOM      9  C   UNL     1      48.337   7.913  11.873  0.00  0.00    +0.000 A 
ATOM     10  C   UNL     1      48.763   9.231  11.667  0.00  0.00    +0.000 A 
ATOM     11  C   UNL     1      47.850  10.276  11.741  0.00  0.00    +0.000 A 
ATOM     12  C   UNL     1      46.522   9.994  12.027  0.00  0.00    +0.000 A 
ATOM     13  F   UNL     1      45.634  10.994  12.091  0.00  0.00    +0.000 F 
ATOM     14  C   UNL     1      46.095   8.687  12.248  0.00  0.00    +0.000 A 
ENDBRANCH   6   8
BRANCH   1  15
ATOM     15  C   UNL     1      43.804   3.829  11.092  0.00  0.00    +0.000 C 
BRANCH  15  16
ATOM     16  O   UNL     1      43.799   4.316   9.745  0.00  0.00    +0.000 OA
BRANCH  16  20
ATOM     17  C   UNL     1      46.584   2.379   7.419  0.00  0.00    +0.000 A 
ATOM     18  C   UNL     1      45.849   1.656   8.360  0.00  0.00    +0.000 A 
ATOM     19  C   UNL     1      44.911   2.326   9.148  0.00  0.00    +0.000 A 
ATOM     20  C   UNL     1      44.745   3.691   8.962  0.00  0.00    +0.000 A 
ATOM     21  N   UNL     1      45.450   4.415   8.068  0.00  0.00    +0.000 NA
ATOM     22  C   UNL     1      46.360   3.746   7.323  0.00  0.00    +0.000 A 
BRANCH  17  24
ATOM     23  N   UNL     1      48.782   2.441   6.385  0.00  0.00    +0.000 N 
ATOM     24  C   UNL     1      47.599   1.774   6.533  0.00  0.00    +0.000 C 
ATOM     25  O   UNL     1      47.406   0.699   5.985  0.00  0.00    +0.000 OA
ATOM     26  H   UNL     1      49.505   1.952   5.869  0.00  0.00    +0.000 HD
ATOM     27  H   UNL     1      49.074   3.186   7.002  0.00  0.00    +0.000 HD
ENDBRANCH  17  24
ENDBRANCH  16  20
ENDBRANCH  15  16
ENDBRANCH   1  15
TORSDOF 5
ENDMDL
MODEL 2
REMARK VINA RESULT:    -8.814      1.000      1.385
REMARK INTER + INTRA:         -12.206
REMARK INTER:                 -11.399
REMARK INTRA:                  -0.807
REMARK UNBOUND:                -0.816
REMARK  Name = 
REMARK  5 active torsions:
REMARK  status: ('A' for Active; 'I' for Inactive)
REMARK    1  A    between atoms: C_2  and  C_4
REMARK    2  A    between atoms: C_7  and  O_8
REMARK    3  A    between atoms: O_8  and  C_9
REMARK    4  A    between atoms: C_9  and  C_10
REMARK    5  A    between atoms: C_15  and  C_16
REMARK                            x       y       z     vdW  Elec       q    Type
REMARK                         _______ _______ _______ _____ _____    ______ ____
ROOT
ATOM      1  C   UNL     1      45.031   4.398  11.842  0.00  0.00    +0.000 A 
ATOM      2  C   UNL     1      45.641   3.585  12.801  0.00  0.00    +0.000 A 
ATOM      3  C   UNL     1      46.728   4.064  13.518  0.00  0.00    +0.000 A 
ATOM      4  F   UNL     1      47.313   3.275  14.429  0.00  0.00    +0.000 F 
ATOM      5  C   UNL     1      47.219   5.351  13.314  0.00  0.00    +0.000 A 
ATOM      6  C   UNL     1      46.628   6.205  12.369  0.00  0.00    +0.000 A 
ATOM      7  C   UNL     1      45.527   5.701  11.647  0.00  0.00    +0.000 A 
ENDROOT
BRANCH   6   8
ATOM      8  C   UNL     1      47.131   7.579  12.135  0.00  0.00    +0.000 A 
ATOM      9  C   UNL     1      46.290   8.703  12.253  0.00  0.00    +0.000 A 
ATOM     10  C   UNL     1      46.766  10.003  12.039  0.00  0.00    +0.000 A 
ATOM     11  C   UNL     1      48.101  10.209  11.712  0.00  0.00    +0.000 A 
ATOM     12  C   UNL     1      48.945   9.114  11.597  0.00  0.00    +0.000 A 
ATOM     13  F   UNL     1      50.235   9.306  11.291  0.00  0.00    +0.000 F 
ATOM     14  C   UNL     1      48.475   7.819  11.794  0.00  0.00    +0.000 A 
ENDBRANCH   6   8
BRANCH   1  15
ATOM     15  C   UNL     1      43.817   3.898  11.091  0.00  0.00    +0.000 C 
BRANCH  15  16
ATOM     16  O   UNL     1      43.829   4.387   9.745  0.00  0.00    +0.000 OA
BRANCH  16  20
ATOM     17  C   UNL     1      46.590   2.405   7.428  0.00  0.00    +0.000 A 
ATOM     18  C   UNL     1      45.814   1.689   8.342  0.00  0.00    +0.000 A 
ATOM     19  C   UNL     1      44.885   2.374   9.127  0.00  0.00    +0.000 A 
ATOM     20  C   UNL     1      44.767   3.747   8.965  0.00  0.00    +0.000 A 
ATOM     21  N   UNL     1      45.512   4.464   8.099  0.00  0.00    +0.000 NA
ATOM     22  C   UNL     1      46.413   3.780   7.356  0.00  0.00    +0.000 A 
BRANCH  17  24
ATOM     23  N   UNL     1      48.765   2.470   6.346  0.00  0.00    +0.000 N 
ATOM     24  C   UNL     1      47.600   1.785   6.548  0.00  0.00    +0.000 C 
ATOM     25  O   UNL     1      47.421   0.682   6.052  0.00  0.00    +0.000 OA
ATOM     26  H   UNL     1      49.488   1.976   5.836  0.00  0.00    +0.000 HD
ATOM     27  H   UNL     1      49.051   3.248   6.923  0.00  0.00    +0.000 HD
ENDBRANCH  17  24
ENDBRANCH  16  20
ENDBRANCH  15  16
ENDBRANCH   1  15
TORSDOF 5
ENDMDL
MODEL 3
REMARK VINA RESULT:    -8.453      2.064      4.186
REMARK INTER + INTRA:         -11.739
REMARK INTER:                 -11.033
REMARK INTRA:                  -0.706
REMARK UNBOUND:                -0.816
REMARK  Name = 
REMARK  5 active torsions:
REMARK  status: ('A' for Active; 'I' for Inactive)
REMARK    1  A    between atoms: C_2  and  C_4
REMARK    2  A    between atoms: C_7  and  O_8
REMARK    3  A    between atoms: O_8  and  C_9
REMARK    4  A    between atoms: C_9  and  C_10
REMARK    5  A    between atoms: C_15  and  C_16
REMARK                            x       y       z     vdW  Elec       q    Type
REMARK                         _______ _______ _______ _____ _____    ______ ____
ROOT
ATOM      1  C   UNL     1      45.485   5.055  12.021  0.00  0.00    +0.000 A 
ATOM      2  C   UNL     1      46.046   6.172  11.397  0.00  0.00    +0.000 A 
ATOM      3  C   UNL     1      47.043   6.892  12.041  0.00  0.00    +0.000 A 
ATOM      4  F   UNL     1      47.569   7.968  11.440  0.00  0.00    +0.000 F 
ATOM      5  C   UNL     1      47.511   6.514  13.297  0.00  0.00    +0.000 A 
ATOM      6  C   UNL     1      46.984   5.390  13.953  0.00  0.00    +0.000 A 
ATOM      7  C   UNL     1      45.969   4.674  13.286  0.00  0.00    +0.000 A 
ENDROOT
BRANCH   6   8
ATOM      8  C   UNL     1      47.467   4.968  15.289  0.00  0.00    +0.000 A 
ATOM      9  C   UNL     1      48.450   5.700  15.983  0.00  0.00    +0.000 A 
ATOM     10  C   UNL     1      48.904   5.306  17.248  0.00  0.00    +0.000 A 
ATOM     11  C   UNL     1      48.373   4.175  17.855  0.00  0.00    +0.000 A 
ATOM     12  C   UNL     1      47.399   3.445  17.189  0.00  0.00    +0.000 A 
ATOM     13  F   UNL     1      46.875   2.358  17.772  0.00  0.00    +0.000 F 
ATOM     14  C   UNL     1      46.954   3.823  15.925  0.00  0.00    +0.000 A 
ENDBRANCH   6   8
BRANCH   1  15
ATOM     15  C   UNL     1      44.432   4.240  11.304  0.00  0.00    +0.000 C 
BRANCH  15  16
ATOM     16  O   UNL     1      44.307   4.675   9.945  0.00  0.00    +0.000 OA
BRANCH  16  20
ATOM     17  C   UNL     1      46.629   2.423   7.403  0.00  0.00    +0.000 A 
ATOM     18  C   UNL     1      45.867   1.789   8.386  0.00  0.00    +0.000 A 
ATOM     19  C   UNL     1      45.088   2.564   9.246  0.00  0.00    +0.000 A 
ATOM     20  C   UNL     1      45.101   3.943   9.088  0.00  0.00    +0.000 A 
ATOM     21  N   UNL     1      45.836   4.582   8.155  0.00  0.00    +0.000 NA
ATOM     22  C   UNL     1      46.591   3.810   7.339  0.00  0.00    +0.000 A 
BRANCH  17  24
ATOM     23  N   UNL     1      48.582   2.363   5.958  0.00  0.00    +0.000 N 
ATOM     24  C   UNL     1      47.487   1.704   6.439  0.00  0.00    +0.000 C 
ATOM     25  O   UNL     1      47.250   0.549   6.116  0.00  0.00    +0.000 OA
ATOM     26  H   UNL     1      49.218   1.813   5.393  0.00  0.00    +0.000 HD
ATOM     27  H   UNL     1      48.946   3.206   6.381  0.00  0.00    +0.000 HD
ENDBRANCH  17  24
ENDBRANCH  16  20
ENDBRANCH  15  16
ENDBRANCH   1  15
TORSDOF 5
ENDMDL
MODEL 4
REMARK VINA RESULT:    -7.934      3.867      7.438
REMARK INTER + INTRA:         -11.069
REMARK INTER:                 -10.666
REMARK INTRA:                  -0.403
REMARK UNBOUND:                -0.816
REMARK  Name = 
REMARK  5 active torsions:
REMARK  status: ('A' for Active; 'I' for Inactive)
REMARK    1  A    between atoms: C_2  and  C_4
REMARK    2  A    between atoms: C_7  and  O_8
REMARK    3  A    between atoms: O_8  and  C_9
REMARK    4  A    between atoms: C_9  and  C_10
REMARK    5  A    between atoms: C_15  and  C_16
REMARK                            x       y       z     vdW  Elec       q    Type
REMARK                         _______ _______ _______ _____ _____    ______ ____
ROOT
ATOM      1  C   UNL     1      45.331   6.454  11.365  0.00  0.00    +0.000 A 
ATOM      2  C   UNL     1      43.990   6.322  11.734  0.00  0.00    +0.000 A 
ATOM      3  C   UNL     1      43.199   5.363  11.117  0.00  0.00    +0.000 A 
ATOM      4  F   UNL     1      41.910   5.250  11.468  0.00  0.00    +0.000 F 
ATOM      5  C   UNL     1      43.718   4.513  10.144  0.00  0.00    +0.000 A 
ATOM      6  C   UNL     1      45.064   4.604   9.755  0.00  0.00    +0.000 A 
ATOM      7  C   UNL     1      45.852   5.585  10.388  0.00  0.00    +0.000 A 
ENDROOT
BRANCH   6   8
ATOM      8  C   UNL     1      45.640   3.709   8.723  0.00  0.00    +0.000 A 
ATOM      9  C   UNL     1      46.222   4.220   7.545  0.00  0.00    +0.000 A 
ATOM     10  C   UNL     1      46.773   3.377   6.573  0.00  0.00    +0.000 A 
ATOM     11  C   UNL     1      46.766   1.999   6.761  0.00  0.00    +0.000 A 
ATOM     12  C   UNL     1      46.202   1.479   7.917  0.00  0.00    +0.000 A 
ATOM     13  F   UNL     1      46.199   0.154   8.111  0.00  0.00    +0.000 F 
ATOM     14  C   UNL     1      45.640   2.311   8.882  0.00  0.00    +0.000 A 
ENDBRANCH   6   8
BRANCH   1  15
ATOM     15  C   UNL     1      46.210   7.465  12.067  0.00  0.00    +0.000 C 
BRANCH  15  16
ATOM     16  O   UNL     1      47.505   6.909  12.319  0.00  0.00    +0.000 OA
BRANCH  16  20
ATOM     17  C   UNL     1      47.617   4.757  15.824  0.00  0.00    +0.000 A 
ATOM     18  C   UNL     1      48.290   5.978  15.741  0.00  0.00    +0.000 A 
ATOM     19  C   UNL     1      48.250   6.695  14.545  0.00  0.00    +0.000 A 
ATOM     20  C   UNL     1      47.537   6.165  13.479  0.00  0.00    +0.000 A 
ATOM     21  N   UNL     1      46.886   4.984  13.529  0.00  0.00    +0.000 NA
ATOM     22  C   UNL     1      46.948   4.302  14.695  0.00  0.00    +0.000 A 
BRANCH  17  24
ATOM     23  N   UNL     1      48.717   3.889  17.808  0.00  0.00    +0.000 N 
ATOM     24  C   UNL     1      47.590   3.917  17.037  0.00  0.00    +0.000 C 
ATOM     25  O   UNL     1      46.585   3.302  17.364  0.00  0.00    +0.000 OA
ATOM     26  H   UNL     1      48.637   3.402  18.693  0.00  0.00    +0.000 HD
ATOM     27  H   UNL     1      49.464   4.562  17.714  0.00  0.00    +0.000 HD
ENDBRANCH  17  24
ENDBRANCH  16  20
ENDBRANCH  15  16
ENDBRANCH   1  15
TORSDOF 5
ENDMDL
MODEL 5
REMARK VINA RESULT:    -7.735      4.974      8.239
REMARK INTER + INTRA:         -10.812
REMARK INTER:                 -10.207
REMARK INTRA:                  -0.605
REMARK UNBOUND:                -0.816
REMARK  Name = 
REMARK  5 active torsions:
REMARK  status: ('A' for Active; 'I' for Inactive)
REMARK    1  A    between atoms: C_2  and  C_4
REMARK    2  A    between atoms: C_7  and  O_8
REMARK    3  A    between atoms: O_8  and  C_9
REMARK    4  A    between atoms: C_9  and  C_10
REMARK    5  A    between atoms: C_15  and  C_16
REMARK                            x       y       z     vdW  Elec       q    Type
REMARK                         _______ _______ _______ _____ _____    ______ ____
ROOT
ATOM      1  C   UNL     1      45.256   5.124  12.713  0.00  0.00    +0.000 A 
ATOM      2  C   UNL     1      43.903   5.468  12.776  0.00  0.00    +0.000 A 
ATOM      3  C   UNL     1      43.074   5.195  11.698  0.00  0.00    +0.000 A 
ATOM      4  F   UNL     1      41.780   5.538  11.761  0.00  0.00    +0.000 F 
ATOM      5  C   UNL     1      43.558   4.567  10.553  0.00  0.00    +0.000 A 
ATOM      6  C   UNL     1      44.907   4.192  10.455  0.00  0.00    +0.000 A 
ATOM      7  C   UNL     1      45.737   4.481  11.557  0.00  0.00    +0.000 A 
ENDROOT
BRANCH   6   8
ATOM      8  C   UNL     1      45.446   3.521   9.247  0.00  0.00    +0.000 A 
ATOM      9  C   UNL     1      45.887   4.257   8.130  0.00  0.00    +0.000 A 
ATOM     10  C   UNL     1      46.401   3.626   6.991  0.00  0.00    +0.000 A 
ATOM     11  C   UNL     1      46.499   2.240   6.949  0.00  0.00    +0.000 A 
ATOM     12  C   UNL     1      46.075   1.500   8.043  0.00  0.00    +0.000 A 
ATOM     13  F   UNL     1      46.174   0.164   8.014  0.00  0.00    +0.000 F 
ATOM     14  C   UNL     1      45.549   2.121   9.173  0.00  0.00    +0.000 A 
ENDBRANCH   6   8
BRANCH   1  15
ATOM     15  C   UNL     1      46.155   5.376  13.904  0.00  0.00    +0.000 C 
BRANCH  15  16
ATOM     16  O   UNL     1      46.427   4.149  14.590  0.00  0.00    +0.000 OA
BRANCH  16  20
ATOM     17  C   UNL     1      48.856   4.622  17.876  0.00  0.00    +0.000 A 
ATOM     18  C   UNL     1      47.894   3.610  17.869  0.00  0.00    +0.000 A 
ATOM     19  C   UNL     1      47.071   3.464  16.750  0.00  0.00    +0.000 A 
ATOM     20  C   UNL     1      47.245   4.334  15.683  0.00  0.00    +0.000 A 
ATOM     21  N   UNL     1      48.159   5.326  15.669  0.00  0.00    +0.000 NA
ATOM     22  C   UNL     1      48.937   5.455  16.769  0.00  0.00    +0.000 A 
BRANCH  17  24
ATOM     23  N   UNL     1      49.474   4.289  20.202  0.00  0.00    +0.000 N 
ATOM     24  C   UNL     1      49.779   4.866  19.003  0.00  0.00    +0.000 C 
ATOM     25  O   UNL     1      50.799   5.525  18.858  0.00  0.00    +0.000 OA
ATOM     26  H   UNL     1      50.179   4.372  20.926  0.00  0.00    +0.000 HD
ATOM     27  H   UNL     1      48.793   3.549  20.299  0.00  0.00    +0.000 HD
ENDBRANCH  17  24
ENDBRANCH  16  20
ENDBRANCH  15  16
ENDBRANCH   1  15
TORSDOF 5
ENDMDL
MODEL 6
REMARK VINA RESULT:    -7.674      3.681      7.028
REMARK INTER + INTRA:         -10.733
REMARK INTER:                  -9.808
REMARK INTRA:                  -0.925
REMARK UNBOUND:                -0.816
REMARK  Name = 
REMARK  5 active torsions:
REMARK  status: ('A' for Active; 'I' for Inactive)
REMARK    1  A    between atoms: C_2  and  C_4
REMARK    2  A    between atoms: C_7  and  O_8
REMARK    3  A    between atoms: O_8  and  C_9
REMARK    4  A    between atoms: C_9  and  C_10
REMARK    5  A    between atoms: C_15  and  C_16
REMARK                            x       y       z     vdW  Elec       q    Type
REMARK                         _______ _______ _______ _____ _____    ______ ____
ROOT
ATOM      1  C   UNL     1      44.285   5.230  10.936  0.00  0.00    +0.000 A 
ATOM      2  C   UNL     1      43.572   4.309  11.708  0.00  0.00    +0.000 A 
ATOM      3  C   UNL     1      43.574   2.967  11.353  0.00  0.00    +0.000 A 
ATOM      4  F   UNL     1      42.880   2.091  12.093  0.00  0.00    +0.000 F 
ATOM      5  C   UNL     1      44.288   2.512  10.248  0.00  0.00    +0.000 A 
ATOM      6  C   UNL     1      45.028   3.403   9.453  0.00  0.00    +0.000 A 
ATOM      7  C   UNL     1      45.011   4.762   9.825  0.00  0.00    +0.000 A 
ENDROOT
BRANCH   6   8
ATOM      8  C   UNL     1      45.796   2.943   8.272  0.00  0.00    +0.000 A 
ATOM      9  C   UNL     1      46.193   3.835   7.257  0.00  0.00    +0.000 A 
ATOM     10  C   UNL     1      46.925   3.404   6.144  0.00  0.00    +0.000 A 
ATOM     11  C   UNL     1      47.289   2.067   6.027  0.00  0.00    +0.000 A 
ATOM     12  C   UNL     1      46.911   1.175   7.020  0.00  0.00    +0.000 A 
ATOM     13  F   UNL     1      47.266  -0.113   6.919  0.00  0.00    +0.000 F 
ATOM     14  C   UNL     1      46.171   1.595   8.122  0.00  0.00    +0.000 A 
ENDBRANCH   6   8
BRANCH   1  15
ATOM     15  C   UNL     1      44.325   6.686  11.345  0.00  0.00    +0.000 C 
BRANCH  15  16
ATOM     16  O   UNL     1      44.909   6.821  12.645  0.00  0.00    +0.000 OA
BRANCH  16  20
ATOM     17  C   UNL     1      48.923   7.704  12.468  0.00  0.00    +0.000 A 
ATOM     18  C   UNL     1      47.987   8.661  12.069  0.00  0.00    +0.000 A 
ATOM     19  C   UNL     1      46.628   8.347  12.128  0.00  0.00    +0.000 A 
ATOM     20  C   UNL     1      46.259   7.090  12.585  0.00  0.00    +0.000 A 
ATOM     21  N   UNL     1      47.142   6.144  12.966  0.00  0.00    +0.000 NA
ATOM     22  C   UNL     1      48.454   6.467  12.890  0.00  0.00    +0.000 A 
BRANCH  17  24
ATOM     23  N   UNL     1      51.072   7.484  11.357  0.00  0.00    +0.000 N 
ATOM     24  C   UNL     1      50.382   7.928  12.449  0.00  0.00    +0.000 C 
ATOM     25  O   UNL     1      50.946   8.523  13.355  0.00  0.00    +0.000 OA
ATOM     26  H   UNL     1      52.049   7.751  11.311  0.00  0.00    +0.000 HD
ATOM     27  H   UNL     1      50.621   7.219  10.492  0.00  0.00    +0.000 HD
ENDBRANCH  17  24
ENDBRANCH  16  20
ENDBRANCH  15  16
ENDBRANCH   1  15
TORSDOF 5
ENDMDL
MODEL 7
REMARK VINA RESULT:    -7.230      5.484      7.908
REMARK INTER + INTRA:         -10.159
REMARK INTER:                  -9.324
REMARK INTRA:                  -0.835
REMARK UNBOUND:                -0.816
REMARK  Name = 
REMARK  5 active torsions:
REMARK  status: ('A' for Active; 'I' for Inactive)
REMARK    1  A    between atoms: C_2  and  C_4
REMARK    2  A    between atoms: C_7  and  O_8
REMARK    3  A    between atoms: O_8  and  C_9
REMARK    4  A    between atoms: C_9  and  C_10
REMARK    5  A    between atoms: C_15  and  C_16
REMARK                            x       y       z     vdW  Elec       q    Type
REMARK                         _______ _______ _______ _____ _____    ______ ____
ROOT
ATOM      1  C   UNL     1      48.421   6.752  14.369  0.00  0.00    +0.000 A 
ATOM      2  C   UNL     1      49.147   7.518  13.453  0.00  0.00    +0.000 A 
ATOM      3  C   UNL     1      48.724   7.596  12.133  0.00  0.00    +0.000 A 
ATOM      4  F   UNL     1      49.432   8.324  11.259  0.00  0.00    +0.000 F 
ATOM      5  C   UNL     1      47.576   6.938  11.702  0.00  0.00    +0.000 A 
ATOM      6  C   UNL     1      46.810   6.169  12.592  0.00  0.00    +0.000 A 
ATOM      7  C   UNL     1      47.256   6.097  13.927  0.00  0.00    +0.000 A 
ENDROOT
BRANCH   6   8
ATOM      8  C   UNL     1      45.583   5.460  12.157  0.00  0.00    +0.000 A 
ATOM      9  C   UNL     1      44.646   4.969  13.087  0.00  0.00    +0.000 A 
ATOM     10  C   UNL     1      43.483   4.305  12.677  0.00  0.00    +0.000 A 
ATOM     11  C   UNL     1      43.224   4.127  11.323  0.00  0.00    +0.000 A 
ATOM     12  C   UNL     1      44.134   4.609  10.393  0.00  0.00    +0.000 A 
ATOM     13  F   UNL     1      43.887   4.450   9.086  0.00  0.00    +0.000 F 
ATOM     14  C   UNL     1      45.298   5.258  10.794  0.00  0.00    +0.000 A 
ENDBRANCH   6   8
BRANCH   1  15
ATOM     15  C   UNL     1      48.851   6.701  15.818  0.00  0.00    +0.000 C 
BRANCH  15  16
ATOM     16  O   UNL     1      48.244   5.585  16.478  0.00  0.00    +0.000 OA
BRANCH  16  20
ATOM     17  C   UNL     1      50.941   2.627  17.427  0.00  0.00    +0.000 A 
ATOM     18  C   UNL     1      49.624   2.285  17.111  0.00  0.00    +0.000 A 
ATOM     19  C   UNL     1      48.717   3.299  16.797  0.00  0.00    +0.000 A 
ATOM     20  C   UNL     1      49.163   4.613  16.809  0.00  0.00    +0.000 A 
ATOM     21  N   UNL     1      50.425   4.971  17.121  0.00  0.00    +0.000 NA
ATOM     22  C   UNL     1      51.284   3.972  17.433  0.00  0.00    +0.000 A 
BRANCH  17  24
ATOM     23  N   UNL     1      51.579   0.358  18.017  0.00  0.00    +0.000 N 
ATOM     24  C   UNL     1      51.983   1.640  17.773  0.00  0.00    +0.000 C 
ATOM     25  O   UNL     1      53.166   1.946  17.799  0.00  0.00    +0.000 OA
ATOM     26  H   UNL     1      52.318  -0.325  18.136  0.00  0.00    +0.000 HD
ATOM     27  H   UNL     1      50.663   0.013  17.765  0.00  0.00    +0.000 HD
ENDBRANCH  17  24
ENDBRANCH  16  20
ENDBRANCH  15  16
ENDBRANCH   1  15
TORSDOF 5
ENDMDL
MODEL 8
REMARK VINA RESULT:    -7.034      5.067      8.346
REMARK INTER + INTRA:          -9.906
REMARK INTER:                  -9.149
REMARK INTRA:                  -0.757
REMARK UNBOUND:                -0.816
REMARK  Name = 
REMARK  5 active torsions:
REMARK  status: ('A' for Active; 'I' for Inactive)
REMARK    1  A    between atoms: C_2  and  C_4
REMARK    2  A    between atoms: C_7  and  O_8
REMARK    3  A    between atoms: O_8  and  C_9
REMARK    4  A    between atoms: C_9  and  C_10
REMARK    5  A    between atoms: C_15  and  C_16
REMARK                            x       y       z     vdW  Elec       q    Type
REMARK                         _______ _______ _______ _____ _____    ______ ____
ROOT
ATOM      1  C   UNL     1      46.958   7.465  13.096  0.00  0.00    +0.000 A 
ATOM      2  C   UNL     1      46.173   8.615  12.981  0.00  0.00    +0.000 A 
ATOM      3  C   UNL     1      45.108   8.635  12.091  0.00  0.00    +0.000 A 
ATOM      4  F   UNL     1      44.366   9.745  11.979  0.00  0.00    +0.000 F 
ATOM      5  C   UNL     1      44.792   7.522  11.316  0.00  0.00    +0.000 A 
ATOM      6  C   UNL     1      45.548   6.342  11.411  0.00  0.00    +0.000 A 
ATOM      7  C   UNL     1      46.628   6.341  12.317  0.00  0.00    +0.000 A 
ENDROOT
BRANCH   6   8
ATOM      8  C   UNL     1      45.230   5.144  10.598  0.00  0.00    +0.000 A 
ATOM      9  C   UNL     1      44.502   4.062  11.132  0.00  0.00    +0.000 A 
ATOM     10  C   UNL     1      44.195   2.932  10.363  0.00  0.00    +0.000 A 
ATOM     11  C   UNL     1      44.600   2.864   9.036  0.00  0.00    +0.000 A 
ATOM     12  C   UNL     1      45.313   3.922   8.492  0.00  0.00    +0.000 A 
ATOM     13  F   UNL     1      45.699   3.868   7.210  0.00  0.00    +0.000 F 
ATOM     14  C   UNL     1      45.634   5.042   9.254  0.00  0.00    +0.000 A 
ENDBRANCH   6   8
BRANCH   1  15
ATOM     15  C   UNL     1      48.090   7.422  14.098  0.00  0.00    +0.000 C 
BRANCH  15  16
ATOM     16  O   UNL     1      48.455   6.066  14.378  0.00  0.00    +0.000 OA
BRANCH  16  20
ATOM     17  C   UNL     1      48.329   5.144  18.386  0.00  0.00    +0.000 A 
ATOM     18  C   UNL     1      47.651   4.337  17.470  0.00  0.00    +0.000 A 
ATOM     19  C   UNL     1      47.696   4.664  16.113  0.00  0.00    +0.000 A 
ATOM     20  C   UNL     1      48.419   5.783  15.726  0.00  0.00    +0.000 A 
ATOM     21  N   UNL     1      49.074   6.586  16.591  0.00  0.00    +0.000 NA
ATOM     22  C   UNL     1      49.006   6.255  17.902  0.00  0.00    +0.000 A 
BRANCH  17  24
ATOM     23  N   UNL     1      48.437   3.594  20.253  0.00  0.00    +0.000 N 
ATOM     24  C   UNL     1      48.350   4.893  19.840  0.00  0.00    +0.000 C 
ATOM     25  O   UNL     1      48.333   5.813  20.645  0.00  0.00    +0.000 OA
ATOM     26  H   UNL     1      48.569   3.453  21.248  0.00  0.00    +0.000 HD
ATOM     27  H   UNL     1      48.702   2.839  19.637  0.00  0.00    +0.000 HD
ENDBRANCH  17  24
ENDBRANCH  16  20
ENDBRANCH  15  16
ENDBRANCH   1  15
TORSDOF 5
ENDMDL
MODEL 9
REMARK VINA RESULT:    -6.756      6.214      8.481
REMARK INTER + INTRA:          -9.547
REMARK INTER:                  -8.795
REMARK INTRA:                  -0.751
REMARK UNBOUND:                -0.816
REMARK  Name = 
REMARK  5 active torsions:
REMARK  status: ('A' for Active; 'I' for Inactive)
REMARK    1  A    between atoms: C_2  and  C_4
REMARK    2  A    between atoms: C_7  and  O_8
REMARK    3  A    between atoms: O_8  and  C_9
REMARK    4  A    between atoms: C_9  and  C_10
REMARK    5  A    between atoms: C_15  and  C_16
REMARK                            x       y       z     vdW  Elec       q    Type
REMARK                         _______ _______ _______ _____ _____    ______ ____
ROOT
ATOM      1  C   UNL     1      47.900   5.004  15.683  0.00  0.00    +0.000 A 
ATOM      2  C   UNL     1      48.584   6.171  15.329  0.00  0.00    +0.000 A 
ATOM      3  C   UNL     1      48.207   6.870  14.191  0.00  0.00    +0.000 A 
ATOM      4  F   UNL     1      48.874   7.982  13.853  0.00  0.00    +0.000 F 
ATOM      5  C   UNL     1      47.146   6.443  13.398  0.00  0.00    +0.000 A 
ATOM      6  C   UNL     1      46.424   5.283  13.725  0.00  0.00    +0.000 A 
ATOM      7  C   UNL     1      46.823   4.583  14.881  0.00  0.00    +0.000 A 
ENDROOT
BRANCH   6   8
ATOM      8  C   UNL     1      45.290   4.809  12.897  0.00  0.00    +0.000 A 
ATOM      9  C   UNL     1      45.346   3.586  12.200  0.00  0.00    +0.000 A 
ATOM     10  C   UNL     1      44.274   3.133  11.423  0.00  0.00    +0.000 A 
ATOM     11  C   UNL     1      43.111   3.890  11.333  0.00  0.00    +0.000 A 
ATOM     12  C   UNL     1      43.036   5.095  12.017  0.00  0.00    +0.000 A 
ATOM     13  F   UNL     1      41.916   5.826  11.944  0.00  0.00    +0.000 F 
ATOM     14  C   UNL     1      44.105   5.557  12.781  0.00  0.00    +0.000 A 
ENDBRANCH   6   8
BRANCH   1  15
ATOM     15  C   UNL     1      48.277   4.264  16.947  0.00  0.00    +0.000 C 
BRANCH  15  16
ATOM     16  O   UNL     1      48.712   2.935  16.635  0.00  0.00    +0.000 OA
BRANCH  16  20
ATOM     17  C   UNL     1      52.507   2.242  18.061  0.00  0.00    +0.000 A 
ATOM     18  C   UNL     1      51.932   3.505  18.215  0.00  0.00    +0.000 A 
ATOM     19  C   UNL     1      50.646   3.730  17.721  0.00  0.00    +0.000 A 
ATOM     20  C   UNL     1      49.985   2.682  17.095  0.00  0.00    +0.000 A 
ATOM     21  N   UNL     1      50.522   1.456  16.924  0.00  0.00    +0.000 NA
ATOM     22  C   UNL     1      51.774   1.265  17.401  0.00  0.00    +0.000 A 
BRANCH  17  24
ATOM     23  N   UNL     1      54.771   1.481  17.617  0.00  0.00    +0.000 N 
ATOM     24  C   UNL     1      53.858   1.893  18.545  0.00  0.00    +0.000 C 
ATOM     25  O   UNL     1      54.160   2.007  19.724  0.00  0.00    +0.000 OA
ATOM     26  H   UNL     1      55.720   1.360  17.952  0.00  0.00    +0.000 HD
ATOM     27  H   UNL     1      54.642   1.611  16.624  0.00  0.00    +0.000 HD
ENDBRANCH  17  24
ENDBRANCH  16  20
ENDBRANCH  15  16
ENDBRANCH   1  15
TORSDOF 5
ENDMDL
