MODEL 1
REMARK VINA RESULT:    -7.906      0.000      0.000
REMARK INTER + INTRA:         -11.938
REMARK INTER:                 -11.142
REMARK INTRA:                  -0.797
REMARK UNBOUND:                -0.797
REMARK  Name = 
REMARK  7 active torsions:
REMARK  status: ('A' for Active; 'I' for Inactive)
REMARK    1  A    between atoms: C_2  and  C_20
REMARK    2  A    between atoms: N_3  and  C_4
REMARK    3  A    between atoms: C_4  and  C_5
REMARK    4  A    between atoms: C_8  and  N_9
REMARK    5  A    between atoms: N_9  and  C_10
REMARK    6  A    between atoms: C_10  and  C_11
REMARK    7  A    between atoms: C_11  and  C_12
REMARK                            x       y       z     vdW  Elec       q    Type
REMARK                         _______ _______ _______ _____ _____    ______ ____
ROOT
ATOM      1  C   UNL     1      44.807   3.852   9.614  0.00  0.00    +0.000 A 
ATOM      2  C   UNL     1      45.549   4.405   8.565  0.00  0.00    +0.000 A 
ATOM      3  C   UNL     1      46.207   3.583   7.645  0.00  0.00    +0.000 A 
ATOM      4  C   UNL     1      46.159   2.191   7.765  0.00  0.00    +0.000 A 
ATOM      5  C   UNL     1      45.316   1.644   8.737  0.00  0.00    +0.000 A 
ATOM      6  C   UNL     1      44.655   2.461   9.662  0.00  0.00    +0.000 A 
ENDROOT
BRANCH   4   7
ATOM      7  N   UNL     1      46.849   1.308   6.919  0.00  0.00    +0.000 N 
ATOM      8  H   UNL     1      46.176   0.701   6.452  0.00  0.00    +0.000 HD
BRANCH   7   9
ATOM      9  C   UNL     1      47.791   1.886   5.944  0.00  0.00    +0.000 C 
BRANCH   9  10
ATOM     10  C   UNL     1      47.106   2.188   4.603  0.00  0.00    +0.000 C 
BRANCH  10  11
ATOM     11  C   UNL     1      46.717   0.938   3.852  0.00  0.00    +0.000 A 
ATOM     12  C   UNL     1      45.793   1.013   2.813  0.00  0.00    +0.000 A 
ATOM     13  C   UNL     1      45.424  -0.156   2.153  0.00  0.00    +0.000 A 
ATOM     14  C   UNL     1      45.969  -1.368   2.560  0.00  0.00    +0.000 A 
ATOM     15  C   UNL     1      46.858  -1.360   3.619  0.00  0.00    +0.000 A 
ATOM     16  N   UNL     1      47.237  -0.241   4.273  0.00  0.00    +0.000 NA
ENDBRANCH  10  11
ENDBRANCH   9  10
ENDBRANCH   7   9
ENDBRANCH   4   7
BRANCH   1  17
ATOM     17  C   UNL     1      44.155   4.743  10.637  0.00  0.00    +0.000 C 
BRANCH  17  20
ATOM     18  O   UNL     1      45.347   3.598  12.940  0.00  0.00    +0.000 OA
ATOM     19  C   UNL     1      45.681   4.714  12.572  0.00  0.00    +0.000 C 
ATOM     20  N   UNL     1      45.149   5.353  11.474  0.00  0.00    +0.000 N 
ATOM     21  H   UNL     1      45.646   6.148  11.095  0.00  0.00    +0.000 HD
BRANCH  19  22
ATOM     22  C   UNL     1      46.754   5.477  13.202  0.00  0.00    +0.000 A 
ATOM     23  C   UNL     1      47.324   6.590  12.611  0.00  0.00    +0.000 A 
ATOM     24  S   UNL     1      48.378   7.425  13.672  0.00  0.00    +0.000 S 
ATOM     25  C   UNL     1      48.153   6.268  14.901  0.00  0.00    +0.000 A 
ATOM     26  N   UNL     1      48.734   6.415  16.109  0.00  0.00    +0.000 NA
ATOM     27  C   UNL     1      48.499   5.397  16.962  0.00  0.00    +0.000 A 
ATOM     28  C   UNL     1      47.787   4.251  16.667  0.00  0.00    +0.000 A 
ATOM     29  C   UNL     1      47.202   4.141  15.412  0.00  0.00    +0.000 A 
ATOM     30  C   UNL     1      47.342   5.214  14.497  0.00  0.00    +0.000 A 
ENDBRANCH  19  22
ENDBRANCH  17  20
ENDBRANCH   1  17
TORSDOF 7
ENDMDL
MODEL 2
REMARK VINA RESULT:    -7.845      2.861      5.141
REMARK INTER + INTRA:         -11.853
REMARK INTER:                 -10.929
REMARK INTRA:                  -0.924
REMARK UNBOUND:                -0.797
REMARK  Name = 
REMARK  7 active torsions:
REMARK  status: ('A' for Active; 'I' for Inactive)
REMARK    1  A    between atoms: C_2  and  C_20
REMARK    2  A    between atoms: N_3  and  C_4
REMARK    3  A    between atoms: C_4  and  C_5
REMARK    4  A    between atoms: C_8  and  N_9
REMARK    5  A    between atoms: N_9  and  C_10
REMARK    6  A    between atoms: C_10  and  C_11
REMARK    7  A    between atoms: C_11  and  C_12
REMARK                            x       y       z     vdW  Elec       q    Type
REMARK                         _______ _______ _______ _____ _____    ______ ____
ROOT
ATOM      1  C   UNL     1      46.912   6.119  13.006  0.00  0.00    +0.000 A 
ATOM      2  C   UNL     1      46.205   5.029  13.525  0.00  0.00    +0.000 A 
ATOM      3  C   UNL     1      45.182   4.425  12.787  0.00  0.00    +0.000 A 
ATOM      4  C   UNL     1      44.826   4.912  11.525  0.00  0.00    +0.000 A 
ATOM      5  C   UNL     1      45.617   5.917  10.961  0.00  0.00    +0.000 A 
ATOM      6  C   UNL     1      46.642   6.526  11.695  0.00  0.00    +0.000 A 
ENDROOT
BRANCH   4   7
ATOM      7  N   UNL     1      43.767   4.398  10.759  0.00  0.00    +0.000 N 
ATOM      8  H   UNL     1      43.018   5.090  10.721  0.00  0.00    +0.000 HD
BRANCH   7   9
ATOM      9  C   UNL     1      44.076   3.893   9.409  0.00  0.00    +0.000 C 
BRANCH   9  10
ATOM     10  C   UNL     1      44.706   2.494   9.458  0.00  0.00    +0.000 C 
BRANCH  10  11
ATOM     11  C   UNL     1      45.755   2.288   8.393  0.00  0.00    +0.000 A 
ATOM     12  C   UNL     1      46.103   3.341   7.550  0.00  0.00    +0.000 A 
ATOM     13  C   UNL     1      47.050   3.122   6.554  0.00  0.00    +0.000 A 
ATOM     14  C   UNL     1      47.609   1.856   6.411  0.00  0.00    +0.000 A 
ATOM     15  C   UNL     1      47.187   0.859   7.270  0.00  0.00    +0.000 A 
ATOM     16  N   UNL     1      46.275   1.044   8.248  0.00  0.00    +0.000 NA
ENDBRANCH  10  11
ENDBRANCH   9  10
ENDBRANCH   7   9
ENDBRANCH   4   7
BRANCH   1  17
ATOM     17  C   UNL     1      47.968   6.802  13.832  0.00  0.00    +0.000 C 
BRANCH  17  20
ATOM     18  O   UNL     1      50.170   6.548  15.600  0.00  0.00    +0.000 OA
ATOM     19  C   UNL     1      49.046   6.255  15.980  0.00  0.00    +0.000 C 
ATOM     20  N   UNL     1      47.922   6.335  15.189  0.00  0.00    +0.000 N 
ATOM     21  H   UNL     1      47.017   6.319  15.641  0.00  0.00    +0.000 HD
BRANCH  19  22
ATOM     22  C   UNL     1      48.743   5.864  17.353  0.00  0.00    +0.000 A 
ATOM     23  C   UNL     1      48.932   4.576  17.821  0.00  0.00    +0.000 A 
ATOM     24  S   UNL     1      48.730   4.461  19.517  0.00  0.00    +0.000 S 
ATOM     25  C   UNL     1      48.307   6.106  19.638  0.00  0.00    +0.000 A 
ATOM     26  N   UNL     1      48.062   6.675  20.836  0.00  0.00    +0.000 NA
ATOM     27  C   UNL     1      47.695   7.971  20.766  0.00  0.00    +0.000 A 
ATOM     28  C   UNL     1      47.512   8.691  19.603  0.00  0.00    +0.000 A 
ATOM     29  C   UNL     1      47.778   8.069  18.390  0.00  0.00    +0.000 A 
ATOM     30  C   UNL     1      48.247   6.731  18.398  0.00  0.00    +0.000 A 
ENDBRANCH  19  22
ENDBRANCH  17  20
ENDBRANCH   1  17
TORSDOF 7
ENDMDL
MODEL 3
REMARK VINA RESULT:    -7.733      2.752      4.686
REMARK INTER + INTRA:         -11.694
REMARK INTER:                 -10.565
REMARK INTRA:                  -1.129
REMARK UNBOUND:                -0.797
REMARK  Name = 
REMARK  7 active torsions:
REMARK  status: ('A' for Active; 'I' for Inactive)
REMARK    1  A    between atoms: C_2  and  C_20
REMARK    2  A    between atoms: N_3  and  C_4
REMARK    3  A    between atoms: C_4  and  C_5
REMARK    4  A    between atoms: C_8  and  N_9
REMARK    5  A    between atoms: N_9  and  C_10
REMARK    6  A    between atoms: C_10  and  C_11
REMARK    7  A    between atoms: C_11  and  C_12
REMARK                            x       y       z     vdW  Elec       q    Type
REMARK                         _______ _______ _______ _____ _____    ______ ____
ROOT
ATOM      1  C   UNL     1      46.779   6.479  12.554  0.00  0.00    +0.000 A 
ATOM      2  C   UNL     1      46.219   5.454  13.324  0.00  0.00    +0.000 A 
ATOM      3  C   UNL     1      45.248   4.605  12.784  0.00  0.00    +0.000 A 
ATOM      4  C   UNL     1      44.798   4.775  11.471  0.00  0.00    +0.000 A 
ATOM      5  C   UNL     1      45.449   5.718  10.670  0.00  0.00    +0.000 A 
ATOM      6  C   UNL     1      46.420   6.572  11.204  0.00  0.00    +0.000 A 
ENDROOT
BRANCH   4   7
ATOM      7  N   UNL     1      43.780   4.003  10.887  0.00  0.00    +0.000 N 
ATOM      8  H   UNL     1      42.896   4.506  10.963  0.00  0.00    +0.000 HD
BRANCH   7   9
ATOM      9  C   UNL     1      43.987   3.522   9.509  0.00  0.00    +0.000 C 
BRANCH   9  10
ATOM     10  C   UNL     1      44.755   2.193   9.482  0.00  0.00    +0.000 C 
BRANCH  10  11
ATOM     11  C   UNL     1      45.789   2.138   8.383  0.00  0.00    +0.000 A 
ATOM     12  C   UNL     1      46.043   3.271   7.614  0.00  0.00    +0.000 A 
ATOM     13  C   UNL     1      46.978   3.191   6.586  0.00  0.00    +0.000 A 
ATOM     14  C   UNL     1      47.617   1.980   6.338  0.00  0.00    +0.000 A 
ATOM     15  C   UNL     1      47.285   0.896   7.129  0.00  0.00    +0.000 A 
ATOM     16  N   UNL     1      46.387   0.947   8.137  0.00  0.00    +0.000 NA
ENDBRANCH  10  11
ENDBRANCH   9  10
ENDBRANCH   7   9
ENDBRANCH   4   7
BRANCH   1  17
ATOM     17  C   UNL     1      47.776   7.429  13.162  0.00  0.00    +0.000 C 
BRANCH  17  20
ATOM     18  O   UNL     1      48.431   8.473  15.715  0.00  0.00    +0.000 OA
ATOM     19  C   UNL     1      48.799   7.350  15.403  0.00  0.00    +0.000 C 
ATOM     20  N   UNL     1      48.538   6.767  14.184  0.00  0.00    +0.000 N 
ATOM     21  H   UNL     1      48.652   5.766  14.098  0.00  0.00    +0.000 HD
BRANCH  19  22
ATOM     22  C   UNL     1      49.488   6.451  16.322  0.00  0.00    +0.000 A 
ATOM     23  C   UNL     1      50.763   6.703  16.798  0.00  0.00    +0.000 A 
ATOM     24  S   UNL     1      51.224   5.619  18.040  0.00  0.00    +0.000 S 
ATOM     25  C   UNL     1      49.767   4.748  17.902  0.00  0.00    +0.000 A 
ATOM     26  N   UNL     1      49.494   3.716  18.725  0.00  0.00    +0.000 NA
ATOM     27  C   UNL     1      48.323   3.098  18.464  0.00  0.00    +0.000 A 
ATOM     28  C   UNL     1      47.466   3.408  17.427  0.00  0.00    +0.000 A 
ATOM     29  C   UNL     1      47.783   4.481  16.605  0.00  0.00    +0.000 A 
ATOM     30  C   UNL     1      48.959   5.225  16.876  0.00  0.00    +0.000 A 
ENDBRANCH  19  22
ENDBRANCH  17  20
ENDBRANCH   1  17
TORSDOF 7
ENDMDL
MODEL 4
REMARK VINA RESULT:    -7.464      3.673      5.927
REMARK INTER + INTRA:         -11.316
REMARK INTER:                  -9.958
REMARK INTRA:                  -1.358
REMARK UNBOUND:                -0.797
REMARK  Name = 
REMARK  7 active torsions:
REMARK  status: ('A' for Active; 'I' for Inactive)
REMARK    1  A    between atoms: C_2  and  C_20
REMARK    2  A    between atoms: N_3  and  C_4
REMARK    3  A    between atoms: C_4  and  C_5
REMARK    4  A    between atoms: C_8  and  N_9
REMARK    5  A    between atoms: N_9  and  C_10
REMARK    6  A    between atoms: C_10  and  C_11
REMARK    7  A    between atoms: C_11  and  C_12
REMARK                            x       y       z     vdW  Elec       q    Type
REMARK                         _______ _______ _______ _____ _____    ______ ____
ROOT
ATOM      1  C   UNL     1      47.299   6.975  12.728  0.00  0.00    +0.000 A 
ATOM      2  C   UNL     1      46.924   5.763  13.317  0.00  0.00    +0.000 A 
ATOM      3  C   UNL     1      45.589   5.345  13.301  0.00  0.00    +0.000 A 
ATOM      4  C   UNL     1      44.596   6.139  12.718  0.00  0.00    +0.000 A 
ATOM      5  C   UNL     1      44.995   7.284  12.024  0.00  0.00    +0.000 A 
ATOM      6  C   UNL     1      46.329   7.710  12.037  0.00  0.00    +0.000 A 
ENDROOT
BRANCH   4   7
ATOM      7  N   UNL     1      43.230   5.813  12.725  0.00  0.00    +0.000 N 
ATOM      8  H   UNL     1      42.689   6.656  12.919  0.00  0.00    +0.000 HD
BRANCH   7   9
ATOM      9  C   UNL     1      42.686   5.104  11.553  0.00  0.00    +0.000 C 
BRANCH   9  10
ATOM     10  C   UNL     1      43.198   3.659  11.477  0.00  0.00    +0.000 C 
BRANCH  10  11
ATOM     11  C   UNL     1      44.105   3.422  10.294  0.00  0.00    +0.000 A 
ATOM     12  C   UNL     1      44.593   4.505   9.567  0.00  0.00    +0.000 A 
ATOM     13  C   UNL     1      45.403   4.264   8.461  0.00  0.00    +0.000 A 
ATOM     14  C   UNL     1      45.687   2.952   8.097  0.00  0.00    +0.000 A 
ATOM     15  C   UNL     1      45.139   1.934   8.855  0.00  0.00    +0.000 A 
ATOM     16  N   UNL     1      44.356   2.138   9.936  0.00  0.00    +0.000 NA
ENDBRANCH  10  11
ENDBRANCH   9  10
ENDBRANCH   7   9
ENDBRANCH   4   7
BRANCH   1  17
ATOM     17  C   UNL     1      48.725   7.448  12.806  0.00  0.00    +0.000 C 
BRANCH  17  20
ATOM     18  O   UNL     1      48.879   8.542  15.416  0.00  0.00    +0.000 OA
ATOM     19  C   UNL     1      49.399   7.463  15.176  0.00  0.00    +0.000 C 
ATOM     20  N   UNL     1      49.386   6.862  13.938  0.00  0.00    +0.000 N 
ATOM     21  H   UNL     1      49.611   5.877  13.882  0.00  0.00    +0.000 HD
BRANCH  19  22
ATOM     22  C   UNL     1      50.028   6.634  16.199  0.00  0.00    +0.000 A 
ATOM     23  C   UNL     1      51.316   6.855  16.652  0.00  0.00    +0.000 A 
ATOM     24  S   UNL     1      51.704   5.895  18.015  0.00  0.00    +0.000 S 
ATOM     25  C   UNL     1      50.193   5.112  17.968  0.00  0.00    +0.000 A 
ATOM     26  N   UNL     1      49.851   4.202  18.903  0.00  0.00    +0.000 NA
ATOM     27  C   UNL     1      48.642   3.636  18.707  0.00  0.00    +0.000 A 
ATOM     28  C   UNL     1      47.808   3.879  17.634  0.00  0.00    +0.000 A 
ATOM     29  C   UNL     1      48.196   4.826  16.695  0.00  0.00    +0.000 A 
ATOM     30  C   UNL     1      49.418   5.518  16.887  0.00  0.00    +0.000 A 
ENDBRANCH  19  22
ENDBRANCH  17  20
ENDBRANCH   1  17
TORSDOF 7
ENDMDL
MODEL 5
REMARK VINA RESULT:    -7.100      3.167      5.526
REMARK INTER + INTRA:         -10.802
REMARK INTER:                  -9.860
REMARK INTRA:                  -0.942
REMARK UNBOUND:                -0.797
REMARK  Name = 
REMARK  7 active torsions:
REMARK  status: ('A' for Active; 'I' for Inactive)
REMARK    1  A    between atoms: C_2  and  C_20
REMARK    2  A    between atoms: N_3  and  C_4
REMARK    3  A    between atoms: C_4  and  C_5
REMARK    4  A    between atoms: C_8  and  N_9
REMARK    5  A    between atoms: N_9  and  C_10
REMARK    6  A    between atoms: C_10  and  C_11
REMARK    7  A    between atoms: C_11  and  C_12
REMARK                            x       y       z     vdW  Elec       q    Type
REMARK                         _______ _______ _______ _____ _____    ______ ____
ROOT
ATOM      1  C   UNL     1      46.779   5.515  13.210  0.00  0.00    +0.000 A 
ATOM      2  C   UNL     1      46.298   4.216  13.405  0.00  0.00    +0.000 A 
ATOM      3  C   UNL     1      45.312   3.687  12.566  0.00  0.00    +0.000 A 
ATOM      4  C   UNL     1      44.768   4.450  11.529  0.00  0.00    +0.000 A 
ATOM      5  C   UNL     1      45.340   5.697  11.261  0.00  0.00    +0.000 A 
ATOM      6  C   UNL     1      46.327   6.234  12.097  0.00  0.00    +0.000 A 
ENDROOT
BRANCH   4   7
ATOM      7  N   UNL     1      43.731   4.007  10.693  0.00  0.00    +0.000 N 
ATOM      8  H   UNL     1      42.997   4.715  10.669  0.00  0.00    +0.000 HD
BRANCH   7   9
ATOM      9  C   UNL     1      44.084   3.580   9.327  0.00  0.00    +0.000 C 
BRANCH   9  10
ATOM     10  C   UNL     1      44.845   2.246   9.329  0.00  0.00    +0.000 C 
BRANCH  10  11
ATOM     11  C   UNL     1      45.887   2.167   8.240  0.00  0.00    +0.000 A 
ATOM     12  C   UNL     1      46.135   3.277   7.435  0.00  0.00    +0.000 A 
ATOM     13  C   UNL     1      47.077   3.174   6.417  0.00  0.00    +0.000 A 
ATOM     14  C   UNL     1      47.732   1.963   6.213  0.00  0.00    +0.000 A 
ATOM     15  C   UNL     1      47.406   0.902   7.037  0.00  0.00    +0.000 A 
ATOM     16  N   UNL     1      46.501   0.975   8.037  0.00  0.00    +0.000 NA
ENDBRANCH  10  11
ENDBRANCH   9  10
ENDBRANCH   7   9
ENDBRANCH   4   7
BRANCH   1  17
ATOM     17  C   UNL     1      47.794   6.101  14.155  0.00  0.00    +0.000 C 
BRANCH  17  20
ATOM     18  O   UNL     1      49.651   7.544  12.573  0.00  0.00    +0.000 OA
ATOM     19  C   UNL     1      48.789   8.143  13.200  0.00  0.00    +0.000 C 
ATOM     20  N   UNL     1      47.855   7.527  14.002  0.00  0.00    +0.000 N 
ATOM     21  H   UNL     1      47.038   8.056  14.277  0.00  0.00    +0.000 HD
BRANCH  19  22
ATOM     22  C   UNL     1      48.589   9.585  13.106  0.00  0.00    +0.000 A 
ATOM     23  C   UNL     1      49.528  10.500  13.551  0.00  0.00    +0.000 A 
ATOM     24  S   UNL     1      49.143  12.104  13.096  0.00  0.00    +0.000 S 
ATOM     25  C   UNL     1      47.681  11.614  12.375  0.00  0.00    +0.000 A 
ATOM     26  N   UNL     1      46.885  12.499  11.742  0.00  0.00    +0.000 NA
ATOM     27  C   UNL     1      45.741  11.969  11.262  0.00  0.00    +0.000 A 
ATOM     28  C   UNL     1      45.336  10.659  11.422  0.00  0.00    +0.000 A 
ATOM     29  C   UNL     1      46.186   9.778  12.077  0.00  0.00    +0.000 A 
ATOM     30  C   UNL     1      47.441  10.253  12.534  0.00  0.00    +0.000 A 
ENDBRANCH  19  22
ENDBRANCH  17  20
ENDBRANCH   1  17
TORSDOF 7
ENDMDL
MODEL 6
REMARK VINA RESULT:    -7.036      3.083      5.374
REMARK INTER + INTRA:         -10.712
REMARK INTER:                 -10.021
REMARK INTRA:                  -0.690
REMARK UNBOUND:                -0.797
REMARK  Name = 
REMARK  7 active torsions:
REMARK  status: ('A' for Active; 'I' for Inactive)
REMARK    1  A    between atoms: C_2  and  C_20
REMARK    2  A    between atoms: N_3  and  C_4
REMARK    3  A    between atoms: C_4  and  C_5
REMARK    4  A    between atoms: C_8  and  N_9
REMARK    5  A    between atoms: N_9  and  C_10
REMARK    6  A    between atoms: C_10  and  C_11
REMARK    7  A    between atoms: C_11  and  C_12
REMARK                            x       y       z     vdW  Elec       q    Type
REMARK                         _______ _______ _______ _____ _____    ______ ____
ROOT
ATOM      1  C   UNL     1      46.925   7.260  13.265  0.00  0.00    +0.000 A 
ATOM      2  C   UNL     1      46.018   8.105  12.616  0.00  0.00    +0.000 A 
ATOM      3  C   UNL     1      45.151   7.604  11.639  0.00  0.00    +0.000 A 
ATOM      4  C   UNL     1      45.186   6.256  11.272  0.00  0.00    +0.000 A 
ATOM      5  C   UNL     1      46.004   5.395  12.011  0.00  0.00    +0.000 A 
ATOM      6  C   UNL     1      46.875   5.889  12.989  0.00  0.00    +0.000 A 
ENDROOT
BRANCH   4   7
ATOM      7  N   UNL     1      44.393   5.700  10.255  0.00  0.00    +0.000 N 
ATOM      8  H   UNL     1      44.531   6.234   9.397  0.00  0.00    +0.000 HD
BRANCH   7   9
ATOM      9  C   UNL     1      44.523   4.255   9.993  0.00  0.00    +0.000 C 
BRANCH   9  10
ATOM     10  C   UNL     1      44.424   3.939   8.494  0.00  0.00    +0.000 C 
BRANCH  10  11
ATOM     11  C   UNL     1      45.566   3.082   8.002  0.00  0.00    +0.000 A 
ATOM     12  C   UNL     1      46.509   3.618   7.129  0.00  0.00    +0.000 A 
ATOM     13  C   UNL     1      47.535   2.802   6.663  0.00  0.00    +0.000 A 
ATOM     14  C   UNL     1      47.582   1.471   7.062  0.00  0.00    +0.000 A 
ATOM     15  C   UNL     1      46.591   1.010   7.907  0.00  0.00    +0.000 A 
ATOM     16  N   UNL     1      45.587   1.780   8.380  0.00  0.00    +0.000 NA
ENDBRANCH  10  11
ENDBRANCH   9  10
ENDBRANCH   7   9
ENDBRANCH   4   7
BRANCH   1  17
ATOM     17  C   UNL     1      47.897   7.818  14.269  0.00  0.00    +0.000 C 
BRANCH  17  20
ATOM     18  O   UNL     1      49.534   8.145  16.560  0.00  0.00    +0.000 OA
ATOM     19  C   UNL     1      49.180   7.026  16.219  0.00  0.00    +0.000 C 
ATOM     20  N   UNL     1      48.396   6.771  15.116  0.00  0.00    +0.000 N 
ATOM     21  H   UNL     1      47.945   5.869  15.049  0.00  0.00    +0.000 HD
BRANCH  19  22
ATOM     22  C   UNL     1      49.471   5.825  16.994  0.00  0.00    +0.000 A 
ATOM     23  C   UNL     1      48.479   4.997  17.489  0.00  0.00    +0.000 A 
ATOM     24  S   UNL     1      49.106   3.543  18.140  0.00  0.00    +0.000 S 
ATOM     25  C   UNL     1      50.710   4.034  17.849  0.00  0.00    +0.000 A 
ATOM     26  N   UNL     1      51.748   3.219  18.126  0.00  0.00    +0.000 NA
ATOM     27  C   UNL     1      52.958   3.764  17.883  0.00  0.00    +0.000 A 
ATOM     28  C   UNL     1      53.183   5.055  17.446  0.00  0.00    +0.000 A 
ATOM     29  C   UNL     1      52.086   5.860  17.170  0.00  0.00    +0.000 A 
ATOM     30  C   UNL     1      50.785   5.320  17.326  0.00  0.00    +0.000 A 
ENDBRANCH  19  22
ENDBRANCH  17  20
ENDBRANCH   1  17
TORSDOF 7
ENDMDL
MODEL 7
REMARK VINA RESULT:    -6.747      4.082      7.334
REMARK INTER + INTRA:         -10.305
REMARK INTER:                  -9.475
REMARK INTRA:                  -0.830
REMARK UNBOUND:                -0.797
REMARK  Name = 
REMARK  7 active torsions:
REMARK  status: ('A' for Active; 'I' for Inactive)
REMARK    1  A    between atoms: C_2  and  C_20
REMARK    2  A    between atoms: N_3  and  C_4
REMARK    3  A    between atoms: C_4  and  C_5
REMARK    4  A    between atoms: C_8  and  N_9
REMARK    5  A    between atoms: N_9  and  C_10
REMARK    6  A    between atoms: C_10  and  C_11
REMARK    7  A    between atoms: C_11  and  C_12
REMARK                            x       y       z     vdW  Elec       q    Type
REMARK                         _______ _______ _______ _____ _____    ______ ____
ROOT
ATOM      1  C   UNL     1      47.572   4.064  15.895  0.00  0.00    +0.000 A 
ATOM      2  C   UNL     1      47.027   3.523  14.725  0.00  0.00    +0.000 A 
ATOM      3  C   UNL     1      46.854   4.316  13.586  0.00  0.00    +0.000 A 
ATOM      4  C   UNL     1      47.198   5.671  13.597  0.00  0.00    +0.000 A 
ATOM      5  C   UNL     1      47.857   6.172  14.723  0.00  0.00    +0.000 A 
ATOM      6  C   UNL     1      48.033   5.385  15.868  0.00  0.00    +0.000 A 
ENDROOT
BRANCH   4   7
ATOM      7  N   UNL     1      46.990   6.539  12.513  0.00  0.00    +0.000 N 
ATOM      8  H   UNL     1      47.754   6.430  11.847  0.00  0.00    +0.000 HD
BRANCH   7   9
ATOM      9  C   UNL     1      45.688   6.479  11.824  0.00  0.00    +0.000 C 
BRANCH   9  10
ATOM     10  C   UNL     1      45.857   6.341  10.304  0.00  0.00    +0.000 C 
BRANCH  10  11
ATOM     11  C   UNL     1      45.376   5.009   9.783  0.00  0.00    +0.000 A 
ATOM     12  C   UNL     1      44.708   4.132  10.633  0.00  0.00    +0.000 A 
ATOM     13  C   UNL     1      44.300   2.895  10.140  0.00  0.00    +0.000 A 
ATOM     14  C   UNL     1      44.588   2.559   8.822  0.00  0.00    +0.000 A 
ATOM     15  C   UNL     1      45.282   3.475   8.053  0.00  0.00    +0.000 A 
ATOM     16  N   UNL     1      45.684   4.683   8.503  0.00  0.00    +0.000 NA
ENDBRANCH  10  11
ENDBRANCH   9  10
ENDBRANCH   7   9
ENDBRANCH   4   7
BRANCH   1  17
ATOM     17  C   UNL     1      47.697   3.221  17.136  0.00  0.00    +0.000 C 
BRANCH  17  20
ATOM     18  O   UNL     1      49.965   1.829  16.159  0.00  0.00    +0.000 OA
ATOM     19  C   UNL     1      50.079   2.588  17.110  0.00  0.00    +0.000 C 
ATOM     20  N   UNL     1      49.032   3.295  17.658  0.00  0.00    +0.000 N 
ATOM     21  H   UNL     1      49.248   4.076  18.264  0.00  0.00    +0.000 HD
BRANCH  19  22
ATOM     22  C   UNL     1      51.361   2.906  17.730  0.00  0.00    +0.000 A 
ATOM     23  C   UNL     1      51.640   4.150  18.269  0.00  0.00    +0.000 A 
ATOM     24  S   UNL     1      53.113   4.168  19.141  0.00  0.00    +0.000 S 
ATOM     25  C   UNL     1      53.439   2.545  18.742  0.00  0.00    +0.000 A 
ATOM     26  N   UNL     1      54.530   1.916  19.222  0.00  0.00    +0.000 NA
ATOM     27  C   UNL     1      54.675   0.648  18.782  0.00  0.00    +0.000 A 
ATOM     28  C   UNL     1      53.849   0.015  17.875  0.00  0.00    +0.000 A 
ATOM     29  C   UNL     1      52.733   0.698  17.407  0.00  0.00    +0.000 A 
ATOM     30  C   UNL     1      52.478   2.004  17.894  0.00  0.00    +0.000 A 
ENDBRANCH  19  22
ENDBRANCH  17  20
ENDBRANCH   1  17
TORSDOF 7
ENDMDL
MODEL 8
REMARK VINA RESULT:    -6.735      4.092      9.908
REMARK INTER + INTRA:         -10.288
REMARK INTER:                  -9.150
REMARK INTRA:                  -1.138
REMARK UNBOUND:                -0.797
REMARK  Name = 
REMARK  7 active torsions:
REMARK  status: ('A' for Active; 'I' for Inactive)
REMARK    1  A    between atoms: C_2  and  C_20
REMARK    2  A    between atoms: N_3  and  C_4
REMARK    3  A    between atoms: C_4  and  C_5
REMARK    4  A    between atoms: C_8  and  N_9
REMARK    5  A    between atoms: N_9  and  C_10
REMARK    6  A    between atoms: C_10  and  C_11
REMARK    7  A    between atoms: C_11  and  C_12
REMARK                            x       y       z     vdW  Elec       q    Type
REMARK                         _______ _______ _______ _____ _____    ______ ____
ROOT
ATOM      1  C   UNL     1      48.030   8.400  14.281  0.00  0.00    +0.000 A 
ATOM      2  C   UNL     1      48.190   8.949  15.558  0.00  0.00    +0.000 A 
ATOM      3  C   UNL     1      49.358   8.720  16.292  0.00  0.00    +0.000 A 
ATOM      4  C   UNL     1      50.382   7.919  15.777  0.00  0.00    +0.000 A 
ATOM      5  C   UNL     1      50.271   7.480  14.455  0.00  0.00    +0.000 A 
ATOM      6  C   UNL     1      49.104   7.704  13.715  0.00  0.00    +0.000 A 
ENDROOT
BRANCH   4   7
ATOM      7  N   UNL     1      51.551   7.593  16.484  0.00  0.00    +0.000 N 
ATOM      8  H   UNL     1      51.620   8.193  17.307  0.00  0.00    +0.000 HD
BRANCH   7   9
ATOM      9  C   UNL     1      51.761   6.181  16.852  0.00  0.00    +0.000 C 
BRANCH   9  10
ATOM     10  C   UNL     1      50.759   5.718  17.919  0.00  0.00    +0.000 C 
BRANCH  10  11
ATOM     11  C   UNL     1      49.816   4.655  17.412  0.00  0.00    +0.000 A 
ATOM     12  C   UNL     1      50.162   3.310  17.524  0.00  0.00    +0.000 A 
ATOM     13  C   UNL     1      49.292   2.347  17.021  0.00  0.00    +0.000 A 
ATOM     14  C   UNL     1      48.113   2.749  16.404  0.00  0.00    +0.000 A 
ATOM     15  C   UNL     1      47.858   4.104  16.309  0.00  0.00    +0.000 A 
ATOM     16  N   UNL     1      48.680   5.061  16.792  0.00  0.00    +0.000 NA
ENDBRANCH  10  11
ENDBRANCH   9  10
ENDBRANCH   7   9
ENDBRANCH   4   7
BRANCH   1  17
ATOM     17  C   UNL     1      46.744   8.598  13.525  0.00  0.00    +0.000 C 
BRANCH  17  20
ATOM     18  O   UNL     1      44.786   8.087  11.540  0.00  0.00    +0.000 OA
ATOM     19  C   UNL     1      45.195   7.174  12.242  0.00  0.00    +0.000 C 
ATOM     20  N   UNL     1      46.134   7.331  13.236  0.00  0.00    +0.000 N 
ATOM     21  H   UNL     1      46.596   6.505  13.592  0.00  0.00    +0.000 HD
BRANCH  19  22
ATOM     22  C   UNL     1      44.801   5.782  12.053  0.00  0.00    +0.000 A 
ATOM     23  C   UNL     1      44.189   5.038  13.046  0.00  0.00    +0.000 A 
ATOM     24  S   UNL     1      43.619   3.528  12.475  0.00  0.00    +0.000 S 
ATOM     25  C   UNL     1      44.254   3.809  10.920  0.00  0.00    +0.000 A 
ATOM     26  N   UNL     1      44.066   2.923   9.922  0.00  0.00    +0.000 NA
ATOM     27  C   UNL     1      44.666   3.263   8.762  0.00  0.00    +0.000 A 
ATOM     28  C   UNL     1      45.463   4.373   8.567  0.00  0.00    +0.000 A 
ATOM     29  C   UNL     1      45.628   5.263   9.621  0.00  0.00    +0.000 A 
ATOM     30  C   UNL     1      44.957   5.006  10.842  0.00  0.00    +0.000 A 
ENDBRANCH  19  22
ENDBRANCH  17  20
ENDBRANCH   1  17
TORSDOF 7
ENDMDL
MODEL 9
REMARK VINA RESULT:    -6.730      5.476      8.040
REMARK INTER + INTRA:         -10.280
REMARK INTER:                  -9.417
REMARK INTRA:                  -0.864
REMARK UNBOUND:                -0.797
REMARK  Name = 
REMARK  7 active torsions:
REMARK  status: ('A' for Active; 'I' for Inactive)
REMARK    1  A    between atoms: C_2  and  C_20
REMARK    2  A    between atoms: N_3  and  C_4
REMARK    3  A    between atoms: C_4  and  C_5
REMARK    4  A    between atoms: C_8  and  N_9
REMARK    5  A    between atoms: N_9  and  C_10
REMARK    6  A    between atoms: C_10  and  C_11
REMARK    7  A    between atoms: C_11  and  C_12
REMARK                            x       y       z     vdW  Elec       q    Type
REMARK                         _______ _______ _______ _____ _____    ______ ____
ROOT
ATOM      1  C   UNL     1      47.751   4.413  16.239  0.00  0.00    +0.000 A 
ATOM      2  C   UNL     1      47.036   4.079  15.083  0.00  0.00    +0.000 A 
ATOM      3  C   UNL     1      46.957   4.973  14.010  0.00  0.00    +0.000 A 
ATOM      4  C   UNL     1      47.568   6.228  14.076  0.00  0.00    +0.000 A 
ATOM      5  C   UNL     1      48.383   6.505  15.178  0.00  0.00    +0.000 A 
ATOM      6  C   UNL     1      48.467   5.616  16.256  0.00  0.00    +0.000 A 
ENDROOT
BRANCH   4   7
ATOM      7  N   UNL     1      47.473   7.199  13.066  0.00  0.00    +0.000 N 
ATOM      8  H   UNL     1      48.026   6.899  12.263  0.00  0.00    +0.000 HD
BRANCH   7   9
ATOM      9  C   UNL     1      46.126   7.618  12.640  0.00  0.00    +0.000 C 
BRANCH   9  10
ATOM     10  C   UNL     1      45.723   6.966  11.310  0.00  0.00    +0.000 C 
BRANCH  10  11
ATOM     11  C   UNL     1      44.882   5.727  11.499  0.00  0.00    +0.000 A 
ATOM     12  C   UNL     1      45.014   4.657  10.617  0.00  0.00    +0.000 A 
ATOM     13  C   UNL     1      44.207   3.537  10.790  0.00  0.00    +0.000 A 
ATOM     14  C   UNL     1      43.277   3.520  11.824  0.00  0.00    +0.000 A 
ATOM     15  C   UNL     1      43.188   4.635  12.637  0.00  0.00    +0.000 A 
ATOM     16  N   UNL     1      43.962   5.733  12.496  0.00  0.00    +0.000 NA
ENDBRANCH  10  11
ENDBRANCH   9  10
ENDBRANCH   7   9
ENDBRANCH   4   7
BRANCH   1  17
ATOM     17  C   UNL     1      47.779   3.474  17.414  0.00  0.00    +0.000 C 
BRANCH  17  20
ATOM     18  O   UNL     1      49.454   1.659  16.023  0.00  0.00    +0.000 OA
ATOM     19  C   UNL     1      49.877   2.246  17.007  0.00  0.00    +0.000 C 
ATOM     20  N   UNL     1      49.133   3.135  17.751  0.00  0.00    +0.000 N 
ATOM     21  H   UNL     1      49.621   3.756  18.381  0.00  0.00    +0.000 HD
BRANCH  19  22
ATOM     22  C   UNL     1      51.258   2.144  17.467  0.00  0.00    +0.000 A 
ATOM     23  C   UNL     1      51.890   0.930  17.668  0.00  0.00    +0.000 A 
ATOM     24  S   UNL     1      53.566   1.107  17.968  0.00  0.00    +0.000 S 
ATOM     25  C   UNL     1      53.456   2.805  17.917  0.00  0.00    +0.000 A 
ATOM     26  N   UNL     1      54.554   3.578  18.045  0.00  0.00    +0.000 NA
ATOM     27  C   UNL     1      54.302   4.903  18.029  0.00  0.00    +0.000 A 
ATOM     28  C   UNL     1      53.050   5.480  17.952  0.00  0.00    +0.000 A 
ATOM     29  C   UNL     1      51.945   4.649  17.818  0.00  0.00    +0.000 A 
ATOM     30  C   UNL     1      52.149   3.248  17.745  0.00  0.00    +0.000 A 
ENDBRANCH  19  22
ENDBRANCH  17  20
ENDBRANCH   1  17
TORSDOF 7
ENDMDL
