MODEL 1
REMARK VINA RESULT:    -7.071      0.000      0.000
REMARK INTER + INTRA:         -12.809
REMARK INTER:                 -11.618
REMARK INTRA:                  -1.191
REMARK UNBOUND:                -1.191
REMARK  Name = 
REMARK  14 active torsions:
REMARK  status: ('A' for Active; 'I' for Inactive)
REMARK    1  A    between atoms: C_1  and  O_2
REMARK    2  A    between atoms: O_2  and  C_3
REMARK    3  A    between atoms: C_3  and  C_4
REMARK    4  A    between atoms: C_4  and  N_5
REMARK    5  A    between atoms: C_4  and  C_22
REMARK    6  A    between atoms: N_5  and  C_6
REMARK    7  A    between atoms: C_6  and  C_7
REMARK    8  A    between atoms: C_10  and  C_11
REMARK    9  A    between atoms: C_11  and  N_12
REMARK   10  A    between atoms: N_12  and  C_13
REMARK   11  A    between atoms: C_13  and  C_14
REMARK   12  A    between atoms: C_25  and  C_26
REMARK   13  A    between atoms: N_28  and  C_29
REMARK   14  A    between atoms: N_28  and  C_30
REMARK                            x       y       z     vdW  Elec       q    Type
REMARK                         _______ _______ _______ _____ _____    ______ ____
ROOT
ATOM      1  N   UNL     1      45.079   6.801  10.867  0.00  0.00    +0.000 NA
ATOM      2  H   UNL     1      46.068   6.740  10.615  0.00  0.00    +0.000 HD
ENDROOT
BRANCH   1   3
ATOM      3  C   UNL     1      44.559   5.420  10.960  0.00  0.00    +0.000 C 
BRANCH   3   4
ATOM      4  C   UNL     1      45.072   4.637   9.739  0.00  0.00    +0.000 A 
ATOM      5  C   UNL     1      44.532   3.382   9.443  0.00  0.00    +0.000 A 
ATOM      6  C   UNL     1      44.974   2.676   8.325  0.00  0.00    +0.000 A 
ATOM      7  C   UNL     1      45.992   3.204   7.544  0.00  0.00    +0.000 A 
ATOM      8  C   UNL     1      46.435   4.487   7.869  0.00  0.00    +0.000 A 
ATOM      9  N   UNL     1      46.000   5.215   8.937  0.00  0.00    +0.000 NA
BRANCH   7  10
ATOM     10  C   UNL     1      46.562   2.559   6.328  0.00  0.00    +0.000 C 
ATOM     11  O   UNL     1      46.656   3.286   5.341  0.00  0.00    +0.000 OA
ATOM     12  N   UNL     1      46.982   1.224   6.290  0.00  0.00    +0.000 N 
ATOM     13  C   UNL     1      47.040   0.259   7.379  0.00  0.00    +0.000 C 
ATOM     14  C   UNL     1      47.490   0.718   5.019  0.00  0.00    +0.000 C 
ENDBRANCH   7  10
ENDBRANCH   3   4
BRANCH   3  15
ATOM     15  C   UNL     1      43.010   5.322  11.015  0.00  0.00    +0.000 C 
BRANCH  15  17
ATOM     16  C   UNL     1      43.641   4.265  13.046  0.00  0.00    +0.000 C 
ATOM     17  O   UNL     1      42.580   4.824  12.286  0.00  0.00    +0.000 OA
ENDBRANCH  15  17
ENDBRANCH   3  15
ENDBRANCH   1   3
BRANCH   1  18
ATOM     18  C   UNL     1      44.958   7.622  12.063  0.00  0.00    +0.000 C 
BRANCH  18  19
ATOM     19  C   UNL     1      46.321   7.749  12.715  0.00  0.00    +0.000 A 
ATOM     20  C   UNL     1      47.255   6.709  12.597  0.00  0.00    +0.000 A 
ATOM     21  C   UNL     1      48.488   6.779  13.249  0.00  0.00    +0.000 A 
ATOM     22  C   UNL     1      48.822   7.897  14.025  0.00  0.00    +0.000 A 
ATOM     23  C   UNL     1      47.904   8.952  14.115  0.00  0.00    +0.000 A 
ATOM     24  C   UNL     1      46.665   8.879  13.467  0.00  0.00    +0.000 A 
BRANCH  22  25
ATOM     25  C   UNL     1      50.140   7.944  14.764  0.00  0.00    +0.000 C 
BRANCH  25  26
ATOM     26  N   UNL     1      50.491   6.620  15.265  0.00  0.00    +0.000 NA
ATOM     27  H   UNL     1      51.499   6.491  15.178  0.00  0.00    +0.000 HD
BRANCH  26  28
ATOM     28  C   UNL     1      50.128   6.456  16.676  0.00  0.00    +0.000 C 
BRANCH  28  29
ATOM     29  C   UNL     1      49.372   5.157  16.890  0.00  0.00    +0.000 A 
ATOM     30  C   UNL     1      47.999   5.107  16.649  0.00  0.00    +0.000 A 
ATOM     31  C   UNL     1      47.335   3.893  16.778  0.00  0.00    +0.000 A 
ATOM     32  C   UNL     1      48.055   2.765  17.153  0.00  0.00    +0.000 A 
ATOM     33  C   UNL     1      49.413   2.900  17.384  0.00  0.00    +0.000 A 
ATOM     34  N   UNL     1      50.088   4.064  17.259  0.00  0.00    +0.000 NA
ENDBRANCH  28  29
ENDBRANCH  26  28
ENDBRANCH  25  26
ENDBRANCH  22  25
ENDBRANCH  18  19
ENDBRANCH   1  18
TORSDOF 11
ENDMDL
MODEL 2
REMARK VINA RESULT:    -7.066      3.444      9.500
REMARK INTER + INTRA:         -12.800
REMARK INTER:                 -12.267
REMARK INTRA:                  -0.533
REMARK UNBOUND:                -1.191
REMARK  Name = 
REMARK  14 active torsions:
REMARK  status: ('A' for Active; 'I' for Inactive)
REMARK    1  A    between atoms: C_1  and  O_2
REMARK    2  A    between atoms: O_2  and  C_3
REMARK    3  A    between atoms: C_3  and  C_4
REMARK    4  A    between atoms: C_4  and  N_5
REMARK    5  A    between atoms: C_4  and  C_22
REMARK    6  A    between atoms: N_5  and  C_6
REMARK    7  A    between atoms: C_6  and  C_7
REMARK    8  A    between atoms: C_10  and  C_11
REMARK    9  A    between atoms: C_11  and  N_12
REMARK   10  A    between atoms: N_12  and  C_13
REMARK   11  A    between atoms: C_13  and  C_14
REMARK   12  A    between atoms: C_25  and  C_26
REMARK   13  A    between atoms: N_28  and  C_29
REMARK   14  A    between atoms: N_28  and  C_30
REMARK                            x       y       z     vdW  Elec       q    Type
REMARK                         _______ _______ _______ _____ _____    ______ ____
ROOT
ATOM      1  N   UNL     1      47.408   4.993  15.881  0.00  0.00    +0.000 NA
ATOM      2  H   UNL     1      47.504   3.978  15.799  0.00  0.00    +0.000 HD
ENDROOT
BRANCH   1   3
ATOM      3  C   UNL     1      48.124   5.408  17.105  0.00  0.00    +0.000 C 
BRANCH   3   4
ATOM      4  C   UNL     1      49.320   4.461  17.299  0.00  0.00    +0.000 A 
ATOM      5  C   UNL     1      50.536   4.966  17.769  0.00  0.00    +0.000 A 
ATOM      6  C   UNL     1      51.618   4.110  17.971  0.00  0.00    +0.000 A 
ATOM      7  C   UNL     1      51.494   2.766  17.647  0.00  0.00    +0.000 A 
ATOM      8  C   UNL     1      50.233   2.330  17.242  0.00  0.00    +0.000 A 
ATOM      9  N   UNL     1      49.147   3.137  17.066  0.00  0.00    +0.000 NA
BRANCH   7  10
ATOM     10  C   UNL     1      52.566   1.744  17.808  0.00  0.00    +0.000 C 
ATOM     11  O   UNL     1      52.466   0.758  17.081  0.00  0.00    +0.000 OA
ATOM     12  N   UNL     1      53.632   1.881  18.705  0.00  0.00    +0.000 N 
ATOM     13  C   UNL     1      53.963   3.015  19.557  0.00  0.00    +0.000 C 
ATOM     14  C   UNL     1      54.591   0.783  18.778  0.00  0.00    +0.000 C 
ENDBRANCH   7  10
ENDBRANCH   3   4
BRANCH   3  15
ATOM     15  C   UNL     1      47.252   5.400  18.391  0.00  0.00    +0.000 C 
BRANCH  15  17
ATOM     16  C   UNL     1      47.589   6.267  20.577  0.00  0.00    +0.000 C 
ATOM     17  O   UNL     1      47.517   6.559  19.189  0.00  0.00    +0.000 OA
ENDBRANCH  15  17
ENDBRANCH   3  15
ENDBRANCH   1   3
BRANCH   1  18
ATOM     18  C   UNL     1      47.849   5.599  14.633  0.00  0.00    +0.000 C 
BRANCH  18  19
ATOM     19  C   UNL     1      46.730   5.505  13.614  0.00  0.00    +0.000 A 
ATOM     20  C   UNL     1      45.664   4.616  13.823  0.00  0.00    +0.000 A 
ATOM     21  C   UNL     1      44.661   4.465  12.863  0.00  0.00    +0.000 A 
ATOM     22  C   UNL     1      44.693   5.208  11.676  0.00  0.00    +0.000 A 
ATOM     23  C   UNL     1      45.738   6.122  11.481  0.00  0.00    +0.000 A 
ATOM     24  C   UNL     1      46.747   6.268  12.440  0.00  0.00    +0.000 A 
BRANCH  22  25
ATOM     25  C   UNL     1      43.628   5.006  10.622  0.00  0.00    +0.000 C 
BRANCH  25  26
ATOM     26  N   UNL     1      44.218   4.470   9.400  0.00  0.00    +0.000 NA
ATOM     27  H   UNL     1      45.124   4.913   9.249  0.00  0.00    +0.000 HD
BRANCH  26  28
ATOM     28  C   UNL     1      44.424   3.021   9.482  0.00  0.00    +0.000 C 
BRANCH  28  29
ATOM     29  C   UNL     1      45.483   2.571   8.494  0.00  0.00    +0.000 A 
ATOM     30  C   UNL     1      46.046   3.495   7.613  0.00  0.00    +0.000 A 
ATOM     31  C   UNL     1      47.068   3.083   6.765  0.00  0.00    +0.000 A 
ATOM     32  C   UNL     1      47.494   1.761   6.810  0.00  0.00    +0.000 A 
ATOM     33  C   UNL     1      46.876   0.903   7.705  0.00  0.00    +0.000 A 
ATOM     34  N   UNL     1      45.887   1.276   8.547  0.00  0.00    +0.000 NA
ENDBRANCH  28  29
ENDBRANCH  26  28
ENDBRANCH  25  26
ENDBRANCH  22  25
ENDBRANCH  18  19
ENDBRANCH   1  18
TORSDOF 11
ENDMDL
MODEL 3
REMARK VINA RESULT:    -7.024      3.080      9.718
REMARK INTER + INTRA:         -12.732
REMARK INTER:                 -11.273
REMARK INTRA:                  -1.458
REMARK UNBOUND:                -1.191
REMARK  Name = 
REMARK  14 active torsions:
REMARK  status: ('A' for Active; 'I' for Inactive)
REMARK    1  A    between atoms: C_1  and  O_2
REMARK    2  A    between atoms: O_2  and  C_3
REMARK    3  A    between atoms: C_3  and  C_4
REMARK    4  A    between atoms: C_4  and  N_5
REMARK    5  A    between atoms: C_4  and  C_22
REMARK    6  A    between atoms: N_5  and  C_6
REMARK    7  A    between atoms: C_6  and  C_7
REMARK    8  A    between atoms: C_10  and  C_11
REMARK    9  A    between atoms: C_11  and  N_12
REMARK   10  A    between atoms: N_12  and  C_13
REMARK   11  A    between atoms: C_13  and  C_14
REMARK   12  A    between atoms: C_25  and  C_26
REMARK   13  A    between atoms: N_28  and  C_29
REMARK   14  A    between atoms: N_28  and  C_30
REMARK                            x       y       z     vdW  Elec       q    Type
REMARK                         _______ _______ _______ _____ _____    ______ ____
ROOT
ATOM      1  N   UNL     1      49.093   6.625  13.230  0.00  0.00    +0.000 NA
ATOM      2  H   UNL     1      49.643   6.529  12.373  0.00  0.00    +0.000 HD
ENDROOT
BRANCH   1   3
ATOM      3  C   UNL     1      49.943   7.307  14.228  0.00  0.00    +0.000 C 
BRANCH   3   4
ATOM      4  C   UNL     1      49.397   6.970  15.626  0.00  0.00    +0.000 A 
ATOM      5  C   UNL     1      49.019   8.001  16.491  0.00  0.00    +0.000 A 
ATOM      6  C   UNL     1      48.500   7.703  17.750  0.00  0.00    +0.000 A 
ATOM      7  C   UNL     1      48.416   6.379  18.158  0.00  0.00    +0.000 A 
ATOM      8  C   UNL     1      48.756   5.408  17.216  0.00  0.00    +0.000 A 
ATOM      9  N   UNL     1      49.236   5.667  15.966  0.00  0.00    +0.000 NA
BRANCH   7  10
ATOM     10  C   UNL     1      47.888   5.919  19.473  0.00  0.00    +0.000 C 
ATOM     11  O   UNL     1      46.673   5.736  19.516  0.00  0.00    +0.000 OA
ATOM     12  N   UNL     1      48.699   5.690  20.590  0.00  0.00    +0.000 N 
ATOM     13  C   UNL     1      50.150   5.755  20.688  0.00  0.00    +0.000 C 
ATOM     14  C   UNL     1      48.038   5.273  21.822  0.00  0.00    +0.000 C 
ENDBRANCH   7  10
ENDBRANCH   3   4
BRANCH   3  15
ATOM     15  C   UNL     1      50.009   8.851  14.065  0.00  0.00    +0.000 C 
BRANCH  15  17
ATOM     16  C   UNL     1      52.196   9.303  14.871  0.00  0.00    +0.000 C 
ATOM     17  O   UNL     1      51.338   9.269  13.740  0.00  0.00    +0.000 OA
ENDBRANCH  15  17
ENDBRANCH   3  15
ENDBRANCH   1   3
BRANCH   1  18
ATOM     18  C   UNL     1      47.833   7.274  12.897  0.00  0.00    +0.000 C 
BRANCH  18  19
ATOM     19  C   UNL     1      46.840   6.223  12.440  0.00  0.00    +0.000 A 
ATOM     20  C   UNL     1      46.236   6.330  11.178  0.00  0.00    +0.000 A 
ATOM     21  C   UNL     1      45.267   5.411  10.770  0.00  0.00    +0.000 A 
ATOM     22  C   UNL     1      44.889   4.354  11.607  0.00  0.00    +0.000 A 
ATOM     23  C   UNL     1      45.517   4.225  12.854  0.00  0.00    +0.000 A 
ATOM     24  C   UNL     1      46.483   5.151  13.267  0.00  0.00    +0.000 A 
BRANCH  22  25
ATOM     25  C   UNL     1      43.808   3.389  11.176  0.00  0.00    +0.000 C 
BRANCH  25  26
ATOM     26  N   UNL     1      43.886   3.147   9.740  0.00  0.00    +0.000 NA
ATOM     27  H   UNL     1      44.415   3.903   9.306  0.00  0.00    +0.000 HD
BRANCH  26  28
ATOM     28  C   UNL     1      44.561   1.882   9.436  0.00  0.00    +0.000 C 
BRANCH  28  29
ATOM     29  C   UNL     1      45.627   2.082   8.375  0.00  0.00    +0.000 A 
ATOM     30  C   UNL     1      45.784   3.333   7.778  0.00  0.00    +0.000 A 
ATOM     31  C   UNL     1      46.814   3.520   6.862  0.00  0.00    +0.000 A 
ATOM     32  C   UNL     1      47.652   2.454   6.561  0.00  0.00    +0.000 A 
ATOM     33  C   UNL     1      47.424   1.241   7.189  0.00  0.00    +0.000 A 
ATOM     34  N   UNL     1      46.437   1.031   8.088  0.00  0.00    +0.000 NA
ENDBRANCH  28  29
ENDBRANCH  26  28
ENDBRANCH  25  26
ENDBRANCH  22  25
ENDBRANCH  18  19
ENDBRANCH   1  18
TORSDOF 11
ENDMDL
MODEL 4
REMARK VINA RESULT:    -6.358      3.253      9.461
REMARK INTER + INTRA:         -11.638
REMARK INTER:                 -10.486
REMARK INTRA:                  -1.153
REMARK UNBOUND:                -1.191
REMARK  Name = 
REMARK  14 active torsions:
REMARK  status: ('A' for Active; 'I' for Inactive)
REMARK    1  A    between atoms: C_1  and  O_2
REMARK    2  A    between atoms: O_2  and  C_3
REMARK    3  A    between atoms: C_3  and  C_4
REMARK    4  A    between atoms: C_4  and  N_5
REMARK    5  A    between atoms: C_4  and  C_22
REMARK    6  A    between atoms: N_5  and  C_6
REMARK    7  A    between atoms: C_6  and  C_7
REMARK    8  A    between atoms: C_10  and  C_11
REMARK    9  A    between atoms: C_11  and  N_12
REMARK   10  A    between atoms: N_12  and  C_13
REMARK   11  A    between atoms: C_13  and  C_14
REMARK   12  A    between atoms: C_25  and  C_26
REMARK   13  A    between atoms: N_28  and  C_29
REMARK   14  A    between atoms: N_28  and  C_30
REMARK                            x       y       z     vdW  Elec       q    Type
REMARK                         _______ _______ _______ _____ _____    ______ ____
ROOT
ATOM      1  N   UNL     1      47.083   8.590  13.956  0.00  0.00    +0.000 NA
ATOM      2  H   UNL     1      46.891   7.703  14.426  0.00  0.00    +0.000 HD
ENDROOT
BRANCH   1   3
ATOM      3  C   UNL     1      48.529   8.864  14.102  0.00  0.00    +0.000 C 
BRANCH   3   4
ATOM      4  C   UNL     1      49.007   8.202  15.405  0.00  0.00    +0.000 A 
ATOM      5  C   UNL     1      49.947   7.168  15.353  0.00  0.00    +0.000 A 
ATOM      6  C   UNL     1      50.405   6.578  16.530  0.00  0.00    +0.000 A 
ATOM      7  C   UNL     1      49.877   6.986  17.748  0.00  0.00    +0.000 A 
ATOM      8  C   UNL     1      48.991   8.063  17.720  0.00  0.00    +0.000 A 
ATOM      9  N   UNL     1      48.549   8.681  16.587  0.00  0.00    +0.000 NA
BRANCH   7  10
ATOM     10  C   UNL     1      50.270   6.442  19.078  0.00  0.00    +0.000 C 
ATOM     11  O   UNL     1      51.253   6.971  19.593  0.00  0.00    +0.000 OA
ATOM     12  N   UNL     1      49.577   5.411  19.723  0.00  0.00    +0.000 N 
ATOM     13  C   UNL     1      48.347   4.748  19.313  0.00  0.00    +0.000 C 
ATOM     14  C   UNL     1      50.097   4.957  21.008  0.00  0.00    +0.000 C 
ENDBRANCH   7  10
ENDBRANCH   3   4
BRANCH   3  15
ATOM     15  C   UNL     1      48.894  10.374  14.133  0.00  0.00    +0.000 C 
BRANCH  15  17
ATOM     16  C   UNL     1      50.126   9.606  12.254  0.00  0.00    +0.000 C 
ATOM     17  O   UNL     1      49.654  10.734  12.975  0.00  0.00    +0.000 OA
ENDBRANCH  15  17
ENDBRANCH   3  15
ENDBRANCH   1   3
BRANCH   1  18
ATOM     18  C   UNL     1      46.572   8.510  12.595  0.00  0.00    +0.000 C 
BRANCH  18  19
ATOM     19  C   UNL     1      45.873   7.177  12.407  0.00  0.00    +0.000 A 
ATOM     20  C   UNL     1      46.455   6.003  12.909  0.00  0.00    +0.000 A 
ATOM     21  C   UNL     1      45.861   4.759  12.684  0.00  0.00    +0.000 A 
ATOM     22  C   UNL     1      44.663   4.661  11.964  0.00  0.00    +0.000 A 
ATOM     23  C   UNL     1      44.062   5.836  11.493  0.00  0.00    +0.000 A 
ATOM     24  C   UNL     1      44.662   7.082  11.712  0.00  0.00    +0.000 A 
BRANCH  22  25
ATOM     25  C   UNL     1      44.050   3.307  11.687  0.00  0.00    +0.000 C 
BRANCH  25  26
ATOM     26  N   UNL     1      44.876   2.557  10.747  0.00  0.00    +0.000 NA
ATOM     27  H   UNL     1      44.804   1.563  10.964  0.00  0.00    +0.000 HD
BRANCH  26  28
ATOM     28  C   UNL     1      44.444   2.756   9.360  0.00  0.00    +0.000 C 
BRANCH  28  29
ATOM     29  C   UNL     1      45.572   2.442   8.394  0.00  0.00    +0.000 A 
ATOM     30  C   UNL     1      46.115   3.460   7.610  0.00  0.00    +0.000 A 
ATOM     31  C   UNL     1      47.197   3.172   6.785  0.00  0.00    +0.000 A 
ATOM     32  C   UNL     1      47.700   1.877   6.756  0.00  0.00    +0.000 A 
ATOM     33  C   UNL     1      47.097   0.921   7.557  0.00  0.00    +0.000 A 
ATOM     34  N   UNL     1      46.051   1.173   8.375  0.00  0.00    +0.000 NA
ENDBRANCH  28  29
ENDBRANCH  26  28
ENDBRANCH  25  26
ENDBRANCH  22  25
ENDBRANCH  18  19
ENDBRANCH   1  18
TORSDOF 11
ENDMDL
MODEL 5
REMARK VINA RESULT:    -6.342      3.518      9.073
REMARK INTER + INTRA:         -11.611
REMARK INTER:                 -10.458
REMARK INTRA:                  -1.153
REMARK UNBOUND:                -1.191
REMARK  Name = 
REMARK  14 active torsions:
REMARK  status: ('A' for Active; 'I' for Inactive)
REMARK    1  A    between atoms: C_1  and  O_2
REMARK    2  A    between atoms: O_2  and  C_3
REMARK    3  A    between atoms: C_3  and  C_4
REMARK    4  A    between atoms: C_4  and  N_5
REMARK    5  A    between atoms: C_4  and  C_22
REMARK    6  A    between atoms: N_5  and  C_6
REMARK    7  A    between atoms: C_6  and  C_7
REMARK    8  A    between atoms: C_10  and  C_11
REMARK    9  A    between atoms: C_11  and  N_12
REMARK   10  A    between atoms: N_12  and  C_13
REMARK   11  A    between atoms: C_13  and  C_14
REMARK   12  A    between atoms: C_25  and  C_26
REMARK   13  A    between atoms: N_28  and  C_29
REMARK   14  A    between atoms: N_28  and  C_30
REMARK                            x       y       z     vdW  Elec       q    Type
REMARK                         _______ _______ _______ _____ _____    ______ ____
ROOT
ATOM      1  N   UNL     1      47.582   8.783  15.661  0.00  0.00    +0.000 NA
ATOM      2  H   UNL     1      47.098   7.924  15.930  0.00  0.00    +0.000 HD
ENDROOT
BRANCH   1   3
ATOM      3  C   UNL     1      48.683   8.991  16.626  0.00  0.00    +0.000 C 
BRANCH   3   4
ATOM      4  C   UNL     1      49.351   7.631  16.884  0.00  0.00    +0.000 A 
ATOM      5  C   UNL     1      50.607   7.359  16.333  0.00  0.00    +0.000 A 
ATOM      6  C   UNL     1      51.231   6.138  16.581  0.00  0.00    +0.000 A 
ATOM      7  C   UNL     1      50.571   5.174  17.331  0.00  0.00    +0.000 A 
ATOM      8  C   UNL     1      49.350   5.544  17.895  0.00  0.00    +0.000 A 
ATOM      9  N   UNL     1      48.729   6.742  17.697  0.00  0.00    +0.000 NA
BRANCH   7  10
ATOM     10  C   UNL     1      51.116   3.829  17.669  0.00  0.00    +0.000 C 
ATOM     11  O   UNL     1      52.147   3.833  18.338  0.00  0.00    +0.000 OA
ATOM     12  N   UNL     1      50.506   2.631  17.278  0.00  0.00    +0.000 N 
ATOM     13  C   UNL     1      49.242   2.440  16.581  0.00  0.00    +0.000 C 
ATOM     14  C   UNL     1      51.172   1.388  17.654  0.00  0.00    +0.000 C 
ENDBRANCH   7  10
ENDBRANCH   3   4
BRANCH   3  15
ATOM     15  C   UNL     1      48.237   9.607  17.982  0.00  0.00    +0.000 C 
BRANCH  15  17
ATOM     16  C   UNL     1      49.019  10.511  20.034  0.00  0.00    +0.000 C 
ATOM     17  O   UNL     1      49.375   9.951  18.779  0.00  0.00    +0.000 OA
ENDBRANCH  15  17
ENDBRANCH   3  15
ENDBRANCH   1   3
BRANCH   1  18
ATOM     18  C   UNL     1      47.959   8.679  14.259  0.00  0.00    +0.000 C 
BRANCH  18  19
ATOM     19  C   UNL     1      47.258   7.484  13.645  0.00  0.00    +0.000 A 
ATOM     20  C   UNL     1      46.110   7.670  12.860  0.00  0.00    +0.000 A 
ATOM     21  C   UNL     1      45.411   6.577  12.345  0.00  0.00    +0.000 A 
ATOM     22  C   UNL     1      45.850   5.269  12.591  0.00  0.00    +0.000 A 
ATOM     23  C   UNL     1      47.017   5.082  13.345  0.00  0.00    +0.000 A 
ATOM     24  C   UNL     1      47.713   6.178  13.868  0.00  0.00    +0.000 A 
BRANCH  22  25
ATOM     25  C   UNL     1      45.063   4.090  12.068  0.00  0.00    +0.000 C 
BRANCH  25  26
ATOM     26  N   UNL     1      44.770   4.263  10.649  0.00  0.00    +0.000 NA
ATOM     27  H   UNL     1      45.591   4.654  10.188  0.00  0.00    +0.000 HD
BRANCH  26  28
ATOM     28  C   UNL     1      44.441   2.990  10.000  0.00  0.00    +0.000 C 
BRANCH  28  29
ATOM     29  C   UNL     1      45.368   2.729   8.827  0.00  0.00    +0.000 A 
ATOM     30  C   UNL     1      45.722   3.778   7.977  0.00  0.00    +0.000 A 
ATOM     31  C   UNL     1      46.629   3.539   6.951  0.00  0.00    +0.000 A 
ATOM     32  C   UNL     1      47.152   2.261   6.795  0.00  0.00    +0.000 A 
ATOM     33  C   UNL     1      46.741   1.272   7.673  0.00  0.00    +0.000 A 
ATOM     34  N   UNL     1      45.868   1.476   8.684  0.00  0.00    +0.000 NA
ENDBRANCH  28  29
ENDBRANCH  26  28
ENDBRANCH  25  26
ENDBRANCH  22  25
ENDBRANCH  18  19
ENDBRANCH   1  18
TORSDOF 11
ENDMDL
MODEL 6
REMARK VINA RESULT:    -6.205      3.513      8.264
REMARK INTER + INTRA:         -11.387
REMARK INTER:                 -10.229
REMARK INTRA:                  -1.158
REMARK UNBOUND:                -1.191
REMARK  Name = 
REMARK  14 active torsions:
REMARK  status: ('A' for Active; 'I' for Inactive)
REMARK    1  A    between atoms: C_1  and  O_2
REMARK    2  A    between atoms: O_2  and  C_3
REMARK    3  A    between atoms: C_3  and  C_4
REMARK    4  A    between atoms: C_4  and  N_5
REMARK    5  A    between atoms: C_4  and  C_22
REMARK    6  A    between atoms: N_5  and  C_6
REMARK    7  A    between atoms: C_6  and  C_7
REMARK    8  A    between atoms: C_10  and  C_11
REMARK    9  A    between atoms: C_11  and  N_12
REMARK   10  A    between atoms: N_12  and  C_13
REMARK   11  A    between atoms: C_13  and  C_14
REMARK   12  A    between atoms: C_25  and  C_26
REMARK   13  A    between atoms: N_28  and  C_29
REMARK   14  A    between atoms: N_28  and  C_30
REMARK                            x       y       z     vdW  Elec       q    Type
REMARK                         _______ _______ _______ _____ _____    ______ ____
ROOT
ATOM      1  N   UNL     1      47.362   7.668  14.012  0.00  0.00    +0.000 NA
ATOM      2  H   UNL     1      47.873   6.951  13.493  0.00  0.00    +0.000 HD
ENDROOT
BRANCH   1   3
ATOM      3  C   UNL     1      48.326   8.731  14.366  0.00  0.00    +0.000 C 
BRANCH   3   4
ATOM      4  C   UNL     1      49.439   8.733  13.305  0.00  0.00    +0.000 A 
ATOM      5  C   UNL     1      49.509   7.696  12.370  0.00  0.00    +0.000 A 
ATOM      6  C   UNL     1      50.500   7.703  11.389  0.00  0.00    +0.000 A 
ATOM      7  C   UNL     1      51.449   8.716  11.386  0.00  0.00    +0.000 A 
ATOM      8  C   UNL     1      51.275   9.745  12.313  0.00  0.00    +0.000 A 
ATOM      9  N   UNL     1      50.298   9.782  13.263  0.00  0.00    +0.000 NA
BRANCH   7  10
ATOM     10  C   UNL     1      52.561   8.845  10.403  0.00  0.00    +0.000 C 
ATOM     11  O   UNL     1      52.311   9.530   9.413  0.00  0.00    +0.000 OA
ATOM     12  N   UNL     1      53.816   8.251  10.579  0.00  0.00    +0.000 N 
ATOM     13  C   UNL     1      54.315   7.503  11.724  0.00  0.00    +0.000 C 
ATOM     14  C   UNL     1      54.799   8.436   9.516  0.00  0.00    +0.000 C 
ENDBRANCH   7  10
ENDBRANCH   3   4
BRANCH   3  15
ATOM     15  C   UNL     1      48.963   8.573  15.775  0.00  0.00    +0.000 C 
BRANCH  15  17
ATOM     16  C   UNL     1      49.569   6.639  17.014  0.00  0.00    +0.000 C 
ATOM     17  O   UNL     1      49.779   7.398  15.832  0.00  0.00    +0.000 OA
ENDBRANCH  15  17
ENDBRANCH   3  15
ENDBRANCH   1   3
BRANCH   1  18
ATOM     18  C   UNL     1      46.209   8.075  13.221  0.00  0.00    +0.000 C 
BRANCH  18  19
ATOM     19  C   UNL     1      45.567   6.843  12.612  0.00  0.00    +0.000 A 
ATOM     20  C   UNL     1      44.838   6.950  11.418  0.00  0.00    +0.000 A 
ATOM     21  C   UNL     1      44.182   5.841  10.880  0.00  0.00    +0.000 A 
ATOM     22  C   UNL     1      44.249   4.594  11.516  0.00  0.00    +0.000 A 
ATOM     23  C   UNL     1      45.006   4.478  12.690  0.00  0.00    +0.000 A 
ATOM     24  C   UNL     1      45.658   5.592  13.233  0.00  0.00    +0.000 A 
BRANCH  22  25
ATOM     25  C   UNL     1      43.499   3.410  10.952  0.00  0.00    +0.000 C 
BRANCH  25  26
ATOM     26  N   UNL     1      43.950   3.121   9.595  0.00  0.00    +0.000 NA
ATOM     27  H   UNL     1      44.360   3.966   9.197  0.00  0.00    +0.000 HD
BRANCH  26  28
ATOM     28  C   UNL     1      44.965   2.064   9.569  0.00  0.00    +0.000 C 
BRANCH  28  29
ATOM     29  C   UNL     1      45.825   2.173   8.324  0.00  0.00    +0.000 A 
ATOM     30  C   UNL     1      45.862   3.371   7.610  0.00  0.00    +0.000 A 
ATOM     31  C   UNL     1      46.711   3.478   6.514  0.00  0.00    +0.000 A 
ATOM     32  C   UNL     1      47.492   2.387   6.154  0.00  0.00    +0.000 A 
ATOM     33  C   UNL     1      47.389   1.229   6.907  0.00  0.00    +0.000 A 
ATOM     34  N   UNL     1      46.579   1.098   7.982  0.00  0.00    +0.000 NA
ENDBRANCH  28  29
ENDBRANCH  26  28
ENDBRANCH  25  26
ENDBRANCH  22  25
ENDBRANCH  18  19
ENDBRANCH   1  18
TORSDOF 11
ENDMDL
MODEL 7
REMARK VINA RESULT:    -6.098      3.623      9.695
REMARK INTER + INTRA:         -11.211
REMARK INTER:                 -10.278
REMARK INTRA:                  -0.933
REMARK UNBOUND:                -1.191
REMARK  Name = 
REMARK  14 active torsions:
REMARK  status: ('A' for Active; 'I' for Inactive)
REMARK    1  A    between atoms: C_1  and  O_2
REMARK    2  A    between atoms: O_2  and  C_3
REMARK    3  A    between atoms: C_3  and  C_4
REMARK    4  A    between atoms: C_4  and  N_5
REMARK    5  A    between atoms: C_4  and  C_22
REMARK    6  A    between atoms: N_5  and  C_6
REMARK    7  A    between atoms: C_6  and  C_7
REMARK    8  A    between atoms: C_10  and  C_11
REMARK    9  A    between atoms: C_11  and  N_12
REMARK   10  A    between atoms: N_12  and  C_13
REMARK   11  A    between atoms: C_13  and  C_14
REMARK   12  A    between atoms: C_25  and  C_26
REMARK   13  A    between atoms: N_28  and  C_29
REMARK   14  A    between atoms: N_28  and  C_30
REMARK                            x       y       z     vdW  Elec       q    Type
REMARK                         _______ _______ _______ _____ _____    ______ ____
ROOT
ATOM      1  N   UNL     1      49.668   6.628  15.122  0.00  0.00    +0.000 NA
ATOM      2  H   UNL     1      50.578   6.500  14.675  0.00  0.00    +0.000 HD
ENDROOT
BRANCH   1   3
ATOM      3  C   UNL     1      49.903   6.763  16.575  0.00  0.00    +0.000 C 
BRANCH   3   4
ATOM      4  C   UNL     1      50.902   5.672  16.997  0.00  0.00    +0.000 A 
ATOM      5  C   UNL     1      52.248   6.000  17.185  0.00  0.00    +0.000 A 
ATOM      6  C   UNL     1      53.156   5.023  17.591  0.00  0.00    +0.000 A 
ATOM      7  C   UNL     1      52.723   3.714  17.750  0.00  0.00    +0.000 A 
ATOM      8  C   UNL     1      51.356   3.481  17.603  0.00  0.00    +0.000 A 
ATOM      9  N   UNL     1      50.438   4.421  17.238  0.00  0.00    +0.000 NA
BRANCH   7  10
ATOM     10  C   UNL     1      53.583   2.573  18.174  0.00  0.00    +0.000 C 
ATOM     11  O   UNL     1      53.774   1.712  17.318  0.00  0.00    +0.000 OA
ATOM     12  N   UNL     1      54.157   2.473  19.447  0.00  0.00    +0.000 N 
ATOM     13  C   UNL     1      54.122   3.438  20.537  0.00  0.00    +0.000 C 
ATOM     14  C   UNL     1      54.950   1.282  19.732  0.00  0.00    +0.000 C 
ENDBRANCH   7  10
ENDBRANCH   3   4
BRANCH   3  15
ATOM     15  C   UNL     1      48.621   6.645  17.444  0.00  0.00    +0.000 C 
BRANCH  15  17
ATOM     16  C   UNL     1      49.429   8.795  18.051  0.00  0.00    +0.000 C 
ATOM     17  O   UNL     1      48.340   7.885  18.101  0.00  0.00    +0.000 OA
ENDBRANCH  15  17
ENDBRANCH   3  15
ENDBRANCH   1   3
BRANCH   1  18
ATOM     18  C   UNL     1      48.986   7.736  14.468  0.00  0.00    +0.000 C 
BRANCH  18  19
ATOM     19  C   UNL     1      47.797   7.200  13.696  0.00  0.00    +0.000 A 
ATOM     20  C   UNL     1      46.831   8.084  13.192  0.00  0.00    +0.000 A 
ATOM     21  C   UNL     1      45.694   7.604  12.540  0.00  0.00    +0.000 A 
ATOM     22  C   UNL     1      45.500   6.227  12.364  0.00  0.00    +0.000 A 
ATOM     23  C   UNL     1      46.481   5.344  12.836  0.00  0.00    +0.000 A 
ATOM     24  C   UNL     1      47.618   5.825  13.496  0.00  0.00    +0.000 A 
BRANCH  22  25
ATOM     25  C   UNL     1      44.245   5.713  11.697  0.00  0.00    +0.000 C 
BRANCH  25  26
ATOM     26  N   UNL     1      44.443   4.348  11.223  0.00  0.00    +0.000 NA
ATOM     27  H   UNL     1      43.923   3.711  11.827  0.00  0.00    +0.000 HD
BRANCH  26  28
ATOM     28  C   UNL     1      43.964   4.171   9.850  0.00  0.00    +0.000 C 
BRANCH  28  29
ATOM     29  C   UNL     1      45.045   3.562   8.976  0.00  0.00    +0.000 A 
ATOM     30  C   UNL     1      45.253   2.182   8.993  0.00  0.00    +0.000 A 
ATOM     31  C   UNL     1      46.197   1.632   8.133  0.00  0.00    +0.000 A 
ATOM     32  C   UNL     1      46.913   2.471   7.288  0.00  0.00    +0.000 A 
ATOM     33  C   UNL     1      46.655   3.830   7.340  0.00  0.00    +0.000 A 
ATOM     34  N   UNL     1      45.739   4.394   8.158  0.00  0.00    +0.000 NA
ENDBRANCH  28  29
ENDBRANCH  26  28
ENDBRANCH  25  26
ENDBRANCH  22  25
ENDBRANCH  18  19
ENDBRANCH   1  18
TORSDOF 11
ENDMDL
MODEL 8
REMARK VINA RESULT:    -6.001      3.485      8.698
REMARK INTER + INTRA:         -11.052
REMARK INTER:                  -9.252
REMARK INTRA:                  -1.800
REMARK UNBOUND:                -1.191
REMARK  Name = 
REMARK  14 active torsions:
REMARK  status: ('A' for Active; 'I' for Inactive)
REMARK    1  A    between atoms: C_1  and  O_2
REMARK    2  A    between atoms: O_2  and  C_3
REMARK    3  A    between atoms: C_3  and  C_4
REMARK    4  A    between atoms: C_4  and  N_5
REMARK    5  A    between atoms: C_4  and  C_22
REMARK    6  A    between atoms: N_5  and  C_6
REMARK    7  A    between atoms: C_6  and  C_7
REMARK    8  A    between atoms: C_10  and  C_11
REMARK    9  A    between atoms: C_11  and  N_12
REMARK   10  A    between atoms: N_12  and  C_13
REMARK   11  A    between atoms: C_13  and  C_14
REMARK   12  A    between atoms: C_25  and  C_26
REMARK   13  A    between atoms: N_28  and  C_29
REMARK   14  A    between atoms: N_28  and  C_30
REMARK                            x       y       z     vdW  Elec       q    Type
REMARK                         _______ _______ _______ _____ _____    ______ ____
ROOT
ATOM      1  N   UNL     1      48.256  10.402  13.385  0.00  0.00    +0.000 NA
ATOM      2  H   UNL     1      47.546  10.013  14.010  0.00  0.00    +0.000 HD
ENDROOT
BRANCH   1   3
ATOM      3  C   UNL     1      49.560  10.288  14.072  0.00  0.00    +0.000 C 
BRANCH   3   4
ATOM      4  C   UNL     1      49.510   9.050  14.983  0.00  0.00    +0.000 A 
ATOM      5  C   UNL     1      48.521   8.952  15.967  0.00  0.00    +0.000 A 
ATOM      6  C   UNL     1      48.453   7.823  16.781  0.00  0.00    +0.000 A 
ATOM      7  C   UNL     1      49.409   6.826  16.645  0.00  0.00    +0.000 A 
ATOM      8  C   UNL     1      50.324   6.969  15.603  0.00  0.00    +0.000 A 
ATOM      9  N   UNL     1      50.396   8.047  14.770  0.00  0.00    +0.000 NA
BRANCH   7  10
ATOM     10  C   UNL     1      49.459   5.572  17.449  0.00  0.00    +0.000 C 
ATOM     11  O   UNL     1      50.242   5.585  18.396  0.00  0.00    +0.000 OA
ATOM     12  N   UNL     1      48.668   4.450  17.174  0.00  0.00    +0.000 N 
ATOM     13  C   UNL     1      47.626   4.297  16.169  0.00  0.00    +0.000 C 
ATOM     14  C   UNL     1      48.848   3.280  18.027  0.00  0.00    +0.000 C 
ENDBRANCH   7  10
ENDBRANCH   3   4
BRANCH   3  15
ATOM     15  C   UNL     1      49.948  11.531  14.919  0.00  0.00    +0.000 C 
BRANCH  15  17
ATOM     16  C   UNL     1      51.196  11.776  16.925  0.00  0.00    +0.000 C 
ATOM     17  O   UNL     1      51.201  11.322  15.580  0.00  0.00    +0.000 OA
ENDBRANCH  15  17
ENDBRANCH   3  15
ENDBRANCH   1   3
BRANCH   1  18
ATOM     18  C   UNL     1      48.142   9.741  12.093  0.00  0.00    +0.000 C 
BRANCH  18  19
ATOM     19  C   UNL     1      47.295   8.493  12.248  0.00  0.00    +0.000 A 
ATOM     20  C   UNL     1      45.895   8.596  12.281  0.00  0.00    +0.000 A 
ATOM     21  C   UNL     1      45.101   7.467  12.494  0.00  0.00    +0.000 A 
ATOM     22  C   UNL     1      45.686   6.205  12.665  0.00  0.00    +0.000 A 
ATOM     23  C   UNL     1      47.082   6.096  12.597  0.00  0.00    +0.000 A 
ATOM     24  C   UNL     1      47.879   7.229  12.392  0.00  0.00    +0.000 A 
BRANCH  22  25
ATOM     25  C   UNL     1      44.822   4.996  12.939  0.00  0.00    +0.000 C 
BRANCH  25  26
ATOM     26  N   UNL     1      43.647   5.003  12.075  0.00  0.00    +0.000 NA
ATOM     27  H   UNL     1      43.813   5.643  11.298  0.00  0.00    +0.000 HD
BRANCH  26  28
ATOM     28  C   UNL     1      43.366   3.675  11.523  0.00  0.00    +0.000 C 
BRANCH  28  29
ATOM     29  C   UNL     1      44.163   3.440  10.253  0.00  0.00    +0.000 A 
ATOM     30  C   UNL     1      44.621   4.528   9.511  0.00  0.00    +0.000 A 
ATOM     31  C   UNL     1      45.413   4.297   8.392  0.00  0.00    +0.000 A 
ATOM     32  C   UNL     1      45.718   2.989   8.037  0.00  0.00    +0.000 A 
ATOM     33  C   UNL     1      45.215   1.963   8.820  0.00  0.00    +0.000 A 
ATOM     34  N   UNL     1      44.451   2.156   9.918  0.00  0.00    +0.000 NA
ENDBRANCH  28  29
ENDBRANCH  26  28
ENDBRANCH  25  26
ENDBRANCH  22  25
ENDBRANCH  18  19
ENDBRANCH   1  18
TORSDOF 11
ENDMDL
MODEL 9
REMARK VINA RESULT:    -5.613      3.811      7.690
REMARK INTER + INTRA:         -10.414
REMARK INTER:                  -8.115
REMARK INTRA:                  -2.298
REMARK UNBOUND:                -1.191
REMARK  Name = 
REMARK  14 active torsions:
REMARK  status: ('A' for Active; 'I' for Inactive)
REMARK    1  A    between atoms: C_1  and  O_2
REMARK    2  A    between atoms: O_2  and  C_3
REMARK    3  A    between atoms: C_3  and  C_4
REMARK    4  A    between atoms: C_4  and  N_5
REMARK    5  A    between atoms: C_4  and  C_22
REMARK    6  A    between atoms: N_5  and  C_6
REMARK    7  A    between atoms: C_6  and  C_7
REMARK    8  A    between atoms: C_10  and  C_11
REMARK    9  A    between atoms: C_11  and  N_12
REMARK   10  A    between atoms: N_12  and  C_13
REMARK   11  A    between atoms: C_13  and  C_14
REMARK   12  A    between atoms: C_25  and  C_26
REMARK   13  A    between atoms: N_28  and  C_29
REMARK   14  A    between atoms: N_28  and  C_30
REMARK                            x       y       z     vdW  Elec       q    Type
REMARK                         _______ _______ _______ _____ _____    ______ ____
ROOT
ATOM      1  N   UNL     1      45.827   6.112  13.486  0.00  0.00    +0.000 NA
ATOM      2  H   UNL     1      44.841   6.361  13.590  0.00  0.00    +0.000 HD
ENDROOT
BRANCH   1   3
ATOM      3  C   UNL     1      45.987   4.725  13.971  0.00  0.00    +0.000 C 
BRANCH   3   4
ATOM      4  C   UNL     1      47.025   4.736  15.105  0.00  0.00    +0.000 A 
ATOM      5  C   UNL     1      47.919   5.805  15.216  0.00  0.00    +0.000 A 
ATOM      6  C   UNL     1      48.848   5.835  16.255  0.00  0.00    +0.000 A 
ATOM      7  C   UNL     1      48.915   4.769  17.142  0.00  0.00    +0.000 A 
ATOM      8  C   UNL     1      47.950   3.772  17.000  0.00  0.00    +0.000 A 
ATOM      9  N   UNL     1      47.009   3.730  16.014  0.00  0.00    +0.000 NA
BRANCH   7  10
ATOM     10  C   UNL     1      49.858   4.668  18.291  0.00  0.00    +0.000 C 
ATOM     11  O   UNL     1      50.897   4.052  18.066  0.00  0.00    +0.000 OA
ATOM     12  N   UNL     1      49.608   5.240  19.544  0.00  0.00    +0.000 N 
ATOM     13  C   UNL     1      48.492   6.082  19.952  0.00  0.00    +0.000 C 
ATOM     14  C   UNL     1      50.608   5.032  20.586  0.00  0.00    +0.000 C 
ENDBRANCH   7  10
ENDBRANCH   3   4
BRANCH   3  15
ATOM     15  C   UNL     1      46.432   3.713  12.880  0.00  0.00    +0.000 C 
BRANCH  15  17
ATOM     16  C   UNL     1      44.260   3.253  12.038  0.00  0.00    +0.000 C 
ATOM     17  O   UNL     1      45.420   2.725  12.662  0.00  0.00    +0.000 OA
ENDBRANCH  15  17
ENDBRANCH   3  15
ENDBRANCH   1   3
BRANCH   1  18
ATOM     18  C   UNL     1      46.222   6.368  12.108  0.00  0.00    +0.000 C 
BRANCH  18  19
ATOM     19  C   UNL     1      47.138   7.576  12.073  0.00  0.00    +0.000 A 
ATOM     20  C   UNL     1      46.608   8.864  12.243  0.00  0.00    +0.000 A 
ATOM     21  C   UNL     1      47.425   9.992  12.143  0.00  0.00    +0.000 A 
ATOM     22  C   UNL     1      48.795   9.859  11.885  0.00  0.00    +0.000 A 
ATOM     23  C   UNL     1      49.334   8.572  11.750  0.00  0.00    +0.000 A 
ATOM     24  C   UNL     1      48.513   7.441  11.842  0.00  0.00    +0.000 A 
BRANCH  22  25
ATOM     25  C   UNL     1      49.665  11.087  11.734  0.00  0.00    +0.000 C 
BRANCH  25  26
ATOM     26  N   UNL     1      49.662  11.867  12.967  0.00  0.00    +0.000 NA
ATOM     27  H   UNL     1      48.699  11.979  13.284  0.00  0.00    +0.000 HD
BRANCH  26  28
ATOM     28  C   UNL     1      50.422  11.207  14.032  0.00  0.00    +0.000 C 
BRANCH  28  29
ATOM     29  C   UNL     1      49.545  10.958  15.245  0.00  0.00    +0.000 A 
ATOM     30  C   UNL     1      49.008   9.689  15.463  0.00  0.00    +0.000 A 
ATOM     31  C   UNL     1      48.267   9.459  16.617  0.00  0.00    +0.000 A 
ATOM     32  C   UNL     1      48.074  10.500  17.517  0.00  0.00    +0.000 A 
ATOM     33  C   UNL     1      48.631  11.733  17.221  0.00  0.00    +0.000 A 
ATOM     34  N   UNL     1      49.362  11.986  16.113  0.00  0.00    +0.000 NA
ENDBRANCH  28  29
ENDBRANCH  26  28
ENDBRANCH  25  26
ENDBRANCH  22  25
ENDBRANCH  18  19
ENDBRANCH   1  18
TORSDOF 11
ENDMDL
