MODEL 1
REMARK VINA RESULT:    -7.707      0.000      0.000
REMARK INTER + INTRA:         -10.603
REMARK INTER:                  -9.509
REMARK INTRA:                  -1.094
REMARK UNBOUND:                -1.094
REMARK  Name = 
REMARK  4 active torsions:
REMARK  status: ('A' for Active; 'I' for Inactive)
REMARK    1  A    between atoms: C_2  and  C_4
REMARK    2  A    between atoms: C_10  and  N_11
REMARK    3  A    between atoms: N_11  and  C_12
REMARK    4  A    between atoms: C_12  and  C_13
REMARK                            x       y       z     vdW  Elec       q    Type
REMARK                         _______ _______ _______ _____ _____    ______ ____
ROOT
ATOM      1  N   UNL     1      44.787   6.655  12.911  0.00  0.00    +0.000 N 
ATOM      2  H   UNL     1      44.362   7.432  13.416  0.00  0.00    +0.000 HD
ENDROOT
BRANCH   1   9
ATOM      3  C   UNL     1      47.076   5.879  13.419  0.00  0.00    +0.000 A 
ATOM      4  C   UNL     1      48.457   6.140  13.379  0.00  0.00    +0.000 A 
ATOM      5  C   UNL     1      48.931   7.302  12.786  0.00  0.00    +0.000 A 
ATOM      6  C   UNL     1      47.996   8.160  12.249  0.00  0.00    +0.000 A 
ATOM      7 CL   UNL     1      48.466   9.609  11.467  0.00  0.00    +0.000 Cl
ATOM      8  N   UNL     1      46.664   7.955  12.289  0.00  0.00    +0.000 NA
ATOM      9  C   UNL     1      46.191   6.833  12.886  0.00  0.00    +0.000 A 
BRANCH   3  11
ATOM     10  N   UNL     1      46.718   4.468  15.377  0.00  0.00    +0.000 N 
ATOM     11  C   UNL     1      46.671   4.581  14.021  0.00  0.00    +0.000 C 
ATOM     12  O   UNL     1      46.259   3.662  13.323  0.00  0.00    +0.000 OA
ATOM     13  H   UNL     1      46.330   3.634  15.797  0.00  0.00    +0.000 HD
ATOM     14  H   UNL     1      46.962   5.252  15.976  0.00  0.00    +0.000 HD
ENDBRANCH   3  11
ENDBRANCH   1   9
BRANCH   1  15
ATOM     15  C   UNL     1      44.215   6.521  11.570  0.00  0.00    +0.000 C 
BRANCH  15  16
ATOM     16  C   UNL     1      44.123   5.076  11.161  0.00  0.00    +0.000 A 
ATOM     17  C   UNL     1      43.260   4.172  11.774  0.00  0.00    +0.000 A 
ATOM     18  C   UNL     1      43.219   2.874  11.286  0.00  0.00    +0.000 A 
ATOM     19  N   UNL     1      43.973   2.421  10.255  0.00  0.00    +0.000 NA
ATOM     20  C   UNL     1      44.800   3.296   9.653  0.00  0.00    +0.000 A 
ATOM     21  N   UNL     1      45.625   2.910   8.602  0.00  0.00    +0.000 N 
ATOM     22  C   UNL     1      45.904   1.475   8.460  0.00  0.00    +0.000 C 
ATOM     23  C   UNL     1      47.122   1.349   7.520  0.00  0.00    +0.000 C 
ATOM     24  O   UNL     1      46.869   1.957   6.235  0.00  0.00    +0.000 OA
ATOM     25  C   UNL     1      46.526   3.347   6.388  0.00  0.00    +0.000 C 
ATOM     26  C   UNL     1      45.305   3.527   7.304  0.00  0.00    +0.000 C 
ATOM     27  C   UNL     1      44.899   4.613  10.098  0.00  0.00    +0.000 A 
ENDBRANCH  15  16
ENDBRANCH   1  15
TORSDOF 4
ENDMDL
MODEL 2
REMARK VINA RESULT:    -7.137      3.050      7.073
REMARK INTER + INTRA:          -9.900
REMARK INTER:                  -9.271
REMARK INTRA:                  -0.629
REMARK UNBOUND:                -1.094
REMARK  Name = 
REMARK  4 active torsions:
REMARK  status: ('A' for Active; 'I' for Inactive)
REMARK    1  A    between atoms: C_2  and  C_4
REMARK    2  A    between atoms: C_10  and  N_11
REMARK    3  A    between atoms: N_11  and  C_12
REMARK    4  A    between atoms: C_12  and  C_13
REMARK                            x       y       z     vdW  Elec       q    Type
REMARK                         _______ _______ _______ _____ _____    ______ ____
ROOT
ATOM      1  N   UNL     1      44.997   5.914  10.669  0.00  0.00    +0.000 N 
ATOM      2  H   UNL     1      44.471   5.765  11.529  0.00  0.00    +0.000 HD
ENDROOT
BRANCH   1   9
ATOM      3  C   UNL     1      44.340   3.554  10.353  0.00  0.00    +0.000 A 
ATOM      4  C   UNL     1      44.430   2.389   9.570  0.00  0.00    +0.000 A 
ATOM      5  C   UNL     1      45.142   2.401   8.379  0.00  0.00    +0.000 A 
ATOM      6  C   UNL     1      45.737   3.589   8.015  0.00  0.00    +0.000 A 
ATOM      7 CL   UNL     1      46.616   3.730   6.551  0.00  0.00    +0.000 Cl
ATOM      8  N   UNL     1      45.693   4.719   8.749  0.00  0.00    +0.000 NA
ATOM      9  C   UNL     1      45.018   4.710   9.925  0.00  0.00    +0.000 A 
BRANCH   3  11
ATOM     10  N   UNL     1      43.665   2.362  12.371  0.00  0.00    +0.000 N 
ATOM     11  C   UNL     1      43.507   3.458  11.580  0.00  0.00    +0.000 C 
ATOM     12  O   UNL     1      42.740   4.361  11.895  0.00  0.00    +0.000 OA
ATOM     13  H   UNL     1      43.192   2.349  13.265  0.00  0.00    +0.000 HD
ATOM     14  H   UNL     1      44.367   1.653  12.177  0.00  0.00    +0.000 HD
ENDBRANCH   3  11
ENDBRANCH   1   9
BRANCH   1  15
ATOM     15  C   UNL     1      46.341   6.421  10.952  0.00  0.00    +0.000 C 
BRANCH  15  16
ATOM     16  C   UNL     1      46.781   6.045  12.341  0.00  0.00    +0.000 A 
ATOM     17  C   UNL     1      46.412   4.850  12.952  0.00  0.00    +0.000 A 
ATOM     18  C   UNL     1      46.914   4.580  14.216  0.00  0.00    +0.000 A 
ATOM     19  N   UNL     1      47.736   5.409  14.906  0.00  0.00    +0.000 NA
ATOM     20  C   UNL     1      48.104   6.559  14.312  0.00  0.00    +0.000 A 
ATOM     21  N   UNL     1      48.927   7.478  14.956  0.00  0.00    +0.000 N 
ATOM     22  C   UNL     1      49.017   7.386  16.420  0.00  0.00    +0.000 C 
ATOM     23  C   UNL     1      49.633   8.713  16.912  0.00  0.00    +0.000 C 
ATOM     24  O   UNL     1      50.930   8.949  16.326  0.00  0.00    +0.000 OA
ATOM     25  C   UNL     1      50.846   8.966  14.889  0.00  0.00    +0.000 C 
ATOM     26  C   UNL     1      50.255   7.656  14.345  0.00  0.00    +0.000 C 
ATOM     27  C   UNL     1      47.628   6.899  13.047  0.00  0.00    +0.000 A 
ENDBRANCH  15  16
ENDBRANCH   1  15
TORSDOF 4
ENDMDL
MODEL 3
REMARK VINA RESULT:    -6.916      3.962      7.132
REMARK INTER + INTRA:          -9.627
REMARK INTER:                  -8.950
REMARK INTRA:                  -0.677
REMARK UNBOUND:                -1.094
REMARK  Name = 
REMARK  4 active torsions:
REMARK  status: ('A' for Active; 'I' for Inactive)
REMARK    1  A    between atoms: C_2  and  C_4
REMARK    2  A    between atoms: C_10  and  N_11
REMARK    3  A    between atoms: N_11  and  C_12
REMARK    4  A    between atoms: C_12  and  C_13
REMARK                            x       y       z     vdW  Elec       q    Type
REMARK                         _______ _______ _______ _____ _____    ______ ____
ROOT
ATOM      1  N   UNL     1      44.691   5.837  10.295  0.00  0.00    +0.000 N 
ATOM      2  H   UNL     1      43.726   5.870  10.620  0.00  0.00    +0.000 HD
ENDROOT
BRANCH   1   9
ATOM      3  C   UNL     1      44.412   3.385  10.183  0.00  0.00    +0.000 A 
ATOM      4  C   UNL     1      44.707   2.183   9.515  0.00  0.00    +0.000 A 
ATOM      5  C   UNL     1      45.457   2.199   8.347  0.00  0.00    +0.000 A 
ATOM      6  C   UNL     1      45.880   3.429   7.889  0.00  0.00    +0.000 A 
ATOM      7 CL   UNL     1      46.786   3.574   6.442  0.00  0.00    +0.000 Cl
ATOM      8  N   UNL     1      45.636   4.598   8.514  0.00  0.00    +0.000 NA
ATOM      9  C   UNL     1      44.923   4.589   9.667  0.00  0.00    +0.000 A 
BRANCH   3  11
ATOM     10  N   UNL     1      43.907   2.357  12.337  0.00  0.00    +0.000 N 
ATOM     11  C   UNL     1      43.553   3.269  11.391  0.00  0.00    +0.000 C 
ATOM     12  O   UNL     1      42.589   4.008  11.554  0.00  0.00    +0.000 OA
ATOM     13  H   UNL     1      43.400   2.359  13.212  0.00  0.00    +0.000 HD
ATOM     14  H   UNL     1      44.759   1.807  12.264  0.00  0.00    +0.000 HD
ENDBRANCH   3  11
ENDBRANCH   1   9
BRANCH   1  15
ATOM     15  C   UNL     1      45.627   6.096  11.390  0.00  0.00    +0.000 C 
BRANCH  15  16
ATOM     16  C   UNL     1      45.754   7.571  11.659  0.00  0.00    +0.000 A 
ATOM     17  C   UNL     1      46.859   8.129  12.295  0.00  0.00    +0.000 A 
ATOM     18  C   UNL     1      46.897   9.507  12.449  0.00  0.00    +0.000 A 
ATOM     19  N   UNL     1      45.922  10.351  12.029  0.00  0.00    +0.000 NA
ATOM     20  C   UNL     1      44.858   9.814  11.403  0.00  0.00    +0.000 A 
ATOM     21  N   UNL     1      43.802  10.604  10.960  0.00  0.00    +0.000 N 
ATOM     22  C   UNL     1      43.658  11.933  11.568  0.00  0.00    +0.000 C 
ATOM     23  C   UNL     1      42.235  12.426  11.228  0.00  0.00    +0.000 C 
ATOM     24  O   UNL     1      42.015  12.481   9.803  0.00  0.00    +0.000 OA
ATOM     25  C   UNL     1      42.229  11.189   9.204  0.00  0.00    +0.000 C 
ATOM     26  C   UNL     1      43.641  10.660   9.498  0.00  0.00    +0.000 C 
ATOM     27  C   UNL     1      44.750   8.436  11.225  0.00  0.00    +0.000 A 
ENDBRANCH  15  16
ENDBRANCH   1  15
TORSDOF 4
ENDMDL
MODEL 4
REMARK VINA RESULT:    -6.783      2.367      3.216
REMARK INTER + INTRA:          -9.463
REMARK INTER:                  -8.766
REMARK INTRA:                  -0.697
REMARK UNBOUND:                -1.094
REMARK  Name = 
REMARK  4 active torsions:
REMARK  status: ('A' for Active; 'I' for Inactive)
REMARK    1  A    between atoms: C_2  and  C_4
REMARK    2  A    between atoms: C_10  and  N_11
REMARK    3  A    between atoms: N_11  and  C_12
REMARK    4  A    between atoms: C_12  and  C_13
REMARK                            x       y       z     vdW  Elec       q    Type
REMARK                         _______ _______ _______ _____ _____    ______ ____
ROOT
ATOM      1  N   UNL     1      44.580   7.350  12.227  0.00  0.00    +0.000 N 
ATOM      2  H   UNL     1      44.328   7.148  11.261  0.00  0.00    +0.000 HD
ENDROOT
BRANCH   1   9
ATOM      3  C   UNL     1      45.210   9.704  11.819  0.00  0.00    +0.000 A 
ATOM      4  C   UNL     1      46.214  10.688  11.847  0.00  0.00    +0.000 A 
ATOM      5  C   UNL     1      47.480  10.381  12.326  0.00  0.00    +0.000 A 
ATOM      6  C   UNL     1      47.690   9.092  12.766  0.00  0.00    +0.000 A 
ATOM      7 CL   UNL     1      49.204   8.608  13.405  0.00  0.00    +0.000 Cl
ATOM      8  N   UNL     1      46.760   8.117  12.734  0.00  0.00    +0.000 NA
ATOM      9  C   UNL     1      45.528   8.402  12.247  0.00  0.00    +0.000 A 
BRANCH   3  11
ATOM     10  N   UNL     1      43.196  11.050  12.103  0.00  0.00    +0.000 N 
ATOM     11  C   UNL     1      43.872  10.144  11.345  0.00  0.00    +0.000 C 
ATOM     12  O   UNL     1      43.416   9.744  10.280  0.00  0.00    +0.000 OA
ATOM     13  H   UNL     1      42.345  11.444  11.726  0.00  0.00    +0.000 HD
ATOM     14  H   UNL     1      43.603  11.467  12.937  0.00  0.00    +0.000 HD
ENDBRANCH   3  11
ENDBRANCH   1   9
BRANCH   1  15
ATOM     15  C   UNL     1      45.061   6.148  12.910  0.00  0.00    +0.000 C 
BRANCH  15  16
ATOM     16  C   UNL     1      44.602   4.901  12.204  0.00  0.00    +0.000 A 
ATOM     17  C   UNL     1      43.513   4.148  12.634  0.00  0.00    +0.000 A 
ATOM     18  C   UNL     1      43.145   3.044  11.881  0.00  0.00    +0.000 A 
ATOM     19  N   UNL     1      43.782   2.638  10.755  0.00  0.00    +0.000 NA
ATOM     20  C   UNL     1      44.828   3.372  10.331  0.00  0.00    +0.000 A 
ATOM     21  N   UNL     1      45.552   3.016   9.198  0.00  0.00    +0.000 N 
ATOM     22  C   UNL     1      45.446   1.622   8.744  0.00  0.00    +0.000 C 
ATOM     23  C   UNL     1      46.613   1.383   7.763  0.00  0.00    +0.000 C 
ATOM     24  O   UNL     1      46.569   2.297   6.647  0.00  0.00    +0.000 OA
ATOM     25  C   UNL     1      46.601   3.662   7.104  0.00  0.00    +0.000 C 
ATOM     26  C   UNL     1      45.444   3.958   8.072  0.00  0.00    +0.000 C 
ATOM     27  C   UNL     1      45.259   4.489  11.045  0.00  0.00    +0.000 A 
ENDBRANCH  15  16
ENDBRANCH   1  15
TORSDOF 4
ENDMDL
MODEL 5
REMARK VINA RESULT:    -6.705      3.245      6.862
REMARK INTER + INTRA:          -9.367
REMARK INTER:                  -8.775
REMARK INTRA:                  -0.593
REMARK UNBOUND:                -1.094
REMARK  Name = 
REMARK  4 active torsions:
REMARK  status: ('A' for Active; 'I' for Inactive)
REMARK    1  A    between atoms: C_2  and  C_4
REMARK    2  A    between atoms: C_10  and  N_11
REMARK    3  A    between atoms: N_11  and  C_12
REMARK    4  A    between atoms: C_12  and  C_13
REMARK                            x       y       z     vdW  Elec       q    Type
REMARK                         _______ _______ _______ _____ _____    ______ ____
ROOT
ATOM      1  N   UNL     1      45.067   5.854  10.467  0.00  0.00    +0.000 N 
ATOM      2  H   UNL     1      44.117   6.037  10.784  0.00  0.00    +0.000 HD
ENDROOT
BRANCH   1   9
ATOM      3  C   UNL     1      44.419   3.483  10.221  0.00  0.00    +0.000 A 
ATOM      4  C   UNL     1      44.509   2.297   9.470  0.00  0.00    +0.000 A 
ATOM      5  C   UNL     1      45.215   2.278   8.276  0.00  0.00    +0.000 A 
ATOM      6  C   UNL     1      45.803   3.459   7.875  0.00  0.00    +0.000 A 
ATOM      7 CL   UNL     1      46.674   3.562   6.403  0.00  0.00    +0.000 Cl
ATOM      8  N   UNL     1      45.758   4.608   8.578  0.00  0.00    +0.000 NA
ATOM      9  C   UNL     1      45.089   4.630   9.757  0.00  0.00    +0.000 A 
BRANCH   3  11
ATOM     10  N   UNL     1      43.829   2.398  12.324  0.00  0.00    +0.000 N 
ATOM     11  C   UNL     1      43.592   3.418  11.455  0.00  0.00    +0.000 C 
ATOM     12  O   UNL     1      42.761   4.284  11.704  0.00  0.00    +0.000 OA
ATOM     13  H   UNL     1      43.356   2.418  13.218  0.00  0.00    +0.000 HD
ATOM     14  H   UNL     1      44.581   1.729  12.180  0.00  0.00    +0.000 HD
ENDBRANCH   3  11
ENDBRANCH   1   9
BRANCH   1  15
ATOM     15  C   UNL     1      46.010   5.870  11.586  0.00  0.00    +0.000 C 
BRANCH  15  16
ATOM     16  C   UNL     1      46.529   7.260  11.840  0.00  0.00    +0.000 A 
ATOM     17  C   UNL     1      45.743   8.270  12.387  0.00  0.00    +0.000 A 
ATOM     18  C   UNL     1      46.335   9.501  12.625  0.00  0.00    +0.000 A 
ATOM     19  N   UNL     1      47.630   9.794  12.351  0.00  0.00    +0.000 NA
ATOM     20  C   UNL     1      48.395   8.814  11.834  0.00  0.00    +0.000 A 
ATOM     21  N   UNL     1      49.728   9.033  11.503  0.00  0.00    +0.000 N 
ATOM     22  C   UNL     1      50.151  10.427  11.309  0.00  0.00    +0.000 C 
ATOM     23  C   UNL     1      51.507  10.383  10.573  0.00  0.00    +0.000 C 
ATOM     24  O   UNL     1      52.495   9.640  11.319  0.00  0.00    +0.000 OA
ATOM     25  C   UNL     1      52.042   8.296  11.567  0.00  0.00    +0.000 C 
ATOM     26  C   UNL     1      50.700   8.284  12.316  0.00  0.00    +0.000 C 
ATOM     27  C   UNL     1      47.862   7.556  11.559  0.00  0.00    +0.000 A 
ENDBRANCH  15  16
ENDBRANCH   1  15
TORSDOF 4
ENDMDL
MODEL 6
REMARK VINA RESULT:    -6.697      3.683      5.748
REMARK INTER + INTRA:          -9.357
REMARK INTER:                  -8.391
REMARK INTRA:                  -0.966
REMARK UNBOUND:                -1.094
REMARK  Name = 
REMARK  4 active torsions:
REMARK  status: ('A' for Active; 'I' for Inactive)
REMARK    1  A    between atoms: C_2  and  C_4
REMARK    2  A    between atoms: C_10  and  N_11
REMARK    3  A    between atoms: N_11  and  C_12
REMARK    4  A    between atoms: C_12  and  C_13
REMARK                            x       y       z     vdW  Elec       q    Type
REMARK                         _______ _______ _______ _____ _____    ______ ____
ROOT
ATOM      1  N   UNL     1      48.275   6.220  16.177  0.00  0.00    +0.000 N 
ATOM      2  H   UNL     1      47.830   6.728  16.939  0.00  0.00    +0.000 HD
ENDROOT
BRANCH   1   9
ATOM      3  C   UNL     1      48.694   3.957  17.076  0.00  0.00    +0.000 A 
ATOM      4  C   UNL     1      49.613   3.049  17.631  0.00  0.00    +0.000 A 
ATOM      5  C   UNL     1      50.945   3.408  17.782  0.00  0.00    +0.000 A 
ATOM      6  C   UNL     1      51.307   4.670  17.363  0.00  0.00    +0.000 A 
ATOM      7 CL   UNL     1      52.928   5.211  17.473  0.00  0.00    +0.000 Cl
ATOM      8  N   UNL     1      50.451   5.575  16.848  0.00  0.00    +0.000 NA
ATOM      9  C   UNL     1      49.144   5.241  16.718  0.00  0.00    +0.000 A 
BRANCH   3  11
ATOM     10  N   UNL     1      46.795   2.643  17.864  0.00  0.00    +0.000 N 
ATOM     11  C   UNL     1      47.304   3.459  16.901  0.00  0.00    +0.000 C 
ATOM     12  O   UNL     1      46.621   3.814  15.947  0.00  0.00    +0.000 OA
ATOM     13  H   UNL     1      45.815   2.402  17.813  0.00  0.00    +0.000 HD
ATOM     14  H   UNL     1      47.313   2.420  18.710  0.00  0.00    +0.000 HD
ENDBRANCH   3  11
ENDBRANCH   1   9
BRANCH   1  15
ATOM     15  C   UNL     1      48.962   7.133  15.262  0.00  0.00    +0.000 C 
BRANCH  15  16
ATOM     16  C   UNL     1      48.372   7.063  13.879  0.00  0.00    +0.000 A 
ATOM     17  C   UNL     1      49.022   7.565  12.756  0.00  0.00    +0.000 A 
ATOM     18  C   UNL     1      48.411   7.404  11.521  0.00  0.00    +0.000 A 
ATOM     19  N   UNL     1      47.213   6.798  11.334  0.00  0.00    +0.000 NA
ATOM     20  C   UNL     1      46.588   6.301  12.418  0.00  0.00    +0.000 A 
ATOM     21  N   UNL     1      45.345   5.684  12.320  0.00  0.00    +0.000 N 
ATOM     22  C   UNL     1      44.544   5.975  11.123  0.00  0.00    +0.000 C 
ATOM     23  C   UNL     1      43.101   5.523  11.432  0.00  0.00    +0.000 C 
ATOM     24  O   UNL     1      43.042   4.120  11.768  0.00  0.00    +0.000 OA
ATOM     25  C   UNL     1      43.885   3.830  12.898  0.00  0.00    +0.000 C 
ATOM     26  C   UNL     1      45.341   4.246  12.633  0.00  0.00    +0.000 C 
ATOM     27  C   UNL     1      47.140   6.438  13.691  0.00  0.00    +0.000 A 
ENDBRANCH  15  16
ENDBRANCH   1  15
TORSDOF 4
ENDMDL
MODEL 7
REMARK VINA RESULT:    -6.549      3.859      5.876
REMARK INTER + INTRA:          -9.174
REMARK INTER:                  -8.438
REMARK INTRA:                  -0.736
REMARK UNBOUND:                -1.094
REMARK  Name = 
REMARK  4 active torsions:
REMARK  status: ('A' for Active; 'I' for Inactive)
REMARK    1  A    between atoms: C_2  and  C_4
REMARK    2  A    between atoms: C_10  and  N_11
REMARK    3  A    between atoms: N_11  and  C_12
REMARK    4  A    between atoms: C_12  and  C_13
REMARK                            x       y       z     vdW  Elec       q    Type
REMARK                         _______ _______ _______ _____ _____    ______ ____
ROOT
ATOM      1  N   UNL     1      47.755   5.075  16.207  0.00  0.00    +0.000 N 
ATOM      2  H   UNL     1      46.747   5.205  16.134  0.00  0.00    +0.000 HD
ENDROOT
BRANCH   1   9
ATOM      3  C   UNL     1      48.880   3.965  18.106  0.00  0.00    +0.000 A 
ATOM      4  C   UNL     1      49.177   3.970  19.480  0.00  0.00    +0.000 A 
ATOM      5  C   UNL     1      48.755   5.022  20.282  0.00  0.00    +0.000 A 
ATOM      6  C   UNL     1      48.051   6.035  19.669  0.00  0.00    +0.000 A 
ATOM      7 CL   UNL     1      47.505   7.398  20.554  0.00  0.00    +0.000 Cl
ATOM      8  N   UNL     1      47.727   6.054  18.361  0.00  0.00    +0.000 NA
ATOM      9  C   UNL     1      48.116   5.021  17.575  0.00  0.00    +0.000 A 
BRANCH   3  11
ATOM     10  N   UNL     1      50.518   2.181  17.814  0.00  0.00    +0.000 N 
ATOM     11  C   UNL     1      49.426   2.827  17.321  0.00  0.00    +0.000 C 
ATOM     12  O   UNL     1      48.878   2.450  16.291  0.00  0.00    +0.000 OA
ATOM     13  H   UNL     1      50.818   1.334  17.350  0.00  0.00    +0.000 HD
ATOM     14  H   UNL     1      50.923   2.418  18.715  0.00  0.00    +0.000 HD
ENDBRANCH   3  11
ENDBRANCH   1   9
BRANCH   1  15
ATOM     15  C   UNL     1      48.477   6.119  15.478  0.00  0.00    +0.000 C 
BRANCH  15  16
ATOM     16  C   UNL     1      47.927   6.290  14.087  0.00  0.00    +0.000 A 
ATOM     17  C   UNL     1      48.553   7.070  13.119  0.00  0.00    +0.000 A 
ATOM     18  C   UNL     1      47.987   7.120  11.854  0.00  0.00    +0.000 A 
ATOM     19  N   UNL     1      46.854   6.466  11.496  0.00  0.00    +0.000 NA
ATOM     20  C   UNL     1      46.254   5.701  12.428  0.00  0.00    +0.000 A 
ATOM     21  N   UNL     1      45.077   5.013  12.153  0.00  0.00    +0.000 N 
ATOM     22  C   UNL     1      44.279   5.478  11.010  0.00  0.00    +0.000 C 
ATOM     23  C   UNL     1      42.878   4.848  11.160  0.00  0.00    +0.000 C 
ATOM     24  O   UNL     1      42.942   3.407  11.195  0.00  0.00    +0.000 OA
ATOM     25  C   UNL     1      43.784   2.960  12.274  0.00  0.00    +0.000 C 
ATOM     26  C   UNL     1      45.200   3.546  12.161  0.00  0.00    +0.000 C 
ATOM     27  C   UNL     1      46.763   5.614  13.722  0.00  0.00    +0.000 A 
ENDBRANCH  15  16
ENDBRANCH   1  15
TORSDOF 4
ENDMDL
MODEL 8
REMARK VINA RESULT:    -6.406      4.062      8.269
REMARK INTER + INTRA:          -8.998
REMARK INTER:                  -8.149
REMARK INTRA:                  -0.849
REMARK UNBOUND:                -1.094
REMARK  Name = 
REMARK  4 active torsions:
REMARK  status: ('A' for Active; 'I' for Inactive)
REMARK    1  A    between atoms: C_2  and  C_4
REMARK    2  A    between atoms: C_10  and  N_11
REMARK    3  A    between atoms: N_11  and  C_12
REMARK    4  A    between atoms: C_12  and  C_13
REMARK                            x       y       z     vdW  Elec       q    Type
REMARK                         _______ _______ _______ _____ _____    ______ ____
ROOT
ATOM      1  N   UNL     1      46.099   4.425  14.722  0.00  0.00    +0.000 N 
ATOM      2  H   UNL     1      45.215   3.920  14.766  0.00  0.00    +0.000 HD
ENDROOT
BRANCH   1   9
ATOM      3  C   UNL     1      44.982   5.381  12.737  0.00  0.00    +0.000 A 
ATOM      4  C   UNL     1      45.086   6.173  11.579  0.00  0.00    +0.000 A 
ATOM      5  C   UNL     1      46.278   6.816  11.277  0.00  0.00    +0.000 A 
ATOM      6  C   UNL     1      47.325   6.642  12.157  0.00  0.00    +0.000 A 
ATOM      7 CL   UNL     1      48.835   7.411  11.902  0.00  0.00    +0.000 Cl
ATOM      8  N   UNL     1      47.270   5.874  13.263  0.00  0.00    +0.000 NA
ATOM      9  C   UNL     1      46.116   5.225  13.553  0.00  0.00    +0.000 A 
BRANCH   3  11
ATOM     10  N   UNL     1      42.554   5.582  12.868  0.00  0.00    +0.000 N 
ATOM     11  C   UNL     1      43.647   4.783  13.005  0.00  0.00    +0.000 C 
ATOM     12  O   UNL     1      43.533   3.596  13.289  0.00  0.00    +0.000 OA
ATOM     13  H   UNL     1      41.641   5.152  12.929  0.00  0.00    +0.000 HD
ATOM     14  H   UNL     1      42.624   6.541  12.537  0.00  0.00    +0.000 HD
ENDBRANCH   3  11
ENDBRANCH   1   9
BRANCH   1  15
ATOM     15  C   UNL     1      47.236   3.505  14.788  0.00  0.00    +0.000 C 
BRANCH  15  16
ATOM     16  C   UNL     1      47.885   3.541  16.146  0.00  0.00    +0.000 A 
ATOM     17  C   UNL     1      48.787   2.572  16.576  0.00  0.00    +0.000 A 
ATOM     18  C   UNL     1      49.364   2.727  17.828  0.00  0.00    +0.000 A 
ATOM     19  N   UNL     1      49.102   3.758  18.669  0.00  0.00    +0.000 NA
ATOM     20  C   UNL     1      48.240   4.703  18.249  0.00  0.00    +0.000 A 
ATOM     21  N   UNL     1      47.897   5.783  19.056  0.00  0.00    +0.000 N 
ATOM     22  C   UNL     1      48.133   5.642  20.499  0.00  0.00    +0.000 C 
ATOM     23  C   UNL     1      47.322   6.758  21.193  0.00  0.00    +0.000 C 
ATOM     24  O   UNL     1      47.711   8.068  20.729  0.00  0.00    +0.000 OA
ATOM     25  C   UNL     1      47.545   8.174  19.303  0.00  0.00    +0.000 C 
ATOM     26  C   UNL     1      48.350   7.094  18.562  0.00  0.00    +0.000 C 
ATOM     27  C   UNL     1      47.615   4.604  17.007  0.00  0.00    +0.000 A 
ENDBRANCH  15  16
ENDBRANCH   1  15
TORSDOF 4
ENDMDL
MODEL 9
REMARK VINA RESULT:    -6.294      3.051      7.269
REMARK INTER + INTRA:          -8.860
REMARK INTER:                  -8.370
REMARK INTRA:                  -0.489
REMARK UNBOUND:                -1.094
REMARK  Name = 
REMARK  4 active torsions:
REMARK  status: ('A' for Active; 'I' for Inactive)
REMARK    1  A    between atoms: C_2  and  C_4
REMARK    2  A    between atoms: C_10  and  N_11
REMARK    3  A    between atoms: N_11  and  C_12
REMARK    4  A    between atoms: C_12  and  C_13
REMARK                            x       y       z     vdW  Elec       q    Type
REMARK                         _______ _______ _______ _____ _____    ______ ____
ROOT
ATOM      1  N   UNL     1      45.211   5.872  10.898  0.00  0.00    +0.000 N 
ATOM      2  H   UNL     1      44.273   6.195  11.126  0.00  0.00    +0.000 HD
ENDROOT
BRANCH   1   9
ATOM      3  C   UNL     1      44.341   3.608  10.428  0.00  0.00    +0.000 A 
ATOM      4  C   UNL     1      44.318   2.498   9.564  0.00  0.00    +0.000 A 
ATOM      5  C   UNL     1      45.018   2.530   8.367  0.00  0.00    +0.000 A 
ATOM      6  C   UNL     1      45.716   3.682   8.078  0.00  0.00    +0.000 A 
ATOM      7 CL   UNL     1      46.592   3.846   6.615  0.00  0.00    +0.000 Cl
ATOM      8  N   UNL     1      45.780   4.757   8.889  0.00  0.00    +0.000 NA
ATOM      9  C   UNL     1      45.117   4.726  10.071  0.00  0.00    +0.000 A 
BRANCH   3  11
ATOM     10  N   UNL     1      43.691   2.410  12.451  0.00  0.00    +0.000 N 
ATOM     11  C   UNL     1      43.511   3.501  11.657  0.00  0.00    +0.000 C 
ATOM     12  O   UNL     1      42.729   4.391  11.970  0.00  0.00    +0.000 OA
ATOM     13  H   UNL     1      43.221   2.392  13.346  0.00  0.00    +0.000 HD
ATOM     14  H   UNL     1      44.406   1.714  12.257  0.00  0.00    +0.000 HD
ENDBRANCH   3  11
ENDBRANCH   1   9
BRANCH   1  15
ATOM     15  C   UNL     1      45.995   5.625  12.110  0.00  0.00    +0.000 C 
BRANCH  15  16
ATOM     16  C   UNL     1      46.898   6.788  12.418  0.00  0.00    +0.000 A 
ATOM     17  C   UNL     1      46.692   8.063  11.897  0.00  0.00    +0.000 A 
ATOM     18  C   UNL     1      47.557   9.075  12.285  0.00  0.00    +0.000 A 
ATOM     19  N   UNL     1      48.601   8.905  13.134  0.00  0.00    +0.000 NA
ATOM     20  C   UNL     1      48.795   7.677  13.648  0.00  0.00    +0.000 A 
ATOM     21  N   UNL     1      49.855   7.409  14.509  0.00  0.00    +0.000 N 
ATOM     22  C   UNL     1      50.986   8.346  14.491  0.00  0.00    +0.000 C 
ATOM     23  C   UNL     1      52.162   7.636  15.195  0.00  0.00    +0.000 C 
ATOM     24  O   UNL     1      51.825   7.256  16.545  0.00  0.00    +0.000 OA
ATOM     25  C   UNL     1      50.671   6.395  16.560  0.00  0.00    +0.000 C 
ATOM     26  C   UNL     1      49.463   7.064  15.885  0.00  0.00    +0.000 C 
ATOM     27  C   UNL     1      47.970   6.611  13.293  0.00  0.00    +0.000 A 
ENDBRANCH  15  16
ENDBRANCH   1  15
TORSDOF 4
ENDMDL
