MODEL 1
REMARK VINA RESULT:    -7.197      0.000      0.000
REMARK INTER + INTRA:         -10.152
REMARK INTER:                  -9.301
REMARK INTRA:                  -0.851
REMARK UNBOUND:                -0.851
REMARK  Name = 
REMARK  5 active torsions:
REMARK  status: ('A' for Active; 'I' for Inactive)
REMARK    1  A    between atoms: C_2  and  C_4
REMARK    2  A    between atoms: C_8  and  O_9
REMARK    3  A    between atoms: O_9  and  C_10
REMARK    4  A    between atoms: C_10  and  C_11
REMARK    5  A    between atoms: C_16  and  C_17
REMARK                            x       y       z     vdW  Elec       q    Type
REMARK                         _______ _______ _______ _____ _____    ______ ____
ROOT
ATOM      1  C   UNL     1      45.648   5.720  11.920  0.00  0.00    +0.000 A 
ATOM      2  C   UNL     1      45.796   4.741  12.906  0.00  0.00    +0.000 A 
ATOM      3  C   UNL     1      46.846   4.834  13.808  0.00  0.00    +0.000 A 
ATOM      4  F   UNL     1      46.989   3.893  14.750  0.00  0.00    +0.000 F 
ATOM      5  C   UNL     1      47.782   5.861  13.724  0.00  0.00    +0.000 A 
ATOM      6  C   UNL     1      47.699   6.817  12.704  0.00  0.00    +0.000 A 
ATOM      7  C   UNL     1      46.573   6.774  11.862  0.00  0.00    +0.000 A 
ENDROOT
BRANCH   6   8
ATOM      8  C   UNL     1      48.794   7.845  12.416  0.00  0.00    +0.000 C 
ATOM      9  C   UNL     1      49.480   8.297  13.727  0.00  0.00    +0.000 C 
ATOM     10  C   UNL     1      48.569   9.214  14.543  0.00  0.00    +0.000 C 
ATOM     11  N   UNL     1      48.215  10.418  13.793  0.00  0.00    +0.000 NA
ATOM     12  C   UNL     1      47.554  10.090  12.530  0.00  0.00    +0.000 C 
ATOM     13  C   UNL     1      48.367   9.121  11.662  0.00  0.00    +0.000 C 
ATOM     14  H   UNL     1      49.062  10.949  13.597  0.00  0.00    +0.000 HD
ENDBRANCH   6   8
BRANCH   1  15
ATOM     15  C   UNL     1      44.534   5.631  10.913  0.00  0.00    +0.000 C 
BRANCH  15  16
ATOM     16  O   UNL     1      45.101   5.470   9.619  0.00  0.00    +0.000 OA
BRANCH  16  21
ATOM     17  C   UNL     1      46.477   2.772   7.627  0.00  0.00    +0.000 A 
ATOM     18  C   UNL     1      45.790   1.653   8.109  0.00  0.00    +0.000 A 
ATOM     19  C   UNL     1      44.859   1.797   9.135  0.00  0.00    +0.000 A 
ATOM     20  C   UNL     1      44.601   3.058   9.675  0.00  0.00    +0.000 A 
ATOM     21  C   UNL     1      45.271   4.184   9.187  0.00  0.00    +0.000 A 
ATOM     22  C   UNL     1      46.204   4.036   8.159  0.00  0.00    +0.000 A 
BRANCH  17  24
ATOM     23  N   UNL     1      47.244   3.217   5.359  0.00  0.00    +0.000 N 
ATOM     24  C   UNL     1      47.477   2.582   6.546  0.00  0.00    +0.000 C 
ATOM     25  O   UNL     1      48.492   1.924   6.723  0.00  0.00    +0.000 OA
ATOM     26  H   UNL     1      47.982   3.167   4.671  0.00  0.00    +0.000 HD
ATOM     27  H   UNL     1      46.552   3.945   5.258  0.00  0.00    +0.000 HD
ENDBRANCH  17  24
ENDBRANCH  16  21
ENDBRANCH  15  16
ENDBRANCH   1  15
TORSDOF 5
ENDMDL
MODEL 2
REMARK VINA RESULT:    -7.147      4.435      7.927
REMARK INTER + INTRA:         -10.087
REMARK INTER:                 -10.039
REMARK INTRA:                  -0.048
REMARK UNBOUND:                -0.851
REMARK  Name = 
REMARK  5 active torsions:
REMARK  status: ('A' for Active; 'I' for Inactive)
REMARK    1  A    between atoms: C_2  and  C_4
REMARK    2  A    between atoms: C_8  and  O_9
REMARK    3  A    between atoms: O_9  and  C_10
REMARK    4  A    between atoms: C_10  and  C_11
REMARK    5  A    between atoms: C_16  and  C_17
REMARK                            x       y       z     vdW  Elec       q    Type
REMARK                         _______ _______ _______ _____ _____    ______ ____
ROOT
ATOM      1  C   UNL     1      46.725   4.689  13.380  0.00  0.00    +0.000 A 
ATOM      2  C   UNL     1      47.547   5.789  13.126  0.00  0.00    +0.000 A 
ATOM      3  C   UNL     1      47.176   6.710  12.158  0.00  0.00    +0.000 A 
ATOM      4  F   UNL     1      47.968   7.762  11.913  0.00  0.00    +0.000 F 
ATOM      5  C   UNL     1      46.021   6.537  11.401  0.00  0.00    +0.000 A 
ATOM      6  C   UNL     1      45.214   5.408  11.584  0.00  0.00    +0.000 A 
ATOM      7  C   UNL     1      45.542   4.538  12.641  0.00  0.00    +0.000 A 
ENDROOT
BRANCH   6   8
ATOM      8  C   UNL     1      44.053   5.038  10.661  0.00  0.00    +0.000 C 
ATOM      9  C   UNL     1      42.954   4.276  11.440  0.00  0.00    +0.000 C 
ATOM     10  C   UNL     1      43.395   2.850  11.771  0.00  0.00    +0.000 C 
ATOM     11  N   UNL     1      43.684   2.087  10.558  0.00  0.00    +0.000 NA
ATOM     12  C   UNL     1      44.720   2.732   9.752  0.00  0.00    +0.000 C 
ATOM     13  C   UNL     1      44.397   4.194   9.416  0.00  0.00    +0.000 C 
ATOM     14  H   UNL     1      42.833   2.008  10.004  0.00  0.00    +0.000 HD
ENDBRANCH   6   8
BRANCH   1  15
ATOM     15  C   UNL     1      47.114   3.661  14.407  0.00  0.00    +0.000 C 
BRANCH  15  16
ATOM     16  O   UNL     1      46.579   4.048  15.666  0.00  0.00    +0.000 OA
BRANCH  16  21
ATOM     17  C   UNL     1      49.533   3.175  17.576  0.00  0.00    +0.000 A 
ATOM     18  C   UNL     1      49.394   3.952  18.730  0.00  0.00    +0.000 A 
ATOM     19  C   UNL     1      48.298   4.802  18.869  0.00  0.00    +0.000 A 
ATOM     20  C   UNL     1      47.333   4.870  17.863  0.00  0.00    +0.000 A 
ATOM     21  C   UNL     1      47.457   4.084  16.713  0.00  0.00    +0.000 A 
ATOM     22  C   UNL     1      48.556   3.233  16.578  0.00  0.00    +0.000 A 
BRANCH  17  24
ATOM     23  N   UNL     1      51.811   2.598  18.219  0.00  0.00    +0.000 N 
ATOM     24  C   UNL     1      50.722   2.294  17.451  0.00  0.00    +0.000 C 
ATOM     25  O   UNL     1      50.714   1.308  16.727  0.00  0.00    +0.000 OA
ATOM     26  H   UNL     1      52.570   1.932  18.205  0.00  0.00    +0.000 HD
ATOM     27  H   UNL     1      51.769   3.251  18.988  0.00  0.00    +0.000 HD
ENDBRANCH  17  24
ENDBRANCH  16  21
ENDBRANCH  15  16
ENDBRANCH   1  15
TORSDOF 5
ENDMDL
MODEL 3
REMARK VINA RESULT:    -6.762      3.206      7.220
REMARK INTER + INTRA:          -9.589
REMARK INTER:                  -9.137
REMARK INTRA:                  -0.452
REMARK UNBOUND:                -0.851
REMARK  Name = 
REMARK  5 active torsions:
REMARK  status: ('A' for Active; 'I' for Inactive)
REMARK    1  A    between atoms: C_2  and  C_4
REMARK    2  A    between atoms: C_8  and  O_9
REMARK    3  A    between atoms: O_9  and  C_10
REMARK    4  A    between atoms: C_10  and  C_11
REMARK    5  A    between atoms: C_16  and  C_17
REMARK                            x       y       z     vdW  Elec       q    Type
REMARK                         _______ _______ _______ _____ _____    ______ ____
ROOT
ATOM      1  C   UNL     1      47.305   6.733  12.420  0.00  0.00    +0.000 A 
ATOM      2  C   UNL     1      47.367   6.049  13.636  0.00  0.00    +0.000 A 
ATOM      3  C   UNL     1      46.531   4.963  13.851  0.00  0.00    +0.000 A 
ATOM      4  F   UNL     1      46.589   4.310  15.020  0.00  0.00    +0.000 F 
ATOM      5  C   UNL     1      45.600   4.566  12.896  0.00  0.00    +0.000 A 
ATOM      6  C   UNL     1      45.467   5.276  11.696  0.00  0.00    +0.000 A 
ATOM      7  C   UNL     1      46.390   6.308  11.444  0.00  0.00    +0.000 A 
ENDROOT
BRANCH   6   8
ATOM      8  C   UNL     1      44.337   5.040  10.693  0.00  0.00    +0.000 C 
ATOM      9  C   UNL     1      43.155   4.300  11.363  0.00  0.00    +0.000 C 
ATOM     10  C   UNL     1      43.492   2.831  11.620  0.00  0.00    +0.000 C 
ATOM     11  N   UNL     1      43.801   2.131  10.374  0.00  0.00    +0.000 NA
ATOM     12  C   UNL     1      44.915   2.759   9.666  0.00  0.00    +0.000 C 
ATOM     13  C   UNL     1      44.697   4.257   9.414  0.00  0.00    +0.000 C 
ATOM     14  H   UNL     1      42.977   2.140   9.774  0.00  0.00    +0.000 HD
ENDBRANCH   6   8
BRANCH   1  15
ATOM     15  C   UNL     1      48.181   7.930  12.168  0.00  0.00    +0.000 C 
BRANCH  15  16
ATOM     16  O   UNL     1      47.637   9.047  12.857  0.00  0.00    +0.000 OA
BRANCH  16  21
ATOM     17  C   UNL     1      44.728  10.614  11.365  0.00  0.00    +0.000 A 
ATOM     18  C   UNL     1      45.290  11.646  10.608  0.00  0.00    +0.000 A 
ATOM     19  C   UNL     1      46.670  11.839  10.609  0.00  0.00    +0.000 A 
ATOM     20  C   UNL     1      47.494  10.994  11.353  0.00  0.00    +0.000 A 
ATOM     21  C   UNL     1      46.941   9.948  12.100  0.00  0.00    +0.000 A 
ATOM     22  C   UNL     1      45.558   9.759  12.097  0.00  0.00    +0.000 A 
BRANCH  17  24
ATOM     23  N   UNL     1      42.752   9.311  10.790  0.00  0.00    +0.000 N 
ATOM     24  C   UNL     1      43.253  10.448  11.359  0.00  0.00    +0.000 C 
ATOM     25  O   UNL     1      42.514  11.271  11.882  0.00  0.00    +0.000 OA
ATOM     26  H   UNL     1      41.759   9.160  10.888  0.00  0.00    +0.000 HD
ATOM     27  H   UNL     1      43.332   8.515  10.566  0.00  0.00    +0.000 HD
ENDBRANCH  17  24
ENDBRANCH  16  21
ENDBRANCH  15  16
ENDBRANCH   1  15
TORSDOF 5
ENDMDL
MODEL 4
REMARK VINA RESULT:    -6.761      4.162      7.749
REMARK INTER + INTRA:          -9.587
REMARK INTER:                  -8.751
REMARK INTRA:                  -0.836
REMARK UNBOUND:                -0.851
REMARK  Name = 
REMARK  5 active torsions:
REMARK  status: ('A' for Active; 'I' for Inactive)
REMARK    1  A    between atoms: C_2  and  C_4
REMARK    2  A    between atoms: C_8  and  O_9
REMARK    3  A    between atoms: O_9  and  C_10
REMARK    4  A    between atoms: C_10  and  C_11
REMARK    5  A    between atoms: C_16  and  C_17
REMARK                            x       y       z     vdW  Elec       q    Type
REMARK                         _______ _______ _______ _____ _____    ______ ____
ROOT
ATOM      1  C   UNL     1      47.141   7.689  12.777  0.00  0.00    +0.000 A 
ATOM      2  C   UNL     1      46.629   8.987  12.716  0.00  0.00    +0.000 A 
ATOM      3  C   UNL     1      45.358   9.196  12.201  0.00  0.00    +0.000 A 
ATOM      4  F   UNL     1      44.870  10.442  12.141  0.00  0.00    +0.000 F 
ATOM      5  C   UNL     1      44.597   8.142  11.703  0.00  0.00    +0.000 A 
ATOM      6  C   UNL     1      45.113   6.840  11.686  0.00  0.00    +0.000 A 
ATOM      7  C   UNL     1      46.357   6.624  12.307  0.00  0.00    +0.000 A 
ENDROOT
BRANCH   6   8
ATOM      8  C   UNL     1      44.435   5.670  10.971  0.00  0.00    +0.000 C 
ATOM      9  C   UNL     1      42.983   5.489  11.473  0.00  0.00    +0.000 C 
ATOM     10  C   UNL     1      42.951   4.895  12.881  0.00  0.00    +0.000 C 
ATOM     11  N   UNL     1      43.598   3.584  12.920  0.00  0.00    +0.000 NA
ATOM     12  C   UNL     1      44.985   3.655  12.463  0.00  0.00    +0.000 C 
ATOM     13  C   UNL     1      45.128   4.296  11.076  0.00  0.00    +0.000 C 
ATOM     14  H   UNL     1      43.083   2.940  12.321  0.00  0.00    +0.000 HD
ENDBRANCH   6   8
BRANCH   1  15
ATOM     15  C   UNL     1      48.526   7.434  13.306  0.00  0.00    +0.000 C 
BRANCH  15  16
ATOM     16  O   UNL     1      48.545   6.162  13.941  0.00  0.00    +0.000 OA
BRANCH  16  21
ATOM     17  C   UNL     1      47.992   4.838  17.270  0.00  0.00    +0.000 A 
ATOM     18  C   UNL     1      48.333   5.917  18.090  0.00  0.00    +0.000 A 
ATOM     19  C   UNL     1      48.777   7.110  17.523  0.00  0.00    +0.000 A 
ATOM     20  C   UNL     1      48.868   7.234  16.136  0.00  0.00    +0.000 A 
ATOM     21  C   UNL     1      48.513   6.165  15.308  0.00  0.00    +0.000 A 
ATOM     22  C   UNL     1      48.069   4.971  15.879  0.00  0.00    +0.000 A 
BRANCH  17  24
ATOM     23  N   UNL     1      48.188   3.181  19.044  0.00  0.00    +0.000 N 
ATOM     24  C   UNL     1      47.542   3.575  17.906  0.00  0.00    +0.000 C 
ATOM     25  O   UNL     1      46.600   2.934  17.460  0.00  0.00    +0.000 OA
ATOM     26  H   UNL     1      47.803   2.381  19.525  0.00  0.00    +0.000 HD
ATOM     27  H   UNL     1      48.799   3.796  19.563  0.00  0.00    +0.000 HD
ENDBRANCH  17  24
ENDBRANCH  16  21
ENDBRANCH  15  16
ENDBRANCH   1  15
TORSDOF 5
ENDMDL
MODEL 5
REMARK VINA RESULT:    -6.600      2.167      2.700
REMARK INTER + INTRA:          -9.380
REMARK INTER:                  -8.793
REMARK INTRA:                  -0.587
REMARK UNBOUND:                -0.851
REMARK  Name = 
REMARK  5 active torsions:
REMARK  status: ('A' for Active; 'I' for Inactive)
REMARK    1  A    between atoms: C_2  and  C_4
REMARK    2  A    between atoms: C_8  and  O_9
REMARK    3  A    between atoms: O_9  and  C_10
REMARK    4  A    between atoms: C_10  and  C_11
REMARK    5  A    between atoms: C_16  and  C_17
REMARK                            x       y       z     vdW  Elec       q    Type
REMARK                         _______ _______ _______ _____ _____    ______ ____
ROOT
ATOM      1  C   UNL     1      45.431   6.871  11.442  0.00  0.00    +0.000 A 
ATOM      2  C   UNL     1      44.566   7.967  11.422  0.00  0.00    +0.000 A 
ATOM      3  C   UNL     1      45.017   9.200  11.870  0.00  0.00    +0.000 A 
ATOM      4  F   UNL     1      44.185  10.250  11.854  0.00  0.00    +0.000 F 
ATOM      5  C   UNL     1      46.302   9.358  12.381  0.00  0.00    +0.000 A 
ATOM      6  C   UNL     1      47.168   8.262  12.478  0.00  0.00    +0.000 A 
ATOM      7  C   UNL     1      46.738   7.042  11.923  0.00  0.00    +0.000 A 
ENDROOT
BRANCH   6   8
ATOM      8  C   UNL     1      48.508   8.303  13.213  0.00  0.00    +0.000 C 
ATOM      9  C   UNL     1      49.126   9.720  13.147  0.00  0.00    +0.000 C 
ATOM     10  C   UNL     1      49.665  10.026  11.750  0.00  0.00    +0.000 C 
ATOM     11  N   UNL     1      50.705   9.074  11.361  0.00  0.00    +0.000 NA
ATOM     12  C   UNL     1      50.211   7.698  11.390  0.00  0.00    +0.000 C 
ATOM     13  C   UNL     1      49.591   7.312  12.740  0.00  0.00    +0.000 C 
ATOM     14  H   UNL     1      51.492   9.159  12.002  0.00  0.00    +0.000 HD
ENDBRANCH   6   8
BRANCH   1  15
ATOM     15  C   UNL     1      44.962   5.516  10.986  0.00  0.00    +0.000 C 
BRANCH  15  16
ATOM     16  O   UNL     1      45.182   5.404   9.586  0.00  0.00    +0.000 OA
BRANCH  16  21
ATOM     17  C   UNL     1      46.480   2.850   7.366  0.00  0.00    +0.000 A 
ATOM     18  C   UNL     1      45.943   1.675   7.901  0.00  0.00    +0.000 A 
ATOM     19  C   UNL     1      45.144   1.732   9.042  0.00  0.00    +0.000 A 
ATOM     20  C   UNL     1      44.868   2.961   9.642  0.00  0.00    +0.000 A 
ATOM     21  C   UNL     1      45.387   4.142   9.103  0.00  0.00    +0.000 A 
ATOM     22  C   UNL     1      46.188   4.082   7.961  0.00  0.00    +0.000 A 
BRANCH  17  24
ATOM     23  N   UNL     1      48.676   2.526   6.363  0.00  0.00    +0.000 N 
ATOM     24  C   UNL     1      47.344   2.753   6.162  0.00  0.00    +0.000 C 
ATOM     25  O   UNL     1      46.878   2.826   5.033  0.00  0.00    +0.000 OA
ATOM     26  H   UNL     1      49.232   2.355   5.537  0.00  0.00    +0.000 HD
ATOM     27  H   UNL     1      49.049   2.229   7.253  0.00  0.00    +0.000 HD
ENDBRANCH  17  24
ENDBRANCH  16  21
ENDBRANCH  15  16
ENDBRANCH   1  15
TORSDOF 5
ENDMDL
MODEL 6
REMARK VINA RESULT:    -6.565      4.729      8.706
REMARK INTER + INTRA:          -9.335
REMARK INTER:                  -9.020
REMARK INTRA:                  -0.315
REMARK UNBOUND:                -0.851
REMARK  Name = 
REMARK  5 active torsions:
REMARK  status: ('A' for Active; 'I' for Inactive)
REMARK    1  A    between atoms: C_2  and  C_4
REMARK    2  A    between atoms: C_8  and  O_9
REMARK    3  A    between atoms: O_9  and  C_10
REMARK    4  A    between atoms: C_10  and  C_11
REMARK    5  A    between atoms: C_16  and  C_17
REMARK                            x       y       z     vdW  Elec       q    Type
REMARK                         _______ _______ _______ _____ _____    ______ ____
ROOT
ATOM      1  C   UNL     1      46.719   5.287  13.815  0.00  0.00    +0.000 A 
ATOM      2  C   UNL     1      47.697   6.026  13.146  0.00  0.00    +0.000 A 
ATOM      3  C   UNL     1      47.391   6.619  11.929  0.00  0.00    +0.000 A 
ATOM      4  F   UNL     1      48.332   7.324  11.287  0.00  0.00    +0.000 F 
ATOM      5  C   UNL     1      46.141   6.457  11.340  0.00  0.00    +0.000 A 
ATOM      6  C   UNL     1      45.163   5.665  11.954  0.00  0.00    +0.000 A 
ATOM      7  C   UNL     1      45.447   5.157  13.236  0.00  0.00    +0.000 A 
ENDROOT
BRANCH   6   8
ATOM      8  C   UNL     1      43.849   5.267  11.280  0.00  0.00    +0.000 C 
ATOM      9  C   UNL     1      43.004   4.369  12.215  0.00  0.00    +0.000 C 
ATOM     10  C   UNL     1      43.597   2.963  12.320  0.00  0.00    +0.000 C 
ATOM     11  N   UNL     1      43.653   2.310  11.014  0.00  0.00    +0.000 NA
ATOM     12  C   UNL     1      44.439   3.088  10.056  0.00  0.00    +0.000 C 
ATOM     13  C   UNL     1      43.957   4.539   9.924  0.00  0.00    +0.000 C 
ATOM     14  H   UNL     1      42.705   2.200  10.655  0.00  0.00    +0.000 HD
ENDBRANCH   6   8
BRANCH   1  15
ATOM     15  C   UNL     1      47.029   4.612  15.123  0.00  0.00    +0.000 C 
BRANCH  15  16
ATOM     16  O   UNL     1      48.374   4.903  15.479  0.00  0.00    +0.000 OA
BRANCH  16  21
ATOM     17  C   UNL     1      48.734   5.441  19.045  0.00  0.00    +0.000 A 
ATOM     18  C   UNL     1      48.890   6.828  19.133  0.00  0.00    +0.000 A 
ATOM     19  C   UNL     1      48.894   7.602  17.974  0.00  0.00    +0.000 A 
ATOM     20  C   UNL     1      48.730   6.997  16.727  0.00  0.00    +0.000 A 
ATOM     21  C   UNL     1      48.557   5.613  16.633  0.00  0.00    +0.000 A 
ATOM     22  C   UNL     1      48.553   4.840  17.796  0.00  0.00    +0.000 A 
BRANCH  17  24
ATOM     23  N   UNL     1      48.390   3.329  20.208  0.00  0.00    +0.000 N 
ATOM     24  C   UNL     1      48.754   4.643  20.297  0.00  0.00    +0.000 C 
ATOM     25  O   UNL     1      49.126   5.125  21.358  0.00  0.00    +0.000 OA
ATOM     26  H   UNL     1      48.510   2.772  21.042  0.00  0.00    +0.000 HD
ATOM     27  H   UNL     1      48.307   2.846  19.325  0.00  0.00    +0.000 HD
ENDBRANCH  17  24
ENDBRANCH  16  21
ENDBRANCH  15  16
ENDBRANCH   1  15
TORSDOF 5
ENDMDL
MODEL 7
REMARK VINA RESULT:    -6.331      4.019      5.747
REMARK INTER + INTRA:          -9.032
REMARK INTER:                  -8.311
REMARK INTRA:                  -0.722
REMARK UNBOUND:                -0.851
REMARK  Name = 
REMARK  5 active torsions:
REMARK  status: ('A' for Active; 'I' for Inactive)
REMARK    1  A    between atoms: C_2  and  C_4
REMARK    2  A    between atoms: C_8  and  O_9
REMARK    3  A    between atoms: O_9  and  C_10
REMARK    4  A    between atoms: C_10  and  C_11
REMARK    5  A    between atoms: C_16  and  C_17
REMARK                            x       y       z     vdW  Elec       q    Type
REMARK                         _______ _______ _______ _____ _____    ______ ____
ROOT
ATOM      1  C   UNL     1      48.445   3.579  16.607  0.00  0.00    +0.000 A 
ATOM      2  C   UNL     1      49.163   2.385  16.706  0.00  0.00    +0.000 A 
ATOM      3  C   UNL     1      50.411   2.388  17.311  0.00  0.00    +0.000 A 
ATOM      4  F   UNL     1      51.100   1.242  17.402  0.00  0.00    +0.000 F 
ATOM      5  C   UNL     1      50.982   3.565  17.785  0.00  0.00    +0.000 A 
ATOM      6  C   UNL     1      50.316   4.788  17.636  0.00  0.00    +0.000 A 
ATOM      7  C   UNL     1      49.008   4.758  17.118  0.00  0.00    +0.000 A 
ENDROOT
BRANCH   6   8
ATOM      8  C   UNL     1      50.957   6.143  17.935  0.00  0.00    +0.000 C 
ATOM      9  C   UNL     1      50.361   7.244  17.026  0.00  0.00    +0.000 C 
ATOM     10  C   UNL     1      50.863   7.109  15.588  0.00  0.00    +0.000 C 
ATOM     11  N   UNL     1      52.319   7.223  15.520  0.00  0.00    +0.000 NA
ATOM     12  C   UNL     1      52.977   6.214  16.351  0.00  0.00    +0.000 C 
ATOM     13  C   UNL     1      52.492   6.229  17.807  0.00  0.00    +0.000 C 
ATOM     14  H   UNL     1      52.597   8.150  15.840  0.00  0.00    +0.000 HD
ENDBRANCH   6   8
BRANCH   1  15
ATOM     15  C   UNL     1      47.100   3.611  15.933  0.00  0.00    +0.000 C 
BRANCH  15  16
ATOM     16  O   UNL     1      47.267   3.265  14.564  0.00  0.00    +0.000 OA
BRANCH  16  21
ATOM     17  C   UNL     1      45.328   4.657  11.836  0.00  0.00    +0.000 A 
ATOM     18  C   UNL     1      45.894   5.925  11.673  0.00  0.00    +0.000 A 
ATOM     19  C   UNL     1      46.935   6.336  12.504  0.00  0.00    +0.000 A 
ATOM     20  C   UNL     1      47.423   5.478  13.490  0.00  0.00    +0.000 A 
ATOM     21  C   UNL     1      46.873   4.201  13.649  0.00  0.00    +0.000 A 
ATOM     22  C   UNL     1      45.831   3.794  12.815  0.00  0.00    +0.000 A 
BRANCH  17  24
ATOM     23  N   UNL     1      43.484   5.260  10.363  0.00  0.00    +0.000 N 
ATOM     24  C   UNL     1      44.207   4.258  10.948  0.00  0.00    +0.000 C 
ATOM     25  O   UNL     1      43.968   3.083  10.708  0.00  0.00    +0.000 OA
ATOM     26  H   UNL     1      42.797   4.976   9.680  0.00  0.00    +0.000 HD
ATOM     27  H   UNL     1      43.796   6.220  10.350  0.00  0.00    +0.000 HD
ENDBRANCH  17  24
ENDBRANCH  16  21
ENDBRANCH  15  16
ENDBRANCH   1  15
TORSDOF 5
ENDMDL
MODEL 8
REMARK VINA RESULT:    -6.223      3.551      5.210
REMARK INTER + INTRA:          -8.893
REMARK INTER:                  -8.195
REMARK INTRA:                  -0.698
REMARK UNBOUND:                -0.851
REMARK  Name = 
REMARK  5 active torsions:
REMARK  status: ('A' for Active; 'I' for Inactive)
REMARK    1  A    between atoms: C_2  and  C_4
REMARK    2  A    between atoms: C_8  and  O_9
REMARK    3  A    between atoms: O_9  and  C_10
REMARK    4  A    between atoms: C_10  and  C_11
REMARK    5  A    between atoms: C_16  and  C_17
REMARK                            x       y       z     vdW  Elec       q    Type
REMARK                         _______ _______ _______ _____ _____    ______ ____
ROOT
ATOM      1  C   UNL     1      48.031   6.393  14.040  0.00  0.00    +0.000 A 
ATOM      2  C   UNL     1      48.777   7.535  14.342  0.00  0.00    +0.000 A 
ATOM      3  C   UNL     1      49.342   7.668  15.602  0.00  0.00    +0.000 A 
ATOM      4  F   UNL     1      50.053   8.766  15.891  0.00  0.00    +0.000 F 
ATOM      5  C   UNL     1      49.146   6.705  16.587  0.00  0.00    +0.000 A 
ATOM      6  C   UNL     1      48.346   5.583  16.336  0.00  0.00    +0.000 A 
ATOM      7  C   UNL     1      47.867   5.407  15.024  0.00  0.00    +0.000 A 
ENDROOT
BRANCH   6   8
ATOM      8  C   UNL     1      47.912   4.593  17.417  0.00  0.00    +0.000 C 
ATOM      9  C   UNL     1      48.953   4.538  18.560  0.00  0.00    +0.000 C 
ATOM     10  C   UNL     1      50.218   3.799  18.124  0.00  0.00    +0.000 C 
ATOM     11  N   UNL     1      49.922   2.423  17.731  0.00  0.00    +0.000 NA
ATOM     12  C   UNL     1      48.942   2.372  16.646  0.00  0.00    +0.000 C 
ATOM     13  C   UNL     1      47.653   3.141  16.966  0.00  0.00    +0.000 C 
ATOM     14  H   UNL     1      49.553   1.919  18.536  0.00  0.00    +0.000 HD
ENDBRANCH   6   8
BRANCH   1  15
ATOM     15  C   UNL     1      47.385   6.233  12.691  0.00  0.00    +0.000 C 
BRANCH  15  16
ATOM     16  O   UNL     1      46.073   6.778  12.746  0.00  0.00    +0.000 OA
BRANCH  16  21
ATOM     17  C   UNL     1      44.383   4.328  10.678  0.00  0.00    +0.000 A 
ATOM     18  C   UNL     1      43.134   4.212  11.297  0.00  0.00    +0.000 A 
ATOM     19  C   UNL     1      42.854   4.954  12.443  0.00  0.00    +0.000 A 
ATOM     20  C   UNL     1      43.812   5.823  12.966  0.00  0.00    +0.000 A 
ATOM     21  C   UNL     1      45.057   5.957  12.343  0.00  0.00    +0.000 A 
ATOM     22  C   UNL     1      45.335   5.212  11.196  0.00  0.00    +0.000 A 
BRANCH  17  24
ATOM     23  N   UNL     1      44.234   4.004   8.269  0.00  0.00    +0.000 N 
ATOM     24  C   UNL     1      44.657   3.509   9.470  0.00  0.00    +0.000 C 
ATOM     25  O   UNL     1      45.277   2.457   9.538  0.00  0.00    +0.000 OA
ATOM     26  H   UNL     1      44.520   3.492   7.447  0.00  0.00    +0.000 HD
ATOM     27  H   UNL     1      43.936   4.961   8.149  0.00  0.00    +0.000 HD
ENDBRANCH  17  24
ENDBRANCH  16  21
ENDBRANCH  15  16
ENDBRANCH   1  15
TORSDOF 5
ENDMDL
MODEL 9
REMARK VINA RESULT:    -6.178      4.397      6.165
REMARK INTER + INTRA:          -8.835
REMARK INTER:                  -7.850
REMARK INTRA:                  -0.984
REMARK UNBOUND:                -0.851
REMARK  Name = 
REMARK  5 active torsions:
REMARK  status: ('A' for Active; 'I' for Inactive)
REMARK    1  A    between atoms: C_2  and  C_4
REMARK    2  A    between atoms: C_8  and  O_9
REMARK    3  A    between atoms: O_9  and  C_10
REMARK    4  A    between atoms: C_10  and  C_11
REMARK    5  A    between atoms: C_16  and  C_17
REMARK                            x       y       z     vdW  Elec       q    Type
REMARK                         _______ _______ _______ _____ _____    ______ ____
ROOT
ATOM      1  C   UNL     1      49.085   7.814  14.588  0.00  0.00    +0.000 A 
ATOM      2  C   UNL     1      48.607   9.051  15.028  0.00  0.00    +0.000 A 
ATOM      3  C   UNL     1      48.495   9.294  16.389  0.00  0.00    +0.000 A 
ATOM      4  F   UNL     1      48.032  10.479  16.809  0.00  0.00    +0.000 F 
ATOM      5  C   UNL     1      48.809   8.315  17.327  0.00  0.00    +0.000 A 
ATOM      6  C   UNL     1      49.224   7.043  16.914  0.00  0.00    +0.000 A 
ATOM      7  C   UNL     1      49.436   6.842  15.537  0.00  0.00    +0.000 A 
ENDROOT
BRANCH   6   8
ATOM      8  C   UNL     1      49.385   5.855  17.863  0.00  0.00    +0.000 C 
ATOM      9  C   UNL     1      48.885   4.550  17.199  0.00  0.00    +0.000 C 
ATOM     10  C   UNL     1      47.359   4.520  17.113  0.00  0.00    +0.000 C 
ATOM     11  N   UNL     1      46.750   4.600  18.440  0.00  0.00    +0.000 NA
ATOM     12  C   UNL     1      47.164   5.810  19.150  0.00  0.00    +0.000 C 
ATOM     13  C   UNL     1      48.689   5.963  19.235  0.00  0.00    +0.000 C 
ATOM     14  H   UNL     1      47.028   3.784  18.984  0.00  0.00    +0.000 HD
ENDBRANCH   6   8
BRANCH   1  15
ATOM     15  C   UNL     1      49.194   7.513  13.118  0.00  0.00    +0.000 C 
BRANCH  15  16
ATOM     16  O   UNL     1      48.794   6.166  12.898  0.00  0.00    +0.000 OA
BRANCH  16  21
ATOM     17  C   UNL     1      45.282   6.740  12.210  0.00  0.00    +0.000 A 
ATOM     18  C   UNL     1      44.664   5.660  12.847  0.00  0.00    +0.000 A 
ATOM     19  C   UNL     1      45.436   4.706  13.506  0.00  0.00    +0.000 A 
ATOM     20  C   UNL     1      46.825   4.833  13.544  0.00  0.00    +0.000 A 
ATOM     21  C   UNL     1      47.450   5.920  12.923  0.00  0.00    +0.000 A 
ATOM     22  C   UNL     1      46.673   6.874  12.263  0.00  0.00    +0.000 A 
BRANCH  17  24
ATOM     23  N   UNL     1      43.203   7.308  11.076  0.00  0.00    +0.000 N 
ATOM     24  C   UNL     1      44.432   7.729  11.499  0.00  0.00    +0.000 C 
ATOM     25  O   UNL     1      44.795   8.886  11.339  0.00  0.00    +0.000 OA
ATOM     26  H   UNL     1      42.594   8.017  10.691  0.00  0.00    +0.000 HD
ATOM     27  H   UNL     1      42.783   6.447  11.394  0.00  0.00    +0.000 HD
ENDBRANCH  17  24
ENDBRANCH  16  21
ENDBRANCH  15  16
ENDBRANCH   1  15
TORSDOF 5
ENDMDL
