MODEL 1
REMARK VINA RESULT:    -7.797      0.000      0.000
REMARK INTER + INTRA:         -12.370
REMARK INTER:                 -11.216
REMARK INTRA:                  -1.154
REMARK UNBOUND:                -1.154
REMARK  Name = 
REMARK  10 active torsions:
REMARK  status: ('A' for Active; 'I' for Inactive)
REMARK    1  A    between atoms: C_1  and  C_2
REMARK    2  A    between atoms: C_5  and  C_6
REMARK    3  A    between atoms: C_6  and  N_7
REMARK    4  A    between atoms: N_7  and  C_8
REMARK    5  A    between atoms: C_8  and  C_9
REMARK    6  A    between atoms: C_12  and  C_13
REMARK    7  A    between atoms: C_13  and  N_14
REMARK    8  A    between atoms: N_14  and  C_15
REMARK    9  A    between atoms: C_16  and  C_18
REMARK   10  A    between atoms: C_25  and  O_26
REMARK                            x       y       z     vdW  Elec       q    Type
REMARK                         _______ _______ _______ _____ _____    ______ ____
ROOT
ATOM      1  C   UNL     1      46.216   6.529  12.123  0.00  0.00    +0.000 A 
ATOM      2  C   UNL     1      46.586   5.558  13.064  0.00  0.00    +0.000 A 
ATOM      3  C   UNL     1      47.553   5.838  14.022  0.00  0.00    +0.000 A 
ATOM      4  C   UNL     1      48.184   7.090  14.049  0.00  0.00    +0.000 A 
ATOM      5  C   UNL     1      47.804   8.069  13.124  0.00  0.00    +0.000 A 
ATOM      6  C   UNL     1      46.821   7.793  12.172  0.00  0.00    +0.000 A 
ENDROOT
BRANCH   1   7
ATOM      7  C   UNL     1      45.178   6.207  11.076  0.00  0.00    +0.000 C 
BRANCH   7   8
ATOM      8  N   UNL     1      44.683   4.830  11.156  0.00  0.00    +0.000 NA
ATOM      9  H   UNL     1      45.469   4.207  11.318  0.00  0.00    +0.000 HD
BRANCH   8  10
ATOM     10  C   UNL     1      44.014   4.421   9.920  0.00  0.00    +0.000 C 
BRANCH  10  15
ATOM     11  C   UNL     1      47.629   1.350   6.539  0.00  0.00    +0.000 C 
ATOM     12  C   UNL     1      46.709   2.155   7.408  0.00  0.00    +0.000 A 
ATOM     13  C   UNL     1      46.601   3.541   7.257  0.00  0.00    +0.000 A 
ATOM     14  C   UNL     1      45.730   4.272   8.067  0.00  0.00    +0.000 A 
ATOM     15  C   UNL     1      44.947   3.630   9.040  0.00  0.00    +0.000 A 
ATOM     16  C   UNL     1      45.066   2.243   9.191  0.00  0.00    +0.000 A 
ATOM     17  C   UNL     1      45.938   1.513   8.384  0.00  0.00    +0.000 A 
ENDBRANCH  10  15
ENDBRANCH   8  10
ENDBRANCH   7   8
ENDBRANCH   1   7
BRANCH   4  18
ATOM     18  C   UNL     1      49.199   7.390  15.113  0.00  0.00    +0.000 C 
BRANCH  18  19
ATOM     19  N   UNL     1      48.740   7.881  16.415  0.00  0.00    +0.000 N 
ATOM     20  C   UNL     1      48.147   9.216  16.475  0.00  0.00    +0.000 C 
ATOM     21  C   UNL     1      49.199   7.339  17.646  0.00  0.00    +0.000 C 
ATOM     22  O   UNL     1      48.952   7.897  18.710  0.00  0.00    +0.000 OA
BRANCH  21  23
ATOM     23  C   UNL     1      49.999   6.093  17.635  0.00  0.00    +0.000 A 
ATOM     24  C   UNL     1      51.327   6.017  18.026  0.00  0.00    +0.000 A 
ATOM     25  S   UNL     1      52.053   4.511  17.712  0.00  0.00    +0.000 S 
ATOM     26  C   UNL     1      50.544   3.824  17.363  0.00  0.00    +0.000 A 
ATOM     27  N   UNL     1      50.459   2.505  17.132  0.00  0.00    +0.000 NA
ATOM     28  C   UNL     1      49.205   2.093  16.950  0.00  0.00    +0.000 A 
ATOM     29  N   UNL     1      48.096   2.847  16.959  0.00  0.00    +0.000 NA
ATOM     30  C   UNL     1      48.252   4.163  17.154  0.00  0.00    +0.000 A 
ATOM     31  C   UNL     1      49.503   4.745  17.381  0.00  0.00    +0.000 A 
BRANCH  30  32
ATOM     32  O   UNL     1      47.077   4.849  17.169  0.00  0.00    +0.000 OA
ATOM     33  H   UNL     1      47.372   5.726  16.867  0.00  0.00    +0.000 HD
ENDBRANCH  30  32
ENDBRANCH  21  23
ENDBRANCH  18  19
ENDBRANCH   4  18
TORSDOF 8
ENDMDL
MODEL 2
REMARK VINA RESULT:    -7.779      1.591      2.570
REMARK INTER + INTRA:         -12.344
REMARK INTER:                 -11.324
REMARK INTRA:                  -1.021
REMARK UNBOUND:                -1.154
REMARK  Name = 
REMARK  10 active torsions:
REMARK  status: ('A' for Active; 'I' for Inactive)
REMARK    1  A    between atoms: C_1  and  C_2
REMARK    2  A    between atoms: C_5  and  C_6
REMARK    3  A    between atoms: C_6  and  N_7
REMARK    4  A    between atoms: N_7  and  C_8
REMARK    5  A    between atoms: C_8  and  C_9
REMARK    6  A    between atoms: C_12  and  C_13
REMARK    7  A    between atoms: C_13  and  N_14
REMARK    8  A    between atoms: N_14  and  C_15
REMARK    9  A    between atoms: C_16  and  C_18
REMARK   10  A    between atoms: C_25  and  O_26
REMARK                            x       y       z     vdW  Elec       q    Type
REMARK                         _______ _______ _______ _____ _____    ______ ____
ROOT
ATOM      1  C   UNL     1      44.707   5.613  11.840  0.00  0.00    +0.000 A 
ATOM      2  C   UNL     1      45.605   6.542  11.299  0.00  0.00    +0.000 A 
ATOM      3  C   UNL     1      46.795   6.838  11.955  0.00  0.00    +0.000 A 
ATOM      4  C   UNL     1      47.102   6.223  13.176  0.00  0.00    +0.000 A 
ATOM      5  C   UNL     1      46.218   5.279  13.710  0.00  0.00    +0.000 A 
ATOM      6  C   UNL     1      45.032   4.970  13.043  0.00  0.00    +0.000 A 
ENDROOT
BRANCH   1   7
ATOM      7  C   UNL     1      43.411   5.314  11.127  0.00  0.00    +0.000 C 
BRANCH   7   8
ATOM      8  N   UNL     1      43.603   4.716   9.802  0.00  0.00    +0.000 NA
ATOM      9  H   UNL     1      42.730   4.771   9.287  0.00  0.00    +0.000 HD
BRANCH   8  10
ATOM     10  C   UNL     1      44.001   3.310   9.894  0.00  0.00    +0.000 C 
BRANCH  10  15
ATOM     11  C   UNL     1      48.075   2.061   5.922  0.00  0.00    +0.000 C 
ATOM     12  C   UNL     1      47.020   2.365   6.944  0.00  0.00    +0.000 A 
ATOM     13  C   UNL     1      46.527   1.370   7.793  0.00  0.00    +0.000 A 
ATOM     14  C   UNL     1      45.553   1.675   8.746  0.00  0.00    +0.000 A 
ATOM     15  C   UNL     1      45.058   2.983   8.870  0.00  0.00    +0.000 A 
ATOM     16  C   UNL     1      45.551   3.974   8.013  0.00  0.00    +0.000 A 
ATOM     17  C   UNL     1      46.522   3.668   7.059  0.00  0.00    +0.000 A 
ENDBRANCH  10  15
ENDBRANCH   8  10
ENDBRANCH   7   8
ENDBRANCH   1   7
BRANCH   4  18
ATOM     18  C   UNL     1      48.408   6.523  13.854  0.00  0.00    +0.000 C 
BRANCH  18  19
ATOM     19  N   UNL     1      48.459   7.592  14.854  0.00  0.00    +0.000 N 
ATOM     20  C   UNL     1      48.482   8.975  14.380  0.00  0.00    +0.000 C 
ATOM     21  C   UNL     1      48.898   7.376  16.189  0.00  0.00    +0.000 C 
ATOM     22  O   UNL     1      49.119   8.321  16.939  0.00  0.00    +0.000 OA
BRANCH  21  23
ATOM     23  C   UNL     1      49.105   5.990  16.667  0.00  0.00    +0.000 A 
ATOM     24  C   UNL     1      48.119   5.015  16.680  0.00  0.00    +0.000 A 
ATOM     25  S   UNL     1      48.576   3.582  17.473  0.00  0.00    +0.000 S 
ATOM     26  C   UNL     1      50.191   4.091  17.525  0.00  0.00    +0.000 A 
ATOM     27  N   UNL     1      51.132   3.250  17.981  0.00  0.00    +0.000 NA
ATOM     28  C   UNL     1      52.362   3.755  17.889  0.00  0.00    +0.000 A 
ATOM     29  N   UNL     1      52.708   4.964  17.426  0.00  0.00    +0.000 NA
ATOM     30  C   UNL     1      51.719   5.773  17.023  0.00  0.00    +0.000 A 
ATOM     31  C   UNL     1      50.377   5.381  17.038  0.00  0.00    +0.000 A 
BRANCH  30  32
ATOM     32  O   UNL     1      52.159   6.970  16.550  0.00  0.00    +0.000 OA
ATOM     33  H   UNL     1      51.991   6.864  15.597  0.00  0.00    +0.000 HD
ENDBRANCH  30  32
ENDBRANCH  21  23
ENDBRANCH  18  19
ENDBRANCH   4  18
TORSDOF 8
ENDMDL
MODEL 3
REMARK VINA RESULT:    -7.732      2.449      3.318
REMARK INTER + INTRA:         -12.276
REMARK INTER:                 -10.801
REMARK INTRA:                  -1.475
REMARK UNBOUND:                -1.154
REMARK  Name = 
REMARK  10 active torsions:
REMARK  status: ('A' for Active; 'I' for Inactive)
REMARK    1  A    between atoms: C_1  and  C_2
REMARK    2  A    between atoms: C_5  and  C_6
REMARK    3  A    between atoms: C_6  and  N_7
REMARK    4  A    between atoms: N_7  and  C_8
REMARK    5  A    between atoms: C_8  and  C_9
REMARK    6  A    between atoms: C_12  and  C_13
REMARK    7  A    between atoms: C_13  and  N_14
REMARK    8  A    between atoms: N_14  and  C_15
REMARK    9  A    between atoms: C_16  and  C_18
REMARK   10  A    between atoms: C_25  and  O_26
REMARK                            x       y       z     vdW  Elec       q    Type
REMARK                         _______ _______ _______ _____ _____    ______ ____
ROOT
ATOM      1  C   UNL     1      44.641   5.552  12.944  0.00  0.00    +0.000 A 
ATOM      2  C   UNL     1      45.641   4.860  13.642  0.00  0.00    +0.000 A 
ATOM      3  C   UNL     1      46.960   5.299  13.603  0.00  0.00    +0.000 A 
ATOM      4  C   UNL     1      47.309   6.429  12.851  0.00  0.00    +0.000 A 
ATOM      5  C   UNL     1      46.312   7.135  12.170  0.00  0.00    +0.000 A 
ATOM      6  C   UNL     1      44.985   6.704  12.222  0.00  0.00    +0.000 A 
ENDROOT
BRANCH   1   7
ATOM      7  C   UNL     1      43.217   5.055  12.979  0.00  0.00    +0.000 C 
BRANCH   7   8
ATOM      8  N   UNL     1      42.758   4.520  11.694  0.00  0.00    +0.000 NA
ATOM      9  H   UNL     1      41.744   4.455  11.708  0.00  0.00    +0.000 HD
BRANCH   8  10
ATOM     10  C   UNL     1      43.305   3.187  11.435  0.00  0.00    +0.000 C 
BRANCH  10  15
ATOM     11  C   UNL     1      46.700   3.195   6.702  0.00  0.00    +0.000 C 
ATOM     12  C   UNL     1      45.833   3.209   7.926  0.00  0.00    +0.000 A 
ATOM     13  C   UNL     1      45.382   4.412   8.478  0.00  0.00    +0.000 A 
ATOM     14  C   UNL     1      44.565   4.405   9.611  0.00  0.00    +0.000 A 
ATOM     15  C   UNL     1      44.180   3.194  10.208  0.00  0.00    +0.000 A 
ATOM     16  C   UNL     1      44.640   1.994   9.654  0.00  0.00    +0.000 A 
ATOM     17  C   UNL     1      45.458   2.001   8.525  0.00  0.00    +0.000 A 
ENDBRANCH  10  15
ENDBRANCH   8  10
ENDBRANCH   7   8
ENDBRANCH   1   7
BRANCH   4  18
ATOM     18  C   UNL     1      48.730   6.913  12.850  0.00  0.00    +0.000 C 
BRANCH  18  19
ATOM     19  N   UNL     1      48.998   8.333  13.089  0.00  0.00    +0.000 N 
ATOM     20  C   UNL     1      49.211   9.196  11.929  0.00  0.00    +0.000 C 
ATOM     21  C   UNL     1      49.465   8.828  14.337  0.00  0.00    +0.000 C 
ATOM     22  O   UNL     1      49.867   9.982  14.445  0.00  0.00    +0.000 OA
BRANCH  21  23
ATOM     23  C   UNL     1      49.479   7.929  15.513  0.00  0.00    +0.000 A 
ATOM     24  C   UNL     1      50.294   6.812  15.630  0.00  0.00    +0.000 A 
ATOM     25  S   UNL     1      49.951   5.848  16.989  0.00  0.00    +0.000 S 
ATOM     26  C   UNL     1      48.948   7.055  17.628  0.00  0.00    +0.000 A 
ATOM     27  N   UNL     1      48.430   6.897  18.856  0.00  0.00    +0.000 NA
ATOM     28  C   UNL     1      47.729   7.956  19.259  0.00  0.00    +0.000 A 
ATOM     29  N   UNL     1      47.500   9.084  18.572  0.00  0.00    +0.000 NA
ATOM     30  C   UNL     1      48.010   9.163  17.336  0.00  0.00    +0.000 A 
ATOM     31  C   UNL     1      48.786   8.143  16.778  0.00  0.00    +0.000 A 
BRANCH  30  32
ATOM     32  O   UNL     1      47.748  10.347  16.718  0.00  0.00    +0.000 OA
ATOM     33  H   UNL     1      46.791  10.428  16.875  0.00  0.00    +0.000 HD
ENDBRANCH  30  32
ENDBRANCH  21  23
ENDBRANCH  18  19
ENDBRANCH   4  18
TORSDOF 8
ENDMDL
MODEL 4
REMARK VINA RESULT:    -7.686      1.193      1.779
REMARK INTER + INTRA:         -12.210
REMARK INTER:                 -10.957
REMARK INTRA:                  -1.253
REMARK UNBOUND:                -1.154
REMARK  Name = 
REMARK  10 active torsions:
REMARK  status: ('A' for Active; 'I' for Inactive)
REMARK    1  A    between atoms: C_1  and  C_2
REMARK    2  A    between atoms: C_5  and  C_6
REMARK    3  A    between atoms: C_6  and  N_7
REMARK    4  A    between atoms: N_7  and  C_8
REMARK    5  A    between atoms: C_8  and  C_9
REMARK    6  A    between atoms: C_12  and  C_13
REMARK    7  A    between atoms: C_13  and  N_14
REMARK    8  A    between atoms: N_14  and  C_15
REMARK    9  A    between atoms: C_16  and  C_18
REMARK   10  A    between atoms: C_25  and  O_26
REMARK                            x       y       z     vdW  Elec       q    Type
REMARK                         _______ _______ _______ _____ _____    ______ ____
ROOT
ATOM      1  C   UNL     1      45.766   4.962  12.244  0.00  0.00    +0.000 A 
ATOM      2  C   UNL     1      46.333   6.083  11.621  0.00  0.00    +0.000 A 
ATOM      3  C   UNL     1      47.372   6.777  12.230  0.00  0.00    +0.000 A 
ATOM      4  C   UNL     1      47.855   6.376  13.483  0.00  0.00    +0.000 A 
ATOM      5  C   UNL     1      47.307   5.245  14.099  0.00  0.00    +0.000 A 
ATOM      6  C   UNL     1      46.275   4.539  13.480  0.00  0.00    +0.000 A 
ENDROOT
BRANCH   1   7
ATOM      7  C   UNL     1      44.627   4.228  11.582  0.00  0.00    +0.000 C 
BRANCH   7   8
ATOM      8  N   UNL     1      44.981   2.869  11.159  0.00  0.00    +0.000 NA
ATOM      9  H   UNL     1      45.981   2.830  10.985  0.00  0.00    +0.000 HD
BRANCH   8  10
ATOM     10  C   UNL     1      44.281   2.481   9.934  0.00  0.00    +0.000 C 
BRANCH  10  15
ATOM     11  C   UNL     1      47.918   2.376   5.386  0.00  0.00    +0.000 C 
ATOM     12  C   UNL     1      46.979   2.385   6.555  0.00  0.00    +0.000 A 
ATOM     13  C   UNL     1      46.842   1.265   7.381  0.00  0.00    +0.000 A 
ATOM     14  C   UNL     1      45.971   1.296   8.472  0.00  0.00    +0.000 A 
ATOM     15  C   UNL     1      45.226   2.451   8.761  0.00  0.00    +0.000 A 
ATOM     16  C   UNL     1      45.363   3.566   7.926  0.00  0.00    +0.000 A 
ATOM     17  C   UNL     1      46.230   3.534   6.834  0.00  0.00    +0.000 A 
ENDBRANCH  10  15
ENDBRANCH   8  10
ENDBRANCH   7   8
ENDBRANCH   1   7
BRANCH   4  18
ATOM     18  C   UNL     1      49.003   7.112  14.110  0.00  0.00    +0.000 C 
BRANCH  18  19
ATOM     19  N   UNL     1      48.729   8.087  15.168  0.00  0.00    +0.000 N 
ATOM     20  C   UNL     1      48.089   9.347  14.791  0.00  0.00    +0.000 C 
ATOM     21  C   UNL     1      49.399   8.071  16.421  0.00  0.00    +0.000 C 
ATOM     22  O   UNL     1      49.294   9.011  17.203  0.00  0.00    +0.000 OA
BRANCH  21  23
ATOM     23  C   UNL     1      50.245   6.909  16.774  0.00  0.00    +0.000 A 
ATOM     24  C   UNL     1      51.625   6.962  16.906  0.00  0.00    +0.000 A 
ATOM     25  S   UNL     1      52.357   5.441  17.110  0.00  0.00    +0.000 S 
ATOM     26  C   UNL     1      50.847   4.715  17.363  0.00  0.00    +0.000 A 
ATOM     27  N   UNL     1      50.789   3.422  17.715  0.00  0.00    +0.000 NA
ATOM     28  C   UNL     1      49.545   3.009  17.956  0.00  0.00    +0.000 A 
ATOM     29  N   UNL     1      48.420   3.732  17.861  0.00  0.00    +0.000 NA
ATOM     30  C   UNL     1      48.541   5.006  17.465  0.00  0.00    +0.000 A 
ATOM     31  C   UNL     1      49.781   5.592  17.194  0.00  0.00    +0.000 A 
BRANCH  30  32
ATOM     32  O   UNL     1      47.355   5.671  17.416  0.00  0.00    +0.000 OA
ATOM     33  H   UNL     1      47.659   6.576  17.230  0.00  0.00    +0.000 HD
ENDBRANCH  30  32
ENDBRANCH  21  23
ENDBRANCH  18  19
ENDBRANCH   4  18
TORSDOF 8
ENDMDL
MODEL 5
REMARK VINA RESULT:    -7.676      2.205      3.060
REMARK INTER + INTRA:         -12.196
REMARK INTER:                 -11.114
REMARK INTRA:                  -1.082
REMARK UNBOUND:                -1.154
REMARK  Name = 
REMARK  10 active torsions:
REMARK  status: ('A' for Active; 'I' for Inactive)
REMARK    1  A    between atoms: C_1  and  C_2
REMARK    2  A    between atoms: C_5  and  C_6
REMARK    3  A    between atoms: C_6  and  N_7
REMARK    4  A    between atoms: N_7  and  C_8
REMARK    5  A    between atoms: C_8  and  C_9
REMARK    6  A    between atoms: C_12  and  C_13
REMARK    7  A    between atoms: C_13  and  N_14
REMARK    8  A    between atoms: N_14  and  C_15
REMARK    9  A    between atoms: C_16  and  C_18
REMARK   10  A    between atoms: C_25  and  O_26
REMARK                            x       y       z     vdW  Elec       q    Type
REMARK                         _______ _______ _______ _____ _____    ______ ____
ROOT
ATOM      1  C   UNL     1      44.999   4.893  12.786  0.00  0.00    +0.000 A 
ATOM      2  C   UNL     1      46.221   4.732  13.452  0.00  0.00    +0.000 A 
ATOM      3  C   UNL     1      47.055   5.823  13.669  0.00  0.00    +0.000 A 
ATOM      4  C   UNL     1      46.692   7.096  13.209  0.00  0.00    +0.000 A 
ATOM      5  C   UNL     1      45.463   7.266  12.561  0.00  0.00    +0.000 A 
ATOM      6  C   UNL     1      44.619   6.173  12.358  0.00  0.00    +0.000 A 
ENDROOT
BRANCH   1   7
ATOM      7  C   UNL     1      44.111   3.698  12.540  0.00  0.00    +0.000 C 
BRANCH   7   8
ATOM      8  N   UNL     1      44.608   2.815  11.482  0.00  0.00    +0.000 NA
ATOM      9  H   UNL     1      45.618   2.906  11.424  0.00  0.00    +0.000 HD
BRANCH   8  10
ATOM     10  C   UNL     1      44.037   3.155  10.178  0.00  0.00    +0.000 C 
BRANCH  10  15
ATOM     11  C   UNL     1      47.937   2.298   5.937  0.00  0.00    +0.000 C 
ATOM     12  C   UNL     1      46.939   2.535   7.031  0.00  0.00    +0.000 A 
ATOM     13  C   UNL     1      46.470   3.822   7.315  0.00  0.00    +0.000 A 
ATOM     14  C   UNL     1      45.532   4.022   8.330  0.00  0.00    +0.000 A 
ATOM     15  C   UNL     1      45.043   2.938   9.076  0.00  0.00    +0.000 A 
ATOM     16  C   UNL     1      45.521   1.653   8.792  0.00  0.00    +0.000 A 
ATOM     17  C   UNL     1      46.460   1.454   7.780  0.00  0.00    +0.000 A 
ENDBRANCH  10  15
ENDBRANCH   8  10
ENDBRANCH   7   8
ENDBRANCH   1   7
BRANCH   4  18
ATOM     18  C   UNL     1      47.584   8.271  13.484  0.00  0.00    +0.000 C 
BRANCH  18  19
ATOM     19  N   UNL     1      49.033   8.066  13.538  0.00  0.00    +0.000 N 
ATOM     20  C   UNL     1      49.695   7.526  12.351  0.00  0.00    +0.000 C 
ATOM     21  C   UNL     1      49.750   7.961  14.762  0.00  0.00    +0.000 C 
ATOM     22  O   UNL     1      50.920   7.592  14.776  0.00  0.00    +0.000 OA
BRANCH  21  23
ATOM     23  C   UNL     1      49.064   8.287  16.033  0.00  0.00    +0.000 A 
ATOM     24  C   UNL     1      48.574   9.545  16.352  0.00  0.00    +0.000 A 
ATOM     25  S   UNL     1      48.024   9.683  17.955  0.00  0.00    +0.000 S 
ATOM     26  C   UNL     1      48.110   8.004  18.161  0.00  0.00    +0.000 A 
ATOM     27  N   UNL     1      47.653   7.455  19.297  0.00  0.00    +0.000 NA
ATOM     28  C   UNL     1      47.712   6.124  19.287  0.00  0.00    +0.000 A 
ATOM     29  N   UNL     1      48.179   5.342  18.303  0.00  0.00    +0.000 NA
ATOM     30  C   UNL     1      48.660   5.952  17.211  0.00  0.00    +0.000 A 
ATOM     31  C   UNL     1      48.648   7.342  17.062  0.00  0.00    +0.000 A 
BRANCH  30  32
ATOM     32  O   UNL     1      49.093   5.086  16.255  0.00  0.00    +0.000 OA
ATOM     33  H   UNL     1      48.256   4.870  15.809  0.00  0.00    +0.000 HD
ENDBRANCH  30  32
ENDBRANCH  21  23
ENDBRANCH  18  19
ENDBRANCH   4  18
TORSDOF 8
ENDMDL
MODEL 6
REMARK VINA RESULT:    -7.643      3.778      5.679
REMARK INTER + INTRA:         -12.148
REMARK INTER:                 -10.618
REMARK INTRA:                  -1.530
REMARK UNBOUND:                -1.154
REMARK  Name = 
REMARK  10 active torsions:
REMARK  status: ('A' for Active; 'I' for Inactive)
REMARK    1  A    between atoms: C_1  and  C_2
REMARK    2  A    between atoms: C_5  and  C_6
REMARK    3  A    between atoms: C_6  and  N_7
REMARK    4  A    between atoms: N_7  and  C_8
REMARK    5  A    between atoms: C_8  and  C_9
REMARK    6  A    between atoms: C_12  and  C_13
REMARK    7  A    between atoms: C_13  and  N_14
REMARK    8  A    between atoms: N_14  and  C_15
REMARK    9  A    between atoms: C_16  and  C_18
REMARK   10  A    between atoms: C_25  and  O_26
REMARK                            x       y       z     vdW  Elec       q    Type
REMARK                         _______ _______ _______ _____ _____    ______ ____
ROOT
ATOM      1  C   UNL     1      45.742   5.193  12.226  0.00  0.00    +0.000 A 
ATOM      2  C   UNL     1      46.682   5.128  13.263  0.00  0.00    +0.000 A 
ATOM      3  C   UNL     1      47.821   5.924  13.232  0.00  0.00    +0.000 A 
ATOM      4  C   UNL     1      48.053   6.790  12.155  0.00  0.00    +0.000 A 
ATOM      5  C   UNL     1      47.106   6.874  11.128  0.00  0.00    +0.000 A 
ATOM      6  C   UNL     1      45.955   6.086  11.167  0.00  0.00    +0.000 A 
ENDROOT
BRANCH   1   7
ATOM      7  C   UNL     1      44.518   4.311  12.262  0.00  0.00    +0.000 C 
BRANCH   7   8
ATOM      8  N   UNL     1      44.698   3.041  11.553  0.00  0.00    +0.000 NA
ATOM      9  H   UNL     1      45.691   2.890  11.396  0.00  0.00    +0.000 HD
BRANCH   8  10
ATOM     10  C   UNL     1      44.019   3.041  10.256  0.00  0.00    +0.000 C 
BRANCH  10  15
ATOM     11  C   UNL     1      47.844   2.304   5.926  0.00  0.00    +0.000 C 
ATOM     12  C   UNL     1      46.865   2.511   7.043  0.00  0.00    +0.000 A 
ATOM     13  C   UNL     1      46.369   3.783   7.344  0.00  0.00    +0.000 A 
ATOM     14  C   UNL     1      45.449   3.954   8.380  0.00  0.00    +0.000 A 
ATOM     15  C   UNL     1      45.005   2.855   9.132  0.00  0.00    +0.000 A 
ATOM     16  C   UNL     1      45.511   1.585   8.831  0.00  0.00    +0.000 A 
ATOM     17  C   UNL     1      46.432   1.415   7.797  0.00  0.00    +0.000 A 
ENDBRANCH  10  15
ENDBRANCH   8  10
ENDBRANCH   7   8
ENDBRANCH   1   7
BRANCH   4  18
ATOM     18  C   UNL     1      49.268   7.671  12.154  0.00  0.00    +0.000 C 
BRANCH  18  19
ATOM     19  N   UNL     1      49.547   8.498  13.331  0.00  0.00    +0.000 N 
ATOM     20  C   UNL     1      49.999   7.828  14.549  0.00  0.00    +0.000 C 
ATOM     21  C   UNL     1      49.022   9.809  13.491  0.00  0.00    +0.000 C 
ATOM     22  O   UNL     1      49.107  10.394  14.566  0.00  0.00    +0.000 OA
BRANCH  21  23
ATOM     23  C   UNL     1      48.351  10.465  12.346  0.00  0.00    +0.000 A 
ATOM     24  C   UNL     1      49.021  11.088  11.303  0.00  0.00    +0.000 A 
ATOM     25  S   UNL     1      48.002  11.936  10.238  0.00  0.00    +0.000 S 
ATOM     26  C   UNL     1      46.632  11.226  10.936  0.00  0.00    +0.000 A 
ATOM     27  N   UNL     1      45.426  11.448  10.392  0.00  0.00    +0.000 NA
ATOM     28  C   UNL     1      44.454  10.765  10.996  0.00  0.00    +0.000 A 
ATOM     29  N   UNL     1      44.576   9.943  12.048  0.00  0.00    +0.000 NA
ATOM     30  C   UNL     1      45.801   9.795  12.571  0.00  0.00    +0.000 A 
ATOM     31  C   UNL     1      46.927  10.428  12.037  0.00  0.00    +0.000 A 
BRANCH  30  32
ATOM     32  O   UNL     1      45.838   8.928  13.620  0.00  0.00    +0.000 OA
ATOM     33  H   UNL     1      45.718   8.079  13.161  0.00  0.00    +0.000 HD
ENDBRANCH  30  32
ENDBRANCH  21  23
ENDBRANCH  18  19
ENDBRANCH   4  18
TORSDOF 8
ENDMDL
MODEL 7
REMARK VINA RESULT:    -7.364      2.370      3.553
REMARK INTER + INTRA:         -11.747
REMARK INTER:                 -10.014
REMARK INTRA:                  -1.734
REMARK UNBOUND:                -1.154
REMARK  Name = 
REMARK  10 active torsions:
REMARK  status: ('A' for Active; 'I' for Inactive)
REMARK    1  A    between atoms: C_1  and  C_2
REMARK    2  A    between atoms: C_5  and  C_6
REMARK    3  A    between atoms: C_6  and  N_7
REMARK    4  A    between atoms: N_7  and  C_8
REMARK    5  A    between atoms: C_8  and  C_9
REMARK    6  A    between atoms: C_12  and  C_13
REMARK    7  A    between atoms: C_13  and  N_14
REMARK    8  A    between atoms: N_14  and  C_15
REMARK    9  A    between atoms: C_16  and  C_18
REMARK   10  A    between atoms: C_25  and  O_26
REMARK                            x       y       z     vdW  Elec       q    Type
REMARK                         _______ _______ _______ _____ _____    ______ ____
ROOT
ATOM      1  C   UNL     1      45.382   5.338  12.870  0.00  0.00    +0.000 A 
ATOM      2  C   UNL     1      46.743   5.214  13.180  0.00  0.00    +0.000 A 
ATOM      3  C   UNL     1      47.640   6.217  12.830  0.00  0.00    +0.000 A 
ATOM      4  C   UNL     1      47.197   7.358  12.146  0.00  0.00    +0.000 A 
ATOM      5  C   UNL     1      45.836   7.495  11.852  0.00  0.00    +0.000 A 
ATOM      6  C   UNL     1      44.933   6.496  12.218  0.00  0.00    +0.000 A 
ENDROOT
BRANCH   1   7
ATOM      7  C   UNL     1      44.421   4.235  13.239  0.00  0.00    +0.000 C 
BRANCH   7   8
ATOM      8  N   UNL     1      44.465   3.096  12.318  0.00  0.00    +0.000 NA
ATOM      9  H   UNL     1      45.433   2.911  12.069  0.00  0.00    +0.000 HD
BRANCH   8  10
ATOM     10  C   UNL     1      43.713   3.361  11.090  0.00  0.00    +0.000 C 
BRANCH  10  15
ATOM     11  C   UNL     1      47.144   2.801   6.416  0.00  0.00    +0.000 C 
ATOM     12  C   UNL     1      46.268   2.962   7.623  0.00  0.00    +0.000 A 
ATOM     13  C   UNL     1      45.858   4.227   8.055  0.00  0.00    +0.000 A 
ATOM     14  C   UNL     1      45.032   4.356   9.173  0.00  0.00    +0.000 A 
ATOM     15  C   UNL     1      44.598   3.221   9.877  0.00  0.00    +0.000 A 
ATOM     16  C   UNL     1      45.018   1.958   9.444  0.00  0.00    +0.000 A 
ATOM     17  C   UNL     1      45.845   1.830   8.328  0.00  0.00    +0.000 A 
ENDBRANCH  10  15
ENDBRANCH   8  10
ENDBRANCH   7   8
ENDBRANCH   1   7
BRANCH   4  18
ATOM     18  C   UNL     1      48.170   8.449  11.809  0.00  0.00    +0.000 C 
BRANCH  18  19
ATOM     19  N   UNL     1      47.997   9.770  12.418  0.00  0.00    +0.000 N 
ATOM     20  C   UNL     1      47.082  10.710  11.772  0.00  0.00    +0.000 C 
ATOM     21  C   UNL     1      48.941  10.330  13.322  0.00  0.00    +0.000 C 
ATOM     22  O   UNL     1      48.869  11.507  13.657  0.00  0.00    +0.000 OA
BRANCH  21  23
ATOM     23  C   UNL     1      50.031   9.478  13.849  0.00  0.00    +0.000 A 
ATOM     24  C   UNL     1      51.370   9.634  13.520  0.00  0.00    +0.000 A 
ATOM     25  S   UNL     1      52.373   8.391  14.103  0.00  0.00    +0.000 S 
ATOM     26  C   UNL     1      51.121   7.799  15.079  0.00  0.00    +0.000 A 
ATOM     27  N   UNL     1      51.372   6.797  15.935  0.00  0.00    +0.000 NA
ATOM     28  C   UNL     1      50.319   6.489  16.692  0.00  0.00    +0.000 A 
ATOM     29  N   UNL     1      49.103   7.053  16.653  0.00  0.00    +0.000 NA
ATOM     30  C   UNL     1      48.904   8.021  15.749  0.00  0.00    +0.000 A 
ATOM     31  C   UNL     1      49.917   8.470  14.896  0.00  0.00    +0.000 A 
BRANCH  30  32
ATOM     32  O   UNL     1      47.651   8.551  15.792  0.00  0.00    +0.000 OA
ATOM     33  H   UNL     1      47.274   8.069  16.549  0.00  0.00    +0.000 HD
ENDBRANCH  30  32
ENDBRANCH  21  23
ENDBRANCH  18  19
ENDBRANCH   4  18
TORSDOF 8
ENDMDL
MODEL 8
REMARK VINA RESULT:    -7.169      2.448      3.197
REMARK INTER + INTRA:         -11.466
REMARK INTER:                  -9.951
REMARK INTRA:                  -1.515
REMARK UNBOUND:                -1.154
REMARK  Name = 
REMARK  10 active torsions:
REMARK  status: ('A' for Active; 'I' for Inactive)
REMARK    1  A    between atoms: C_1  and  C_2
REMARK    2  A    between atoms: C_5  and  C_6
REMARK    3  A    between atoms: C_6  and  N_7
REMARK    4  A    between atoms: N_7  and  C_8
REMARK    5  A    between atoms: C_8  and  C_9
REMARK    6  A    between atoms: C_12  and  C_13
REMARK    7  A    between atoms: C_13  and  N_14
REMARK    8  A    between atoms: N_14  and  C_15
REMARK    9  A    between atoms: C_16  and  C_18
REMARK   10  A    between atoms: C_25  and  O_26
REMARK                            x       y       z     vdW  Elec       q    Type
REMARK                         _______ _______ _______ _____ _____    ______ ____
ROOT
ATOM      1  C   UNL     1      45.613   5.194  12.576  0.00  0.00    +0.000 A 
ATOM      2  C   UNL     1      46.573   4.789  13.513  0.00  0.00    +0.000 A 
ATOM      3  C   UNL     1      47.795   5.446  13.600  0.00  0.00    +0.000 A 
ATOM      4  C   UNL     1      48.090   6.512  12.739  0.00  0.00    +0.000 A 
ATOM      5  C   UNL     1      47.127   6.934  11.816  0.00  0.00    +0.000 A 
ATOM      6  C   UNL     1      45.893   6.284  11.740  0.00  0.00    +0.000 A 
ENDROOT
BRANCH   1   7
ATOM      7  C   UNL     1      44.297   4.462  12.479  0.00  0.00    +0.000 C 
BRANCH   7   8
ATOM      8  N   UNL     1      44.353   3.283  11.610  0.00  0.00    +0.000 NA
ATOM      9  H   UNL     1      45.317   2.968  11.545  0.00  0.00    +0.000 HD
BRANCH   8  10
ATOM     10  C   UNL     1      43.870   3.581  10.260  0.00  0.00    +0.000 C 
BRANCH  10  15
ATOM     11  C   UNL     1      47.900   2.295   6.256  0.00  0.00    +0.000 C 
ATOM     12  C   UNL     1      46.855   2.610   7.284  0.00  0.00    +0.000 A 
ATOM     13  C   UNL     1      46.263   1.598   8.047  0.00  0.00    +0.000 A 
ATOM     14  C   UNL     1      45.301   1.911   9.009  0.00  0.00    +0.000 A 
ATOM     15  C   UNL     1      44.915   3.244   9.228  0.00  0.00    +0.000 A 
ATOM     16  C   UNL     1      45.505   4.251   8.456  0.00  0.00    +0.000 A 
ATOM     17  C   UNL     1      46.465   3.938   7.494  0.00  0.00    +0.000 A 
ENDBRANCH  10  15
ENDBRANCH   8  10
ENDBRANCH   7   8
ENDBRANCH   1   7
BRANCH   4  18
ATOM     18  C   UNL     1      49.398   7.236  12.870  0.00  0.00    +0.000 C 
BRANCH  18  19
ATOM     19  N   UNL     1      49.394   8.642  13.284  0.00  0.00    +0.000 N 
ATOM     20  C   UNL     1      49.522   9.663  12.246  0.00  0.00    +0.000 C 
ATOM     21  C   UNL     1      49.688   9.053  14.613  0.00  0.00    +0.000 C 
ATOM     22  O   UNL     1      49.872  10.236  14.879  0.00  0.00    +0.000 OA
BRANCH  21  23
ATOM     23  C   UNL     1      49.788   8.032  15.681  0.00  0.00    +0.000 A 
ATOM     24  C   UNL     1      48.703   7.539  16.391  0.00  0.00    +0.000 A 
ATOM     25  S   UNL     1      49.132   6.536  17.696  0.00  0.00    +0.000 S 
ATOM     26  C   UNL     1      50.734   6.463  17.150  0.00  0.00    +0.000 A 
ATOM     27  N   UNL     1      51.604   5.652  17.772  0.00  0.00    +0.000 NA
ATOM     28  C   UNL     1      52.802   5.637  17.188  0.00  0.00    +0.000 A 
ATOM     29  N   UNL     1      53.187   6.337  16.111  0.00  0.00    +0.000 NA
ATOM     30  C   UNL     1      52.284   7.159  15.561  0.00  0.00    +0.000 A 
ATOM     31  C   UNL     1      50.977   7.271  16.045  0.00  0.00    +0.000 A 
BRANCH  30  32
ATOM     32  O   UNL     1      52.749   7.814  14.462  0.00  0.00    +0.000 OA
ATOM     33  H   UNL     1      52.600   7.145  13.772  0.00  0.00    +0.000 HD
ENDBRANCH  30  32
ENDBRANCH  21  23
ENDBRANCH  18  19
ENDBRANCH   4  18
TORSDOF 8
ENDMDL
MODEL 9
REMARK VINA RESULT:    -6.939      1.599      2.437
REMARK INTER + INTRA:         -11.135
REMARK INTER:                  -9.468
REMARK INTRA:                  -1.668
REMARK UNBOUND:                -1.154
REMARK  Name = 
REMARK  10 active torsions:
REMARK  status: ('A' for Active; 'I' for Inactive)
REMARK    1  A    between atoms: C_1  and  C_2
REMARK    2  A    between atoms: C_5  and  C_6
REMARK    3  A    between atoms: C_6  and  N_7
REMARK    4  A    between atoms: N_7  and  C_8
REMARK    5  A    between atoms: C_8  and  C_9
REMARK    6  A    between atoms: C_12  and  C_13
REMARK    7  A    between atoms: C_13  and  N_14
REMARK    8  A    between atoms: N_14  and  C_15
REMARK    9  A    between atoms: C_16  and  C_18
REMARK   10  A    between atoms: C_25  and  O_26
REMARK                            x       y       z     vdW  Elec       q    Type
REMARK                         _______ _______ _______ _____ _____    ______ ____
ROOT
ATOM      1  C   UNL     1      47.315   7.551  13.445  0.00  0.00    +0.000 A 
ATOM      2  C   UNL     1      48.049   6.494  14.002  0.00  0.00    +0.000 A 
ATOM      3  C   UNL     1      48.816   6.693  15.144  0.00  0.00    +0.000 A 
ATOM      4  C   UNL     1      48.879   7.958  15.745  0.00  0.00    +0.000 A 
ATOM      5  C   UNL     1      48.133   9.011  15.205  0.00  0.00    +0.000 A 
ATOM      6  C   UNL     1      47.350   8.807  14.067  0.00  0.00    +0.000 A 
ENDROOT
BRANCH   1   7
ATOM      7  C   UNL     1      46.501   7.327  12.195  0.00  0.00    +0.000 C 
BRANCH   7   8
ATOM      8  N   UNL     1      45.066   7.558  12.390  0.00  0.00    +0.000 NA
ATOM      9  H   UNL     1      44.943   8.315  13.055  0.00  0.00    +0.000 HD
BRANCH   8  10
ATOM     10  C   UNL     1      44.391   6.368  12.910  0.00  0.00    +0.000 C 
BRANCH  10  15
ATOM     11  C   UNL     1      44.724   1.959   9.118  0.00  0.00    +0.000 C 
ATOM     12  C   UNL     1      44.639   3.082  10.107  0.00  0.00    +0.000 A 
ATOM     13  C   UNL     1      45.206   2.968  11.381  0.00  0.00    +0.000 A 
ATOM     14  C   UNL     1      45.127   4.029  12.285  0.00  0.00    +0.000 A 
ATOM     15  C   UNL     1      44.483   5.226  11.930  0.00  0.00    +0.000 A 
ATOM     16  C   UNL     1      43.912   5.331  10.657  0.00  0.00    +0.000 A 
ATOM     17  C   UNL     1      43.989   4.270   9.754  0.00  0.00    +0.000 A 
ENDBRANCH  10  15
ENDBRANCH   8  10
ENDBRANCH   7   8
ENDBRANCH   1   7
BRANCH   4  18
ATOM     18  C   UNL     1      49.681   8.148  16.999  0.00  0.00    +0.000 C 
BRANCH  18  19
ATOM     19  N   UNL     1      49.008   8.041  18.296  0.00  0.00    +0.000 N 
ATOM     20  C   UNL     1      48.617   9.277  18.970  0.00  0.00    +0.000 C 
ATOM     21  C   UNL     1      49.085   6.877  19.108  0.00  0.00    +0.000 C 
ATOM     22  O   UNL     1      48.682   6.890  20.267  0.00  0.00    +0.000 OA
BRANCH  21  23
ATOM     23  C   UNL     1      49.677   5.641  18.548  0.00  0.00    +0.000 A 
ATOM     24  C   UNL     1      51.008   5.279  18.693  0.00  0.00    +0.000 A 
ATOM     25  S   UNL     1      51.458   3.922  17.773  0.00  0.00    +0.000 S 
ATOM     26  C   UNL     1      49.835   3.584  17.423  0.00  0.00    +0.000 A 
ATOM     27  N   UNL     1      49.525   2.460  16.759  0.00  0.00    +0.000 NA
ATOM     28  C   UNL     1      48.211   2.287  16.624  0.00  0.00    +0.000 A 
ATOM     29  N   UNL     1      47.239   3.104  17.055  0.00  0.00    +0.000 NA
ATOM     30  C   UNL     1      47.614   4.231  17.675  0.00  0.00    +0.000 A 
ATOM     31  C   UNL     1      48.956   4.545  17.911  0.00  0.00    +0.000 A 
BRANCH  30  32
ATOM     32  O   UNL     1      46.567   4.990  18.096  0.00  0.00    +0.000 OA
ATOM     33  H   UNL     1      46.979   5.871  18.128  0.00  0.00    +0.000 HD
ENDBRANCH  30  32
ENDBRANCH  21  23
ENDBRANCH  18  19
ENDBRANCH   4  18
TORSDOF 8
ENDMDL
