MODEL 1
REMARK VINA RESULT:    -8.339      0.000      0.000
REMARK INTER + INTRA:         -11.749
REMARK INTER:                 -10.777
REMARK INTRA:                  -0.972
REMARK UNBOUND:                -0.972
REMARK  Name = 
REMARK  5 active torsions:
REMARK  status: ('A' for Active; 'I' for Inactive)
REMARK    1  A    between atoms: C_2  and  C_4
REMARK    2  A    between atoms: C_9  and  O_10
REMARK    3  A    between atoms: O_10  and  C_11
REMARK    4  A    between atoms: C_11  and  C_12
REMARK    5  A    between atoms: C_16  and  C_17
REMARK                            x       y       z     vdW  Elec       q    Type
REMARK                         _______ _______ _______ _____ _____    ______ ____
ROOT
ATOM      1  O   UNL     1      43.826   6.592  12.109  0.00  0.00    +0.000 OA
ENDROOT
BRANCH   1   7
ATOM      2  C   UNL     1      46.874   5.253  13.774  0.00  0.00    +0.000 A 
ATOM      3  C   UNL     1      47.844   5.970  13.070  0.00  0.00    +0.000 A 
ATOM      4  C   UNL     1      47.438   6.863  12.087  0.00  0.00    +0.000 A 
ATOM      5  F   UNL     1      48.364   7.551  11.407  0.00  0.00    +0.000 F 
ATOM      6  C   UNL     1      46.090   7.052  11.791  0.00  0.00    +0.000 A 
ATOM      7  C   UNL     1      45.117   6.330  12.482  0.00  0.00    +0.000 A 
ATOM      8  C   UNL     1      45.515   5.424  13.468  0.00  0.00    +0.000 A 
BRANCH   2  10
ATOM      9  N   UNL     1      47.231   4.752  16.127  0.00  0.00    +0.000 N 
ATOM     10  C   UNL     1      47.229   4.287  14.843  0.00  0.00    +0.000 C 
ATOM     11  O   UNL     1      47.461   3.116  14.589  0.00  0.00    +0.000 OA
ATOM     12  H   UNL     1      47.364   4.058  16.854  0.00  0.00    +0.000 HD
ATOM     13  H   UNL     1      46.804   5.629  16.394  0.00  0.00    +0.000 HD
ENDBRANCH   2  10
ENDBRANCH   1   7
BRANCH   1  14
ATOM     14  C   UNL     1      43.455   6.174  10.797  0.00  0.00    +0.000 C 
BRANCH  14  15
ATOM     15  C   UNL     1      43.797   4.719  10.607  0.00  0.00    +0.000 A 
ATOM     16  C   UNL     1      43.172   3.733  11.377  0.00  0.00    +0.000 A 
ATOM     17  C   UNL     1      43.449   2.389  11.148  0.00  0.00    +0.000 A 
ATOM     18  C   UNL     1      44.338   2.019  10.135  0.00  0.00    +0.000 A 
ATOM     19  C   UNL     1      44.966   2.980   9.321  0.00  0.00    +0.000 A 
ATOM     20  C   UNL     1      44.708   4.333   9.609  0.00  0.00    +0.000 A 
BRANCH  19  21
ATOM     21  C   UNL     1      45.764   2.593   8.133  0.00  0.00    +0.000 A 
ATOM     22  C   UNL     1      45.986   3.514   7.092  0.00  0.00    +0.000 A 
ATOM     23  C   UNL     1      46.829   3.218   6.018  0.00  0.00    +0.000 A 
ATOM     24  C   UNL     1      47.480   1.990   5.963  0.00  0.00    +0.000 A 
ATOM     25  C   UNL     1      47.264   1.051   6.967  0.00  0.00    +0.000 A 
ATOM     26  C   UNL     1      46.407   1.346   8.034  0.00  0.00    +0.000 A 
ENDBRANCH  19  21
ENDBRANCH  14  15
ENDBRANCH   1  14
TORSDOF 5
ENDMDL
MODEL 2
REMARK VINA RESULT:    -7.795      1.066      1.524
REMARK INTER + INTRA:         -11.045
REMARK INTER:                 -10.255
REMARK INTRA:                  -0.790
REMARK UNBOUND:                -0.972
REMARK  Name = 
REMARK  5 active torsions:
REMARK  status: ('A' for Active; 'I' for Inactive)
REMARK    1  A    between atoms: C_2  and  C_4
REMARK    2  A    between atoms: C_9  and  O_10
REMARK    3  A    between atoms: O_10  and  C_11
REMARK    4  A    between atoms: C_11  and  C_12
REMARK    5  A    between atoms: C_16  and  C_17
REMARK                            x       y       z     vdW  Elec       q    Type
REMARK                         _______ _______ _______ _____ _____    ______ ____
ROOT
ATOM      1  O   UNL     1      45.961   6.818  11.046  0.00  0.00    +0.000 OA
ENDROOT
BRANCH   1   7
ATOM      2  C   UNL     1      47.418   5.503  14.209  0.00  0.00    +0.000 A 
ATOM      3  C   UNL     1      48.284   6.557  14.509  0.00  0.00    +0.000 A 
ATOM      4  C   UNL     1      48.334   7.650  13.654  0.00  0.00    +0.000 A 
ATOM      5  F   UNL     1      49.164   8.662  13.936  0.00  0.00    +0.000 F 
ATOM      6  C   UNL     1      47.545   7.710  12.508  0.00  0.00    +0.000 A 
ATOM      7  C   UNL     1      46.688   6.655  12.195  0.00  0.00    +0.000 A 
ATOM      8  C   UNL     1      46.634   5.549  13.046  0.00  0.00    +0.000 A 
BRANCH   2  10
ATOM      9  N   UNL     1      46.994   4.517  16.392  0.00  0.00    +0.000 N 
ATOM     10  C   UNL     1      47.303   4.306  15.078  0.00  0.00    +0.000 C 
ATOM     11  O   UNL     1      47.430   3.179  14.628  0.00  0.00    +0.000 OA
ATOM     12  H   UNL     1      46.808   3.690  16.946  0.00  0.00    +0.000 HD
ATOM     13  H   UNL     1      46.636   5.398  16.737  0.00  0.00    +0.000 HD
ENDBRANCH   2  10
ENDBRANCH   1   7
BRANCH   1  14
ATOM     14  C   UNL     1      44.617   6.341  11.081  0.00  0.00    +0.000 C 
BRANCH  14  15
ATOM     15  C   UNL     1      44.580   4.887  10.687  0.00  0.00    +0.000 A 
ATOM     16  C   UNL     1      43.671   4.009  11.287  0.00  0.00    +0.000 A 
ATOM     17  C   UNL     1      43.602   2.684  10.869  0.00  0.00    +0.000 A 
ATOM     18  C   UNL     1      44.428   2.230   9.836  0.00  0.00    +0.000 A 
ATOM     19  C   UNL     1      45.335   3.090   9.189  0.00  0.00    +0.000 A 
ATOM     20  C   UNL     1      45.422   4.410   9.668  0.00  0.00    +0.000 A 
BRANCH  19  21
ATOM     21  C   UNL     1      46.080   2.668   7.979  0.00  0.00    +0.000 A 
ATOM     22  C   UNL     1      46.584   1.358   7.871  0.00  0.00    +0.000 A 
ATOM     23  C   UNL     1      47.187   0.898   6.698  0.00  0.00    +0.000 A 
ATOM     24  C   UNL     1      47.293   1.739   5.595  0.00  0.00    +0.000 A 
ATOM     25  C   UNL     1      46.823   3.046   5.678  0.00  0.00    +0.000 A 
ATOM     26  C   UNL     1      46.233   3.508   6.861  0.00  0.00    +0.000 A 
ENDBRANCH  19  21
ENDBRANCH  14  15
ENDBRANCH   1  14
TORSDOF 5
ENDMDL
MODEL 3
REMARK VINA RESULT:    -7.468      2.016      2.657
REMARK INTER + INTRA:         -10.622
REMARK INTER:                  -9.653
REMARK INTRA:                  -0.969
REMARK UNBOUND:                -0.972
REMARK  Name = 
REMARK  5 active torsions:
REMARK  status: ('A' for Active; 'I' for Inactive)
REMARK    1  A    between atoms: C_2  and  C_4
REMARK    2  A    between atoms: C_9  and  O_10
REMARK    3  A    between atoms: O_10  and  C_11
REMARK    4  A    between atoms: C_11  and  C_12
REMARK    5  A    between atoms: C_16  and  C_17
REMARK                            x       y       z     vdW  Elec       q    Type
REMARK                         _______ _______ _______ _____ _____    ______ ____
ROOT
ATOM      1  O   UNL     1      47.169   6.569  12.761  0.00  0.00    +0.000 OA
ENDROOT
BRANCH   1   7
ATOM      2  C   UNL     1      47.834   4.750  15.940  0.00  0.00    +0.000 A 
ATOM      3  C   UNL     1      48.634   5.702  16.577  0.00  0.00    +0.000 A 
ATOM      4  C   UNL     1      48.905   6.897  15.923  0.00  0.00    +0.000 A 
ATOM      5  F   UNL     1      49.673   7.812  16.528  0.00  0.00    +0.000 F 
ATOM      6  C   UNL     1      48.399   7.160  14.653  0.00  0.00    +0.000 A 
ATOM      7  C   UNL     1      47.610   6.208  14.006  0.00  0.00    +0.000 A 
ATOM      8  C   UNL     1      47.337   5.000  14.652  0.00  0.00    +0.000 A 
BRANCH   2  10
ATOM      9  N   UNL     1      48.353   2.412  16.365  0.00  0.00    +0.000 N 
ATOM     10  C   UNL     1      47.495   3.453  16.576  0.00  0.00    +0.000 C 
ATOM     11  O   UNL     1      46.517   3.336  17.298  0.00  0.00    +0.000 OA
ATOM     12  H   UNL     1      48.171   1.568  16.894  0.00  0.00    +0.000 HD
ATOM     13  H   UNL     1      49.286   2.537  15.994  0.00  0.00    +0.000 HD
ENDBRANCH   2  10
ENDBRANCH   1   7
BRANCH   1  14
ATOM     14  C   UNL     1      45.810   6.995  12.676  0.00  0.00    +0.000 C 
BRANCH  14  15
ATOM     15  C   UNL     1      44.984   5.936  11.991  0.00  0.00    +0.000 A 
ATOM     16  C   UNL     1      43.621   5.800  12.276  0.00  0.00    +0.000 A 
ATOM     17  C   UNL     1      42.856   4.863  11.590  0.00  0.00    +0.000 A 
ATOM     18  C   UNL     1      43.442   4.067  10.602  0.00  0.00    +0.000 A 
ATOM     19  C   UNL     1      44.802   4.194  10.267  0.00  0.00    +0.000 A 
ATOM     20  C   UNL     1      45.565   5.112  11.013  0.00  0.00    +0.000 A 
BRANCH  19  21
ATOM     21  C   UNL     1      45.387   3.488   9.102  0.00  0.00    +0.000 A 
ATOM     22  C   UNL     1      45.945   4.215   8.033  0.00  0.00    +0.000 A 
ATOM     23  C   UNL     1      46.606   3.580   6.979  0.00  0.00    +0.000 A 
ATOM     24  C   UNL     1      46.733   2.195   6.972  0.00  0.00    +0.000 A 
ATOM     25  C   UNL     1      46.175   1.447   8.005  0.00  0.00    +0.000 A 
ATOM     26  C   UNL     1      45.500   2.087   9.051  0.00  0.00    +0.000 A 
ENDBRANCH  19  21
ENDBRANCH  14  15
ENDBRANCH   1  14
TORSDOF 5
ENDMDL
MODEL 4
REMARK VINA RESULT:    -7.318      3.757      6.995
REMARK INTER + INTRA:         -10.429
REMARK INTER:                  -9.427
REMARK INTRA:                  -1.002
REMARK UNBOUND:                -0.972
REMARK  Name = 
REMARK  5 active torsions:
REMARK  status: ('A' for Active; 'I' for Inactive)
REMARK    1  A    between atoms: C_2  and  C_4
REMARK    2  A    between atoms: C_9  and  O_10
REMARK    3  A    between atoms: O_10  and  C_11
REMARK    4  A    between atoms: C_11  and  C_12
REMARK    5  A    between atoms: C_16  and  C_17
REMARK                            x       y       z     vdW  Elec       q    Type
REMARK                         _______ _______ _______ _____ _____    ______ ____
ROOT
ATOM      1  O   UNL     1      45.202   5.519   9.465  0.00  0.00    +0.000 OA
ENDROOT
BRANCH   1   7
ATOM      2  C   UNL     1      46.507   2.833   7.243  0.00  0.00    +0.000 A 
ATOM      3  C   UNL     1      45.810   1.746   7.776  0.00  0.00    +0.000 A 
ATOM      4  C   UNL     1      44.941   1.961   8.838  0.00  0.00    +0.000 A 
ATOM      5  F   UNL     1      44.272   0.922   9.354  0.00  0.00    +0.000 F 
ATOM      6  C   UNL     1      44.756   3.231   9.377  0.00  0.00    +0.000 A 
ATOM      7  C   UNL     1      45.459   4.318   8.858  0.00  0.00    +0.000 A 
ATOM      8  C   UNL     1      46.340   4.113   7.795  0.00  0.00    +0.000 A 
BRANCH   2  10
ATOM      9  N   UNL     1      48.779   2.614   6.403  0.00  0.00    +0.000 N 
ATOM     10  C   UNL     1      47.448   2.685   6.105  0.00  0.00    +0.000 C 
ATOM     11  O   UNL     1      47.046   2.580   4.958  0.00  0.00    +0.000 OA
ATOM     12  H   UNL     1      49.399   2.400   5.630  0.00  0.00    +0.000 HD
ATOM     13  H   UNL     1      49.124   2.442   7.338  0.00  0.00    +0.000 HD
ENDBRANCH   2  10
ENDBRANCH   1   7
BRANCH   1  14
ATOM     14  C   UNL     1      44.705   5.453  10.801  0.00  0.00    +0.000 C 
BRANCH  14  15
ATOM     15  C   UNL     1      45.816   5.752  11.775  0.00  0.00    +0.000 A 
ATOM     16  C   UNL     1      46.017   4.943  12.897  0.00  0.00    +0.000 A 
ATOM     17  C   UNL     1      47.085   5.190  13.754  0.00  0.00    +0.000 A 
ATOM     18  C   UNL     1      47.970   6.238  13.486  0.00  0.00    +0.000 A 
ATOM     19  C   UNL     1      47.818   7.058  12.352  0.00  0.00    +0.000 A 
ATOM     20  C   UNL     1      46.699   6.818  11.532  0.00  0.00    +0.000 A 
BRANCH  19  21
ATOM     21  C   UNL     1      48.848   8.049  11.962  0.00  0.00    +0.000 A 
ATOM     22  C   UNL     1      50.157   7.633  11.650  0.00  0.00    +0.000 A 
ATOM     23  C   UNL     1      51.115   8.528  11.168  0.00  0.00    +0.000 A 
ATOM     24  C   UNL     1      50.785   9.865  10.978  0.00  0.00    +0.000 A 
ATOM     25  C   UNL     1      49.506  10.311  11.297  0.00  0.00    +0.000 A 
ATOM     26  C   UNL     1      48.552   9.414  11.794  0.00  0.00    +0.000 A 
ENDBRANCH  19  21
ENDBRANCH  14  15
ENDBRANCH   1  14
TORSDOF 5
ENDMDL
MODEL 5
REMARK VINA RESULT:    -7.146      3.554      7.481
REMARK INTER + INTRA:         -10.206
REMARK INTER:                  -9.227
REMARK INTRA:                  -0.979
REMARK UNBOUND:                -0.972
REMARK  Name = 
REMARK  5 active torsions:
REMARK  status: ('A' for Active; 'I' for Inactive)
REMARK    1  A    between atoms: C_2  and  C_4
REMARK    2  A    between atoms: C_9  and  O_10
REMARK    3  A    between atoms: O_10  and  C_11
REMARK    4  A    between atoms: C_11  and  C_12
REMARK    5  A    between atoms: C_16  and  C_17
REMARK                            x       y       z     vdW  Elec       q    Type
REMARK                         _______ _______ _______ _____ _____    ______ ____
ROOT
ATOM      1  O   UNL     1      45.208   5.636   9.800  0.00  0.00    +0.000 OA
ENDROOT
BRANCH   1   7
ATOM      2  C   UNL     1      46.451   2.887   7.621  0.00  0.00    +0.000 A 
ATOM      3  C   UNL     1      45.653   1.845   8.100  0.00  0.00    +0.000 A 
ATOM      4  C   UNL     1      44.742   2.110   9.114  0.00  0.00    +0.000 A 
ATOM      5  F   UNL     1      43.976   1.115   9.580  0.00  0.00    +0.000 F 
ATOM      6  C   UNL     1      44.613   3.385   9.659  0.00  0.00    +0.000 A 
ATOM      7  C   UNL     1      45.416   4.426   9.193  0.00  0.00    +0.000 A 
ATOM      8  C   UNL     1      46.340   4.170   8.178  0.00  0.00    +0.000 A 
BRANCH   2  10
ATOM      9  N   UNL     1      47.214   3.333   5.355  0.00  0.00    +0.000 N 
ATOM     10  C   UNL     1      47.442   2.684   6.535  0.00  0.00    +0.000 C 
ATOM     11  O   UNL     1      48.443   2.006   6.706  0.00  0.00    +0.000 OA
ATOM     12  H   UNL     1      47.954   3.277   4.664  0.00  0.00    +0.000 HD
ATOM     13  H   UNL     1      46.549   4.089   5.264  0.00  0.00    +0.000 HD
ENDBRANCH   2  10
ENDBRANCH   1   7
BRANCH   1  14
ATOM     14  C   UNL     1      44.956   5.599  11.203  0.00  0.00    +0.000 C 
BRANCH  14  15
ATOM     15  C   UNL     1      46.212   5.953  11.958  0.00  0.00    +0.000 A 
ATOM     16  C   UNL     1      47.081   6.936  11.475  0.00  0.00    +0.000 A 
ATOM     17  C   UNL     1      48.203   7.299  12.213  0.00  0.00    +0.000 A 
ATOM     18  C   UNL     1      48.455   6.695  13.448  0.00  0.00    +0.000 A 
ATOM     19  C   UNL     1      47.590   5.722  13.981  0.00  0.00    +0.000 A 
ATOM     20  C   UNL     1      46.492   5.336  13.190  0.00  0.00    +0.000 A 
BRANCH  19  21
ATOM     21  C   UNL     1      47.748   5.212  15.363  0.00  0.00    +0.000 A 
ATOM     22  C   UNL     1      47.179   3.980  15.739  0.00  0.00    +0.000 A 
ATOM     23  C   UNL     1      47.409   3.419  16.997  0.00  0.00    +0.000 A 
ATOM     24  C   UNL     1      48.224   4.075  17.913  0.00  0.00    +0.000 A 
ATOM     25  C   UNL     1      48.785   5.304  17.579  0.00  0.00    +0.000 A 
ATOM     26  C   UNL     1      48.540   5.871  16.322  0.00  0.00    +0.000 A 
ENDBRANCH  19  21
ENDBRANCH  14  15
ENDBRANCH   1  14
TORSDOF 5
ENDMDL
MODEL 6
REMARK VINA RESULT:    -7.006      2.946      4.228
REMARK INTER + INTRA:         -10.026
REMARK INTER:                  -9.333
REMARK INTRA:                  -0.692
REMARK UNBOUND:                -0.972
REMARK  Name = 
REMARK  5 active torsions:
REMARK  status: ('A' for Active; 'I' for Inactive)
REMARK    1  A    between atoms: C_2  and  C_4
REMARK    2  A    between atoms: C_9  and  O_10
REMARK    3  A    between atoms: O_10  and  C_11
REMARK    4  A    between atoms: C_11  and  C_12
REMARK    5  A    between atoms: C_16  and  C_17
REMARK                            x       y       z     vdW  Elec       q    Type
REMARK                         _______ _______ _______ _____ _____    ______ ____
ROOT
ATOM      1  O   UNL     1      46.512   3.666  15.067  0.00  0.00    +0.000 OA
ENDROOT
BRANCH   1   7
ATOM      2  C   UNL     1      49.396   3.070  17.344  0.00  0.00    +0.000 A 
ATOM      3  C   UNL     1      49.042   3.936  18.382  0.00  0.00    +0.000 A 
ATOM      4  C   UNL     1      47.864   4.665  18.276  0.00  0.00    +0.000 A 
ATOM      5  F   UNL     1      47.521   5.499  19.267  0.00  0.00    +0.000 F 
ATOM      6  C   UNL     1      47.039   4.552  17.160  0.00  0.00    +0.000 A 
ATOM      7  C   UNL     1      47.394   3.699  16.115  0.00  0.00    +0.000 A 
ATOM      8  C   UNL     1      48.578   2.965  16.208  0.00  0.00    +0.000 A 
BRANCH   2  10
ATOM      9  N   UNL     1      51.606   2.642  18.265  0.00  0.00    +0.000 N 
ATOM     10  C   UNL     1      50.634   2.253  17.388  0.00  0.00    +0.000 C 
ATOM     11  O   UNL     1      50.756   1.248  16.706  0.00  0.00    +0.000 OA
ATOM     12  H   UNL     1      52.395   2.014  18.365  0.00  0.00    +0.000 HD
ATOM     13  H   UNL     1      51.439   3.302  19.012  0.00  0.00    +0.000 HD
ENDBRANCH   2  10
ENDBRANCH   1   7
BRANCH   1  14
ATOM     14  C   UNL     1      46.457   4.839  14.257  0.00  0.00    +0.000 C 
BRANCH  14  15
ATOM     15  C   UNL     1      45.417   4.668  13.179  0.00  0.00    +0.000 A 
ATOM     16  C   UNL     1      44.129   5.187  13.342  0.00  0.00    +0.000 A 
ATOM     17  C   UNL     1      43.199   5.079  12.314  0.00  0.00    +0.000 A 
ATOM     18  C   UNL     1      43.554   4.468  11.108  0.00  0.00    +0.000 A 
ATOM     19  C   UNL     1      44.848   3.958  10.895  0.00  0.00    +0.000 A 
ATOM     20  C   UNL     1      45.752   4.033  11.971  0.00  0.00    +0.000 A 
BRANCH  19  21
ATOM     21  C   UNL     1      45.287   3.475   9.565  0.00  0.00    +0.000 A 
ATOM     22  C   UNL     1      45.699   4.387   8.574  0.00  0.00    +0.000 A 
ATOM     23  C   UNL     1      46.226   3.956   7.355  0.00  0.00    +0.000 A 
ATOM     24  C   UNL     1      46.363   2.596   7.097  0.00  0.00    +0.000 A 
ATOM     25  C   UNL     1      45.946   1.670   8.048  0.00  0.00    +0.000 A 
ATOM     26  C   UNL     1      45.404   2.105   9.264  0.00  0.00    +0.000 A 
ENDBRANCH  19  21
ENDBRANCH  14  15
ENDBRANCH   1  14
TORSDOF 5
ENDMDL
MODEL 7
REMARK VINA RESULT:    -6.967      2.776      4.804
REMARK INTER + INTRA:          -9.975
REMARK INTER:                  -9.001
REMARK INTRA:                  -0.975
REMARK UNBOUND:                -0.972
REMARK  Name = 
REMARK  5 active torsions:
REMARK  status: ('A' for Active; 'I' for Inactive)
REMARK    1  A    between atoms: C_2  and  C_4
REMARK    2  A    between atoms: C_9  and  O_10
REMARK    3  A    between atoms: O_10  and  C_11
REMARK    4  A    between atoms: C_11  and  C_12
REMARK    5  A    between atoms: C_16  and  C_17
REMARK                            x       y       z     vdW  Elec       q    Type
REMARK                         _______ _______ _______ _____ _____    ______ ____
ROOT
ATOM      1  O   UNL     1      48.759   6.445  14.140  0.00  0.00    +0.000 OA
ENDROOT
BRANCH   1   7
ATOM      2  C   UNL     1      48.020   4.873  17.432  0.00  0.00    +0.000 A 
ATOM      3  C   UNL     1      48.314   5.955  18.266  0.00  0.00    +0.000 A 
ATOM      4  C   UNL     1      48.734   7.148  17.694  0.00  0.00    +0.000 A 
ATOM      5  F   UNL     1      49.020   8.188  18.488  0.00  0.00    +0.000 F 
ATOM      6  C   UNL     1      48.870   7.283  16.315  0.00  0.00    +0.000 A 
ATOM      7  C   UNL     1      48.590   6.202  15.478  0.00  0.00    +0.000 A 
ATOM      8  C   UNL     1      48.173   4.996  16.043  0.00  0.00    +0.000 A 
BRANCH   2  10
ATOM      9  N   UNL     1      48.171   3.108  19.100  0.00  0.00    +0.000 N 
ATOM     10  C   UNL     1      47.559   3.568  17.968  0.00  0.00    +0.000 C 
ATOM     11  O   UNL     1      46.640   2.956  17.448  0.00  0.00    +0.000 OA
ATOM     12  H   UNL     1      47.772   2.275  19.517  0.00  0.00    +0.000 HD
ATOM     13  H   UNL     1      48.745   3.695  19.690  0.00  0.00    +0.000 HD
ENDBRANCH   2  10
ENDBRANCH   1   7
BRANCH   1  14
ATOM     14  C   UNL     1      48.361   7.735  13.682  0.00  0.00    +0.000 C 
BRANCH  14  15
ATOM     15  C   UNL     1      47.055   7.632  12.935  0.00  0.00    +0.000 A 
ATOM     16  C   UNL     1      46.187   8.726  12.864  0.00  0.00    +0.000 A 
ATOM     17  C   UNL     1      45.016   8.639  12.118  0.00  0.00    +0.000 A 
ATOM     18  C   UNL     1      44.712   7.465  11.424  0.00  0.00    +0.000 A 
ATOM     19  C   UNL     1      45.574   6.352  11.448  0.00  0.00    +0.000 A 
ATOM     20  C   UNL     1      46.724   6.449  12.253  0.00  0.00    +0.000 A 
BRANCH  19  21
ATOM     21  C   UNL     1      45.353   5.176  10.574  0.00  0.00    +0.000 A 
ATOM     22  C   UNL     1      44.666   4.046  11.058  0.00  0.00    +0.000 A 
ATOM     23  C   UNL     1      44.342   2.973  10.225  0.00  0.00    +0.000 A 
ATOM     24  C   UNL     1      44.691   3.006   8.879  0.00  0.00    +0.000 A 
ATOM     25  C   UNL     1      45.389   4.100   8.376  0.00  0.00    +0.000 A 
ATOM     26  C   UNL     1      45.725   5.168   9.217  0.00  0.00    +0.000 A 
ENDBRANCH  19  21
ENDBRANCH  14  15
ENDBRANCH   1  14
TORSDOF 5
ENDMDL
MODEL 8
REMARK VINA RESULT:    -6.761      3.379      7.612
REMARK INTER + INTRA:          -9.708
REMARK INTER:                  -8.724
REMARK INTRA:                  -0.984
REMARK UNBOUND:                -0.972
REMARK  Name = 
REMARK  5 active torsions:
REMARK  status: ('A' for Active; 'I' for Inactive)
REMARK    1  A    between atoms: C_2  and  C_4
REMARK    2  A    between atoms: C_9  and  O_10
REMARK    3  A    between atoms: O_10  and  C_11
REMARK    4  A    between atoms: C_11  and  C_12
REMARK    5  A    between atoms: C_16  and  C_17
REMARK                            x       y       z     vdW  Elec       q    Type
REMARK                         _______ _______ _______ _____ _____    ______ ____
ROOT
ATOM      1  O   UNL     1      45.460   6.827  12.566  0.00  0.00    +0.000 OA
ENDROOT
BRANCH   1   7
ATOM      2  C   UNL     1      44.962   4.281   9.896  0.00  0.00    +0.000 A 
ATOM      3  C   UNL     1      44.322   3.293  10.648  0.00  0.00    +0.000 A 
ATOM      4  C   UNL     1      44.082   3.525  11.996  0.00  0.00    +0.000 A 
ATOM      5  F   UNL     1      43.471   2.581  12.722  0.00  0.00    +0.000 F 
ATOM      6  C   UNL     1      44.470   4.715  12.607  0.00  0.00    +0.000 A 
ATOM      7  C   UNL     1      45.122   5.700  11.865  0.00  0.00    +0.000 A 
ATOM      8  C   UNL     1      45.373   5.475  10.510  0.00  0.00    +0.000 A 
BRANCH   2  10
ATOM      9  N   UNL     1      44.356   3.370   7.723  0.00  0.00    +0.000 N 
ATOM     10  C   UNL     1      45.246   4.111   8.449  0.00  0.00    +0.000 C 
ATOM     11  O   UNL     1      46.205   4.650   7.922  0.00  0.00    +0.000 OA
ATOM     12  H   UNL     1      44.500   3.355   6.721  0.00  0.00    +0.000 HD
ATOM     13  H   UNL     1      43.436   3.128   8.065  0.00  0.00    +0.000 HD
ENDBRANCH   2  10
ENDBRANCH   1   7
BRANCH   1  14
ATOM     14  C   UNL     1      46.742   7.383  12.279  0.00  0.00    +0.000 C 
BRANCH  14  15
ATOM     15  C   UNL     1      47.568   7.441  13.538  0.00  0.00    +0.000 A 
ATOM     16  C   UNL     1      48.101   8.653  13.986  0.00  0.00    +0.000 A 
ATOM     17  C   UNL     1      48.807   8.705  15.184  0.00  0.00    +0.000 A 
ATOM     18  C   UNL     1      48.969   7.549  15.952  0.00  0.00    +0.000 A 
ATOM     19  C   UNL     1      48.424   6.316  15.550  0.00  0.00    +0.000 A 
ATOM     20  C   UNL     1      47.761   6.282  14.309  0.00  0.00    +0.000 A 
BRANCH  19  21
ATOM     21  C   UNL     1      48.434   5.132  16.441  0.00  0.00    +0.000 A 
ATOM     22  C   UNL     1      49.501   4.920  17.335  0.00  0.00    +0.000 A 
ATOM     23  C   UNL     1      49.482   3.879  18.265  0.00  0.00    +0.000 A 
ATOM     24  C   UNL     1      48.386   3.025  18.332  0.00  0.00    +0.000 A 
ATOM     25  C   UNL     1      47.325   3.196  17.448  0.00  0.00    +0.000 A 
ATOM     26  C   UNL     1      47.354   4.232  16.506  0.00  0.00    +0.000 A 
ENDBRANCH  19  21
ENDBRANCH  14  15
ENDBRANCH   1  14
TORSDOF 5
ENDMDL
MODEL 9
REMARK VINA RESULT:    -6.738      3.140      5.065
REMARK INTER + INTRA:          -9.680
REMARK INTER:                  -8.820
REMARK INTRA:                  -0.859
REMARK UNBOUND:                -0.972
REMARK  Name = 
REMARK  5 active torsions:
REMARK  status: ('A' for Active; 'I' for Inactive)
REMARK    1  A    between atoms: C_2  and  C_4
REMARK    2  A    between atoms: C_9  and  O_10
REMARK    3  A    between atoms: O_10  and  C_11
REMARK    4  A    between atoms: C_11  and  C_12
REMARK    5  A    between atoms: C_16  and  C_17
REMARK                            x       y       z     vdW  Elec       q    Type
REMARK                         _______ _______ _______ _____ _____    ______ ____
ROOT
ATOM      1  O   UNL     1      48.135   5.411  14.461  0.00  0.00    +0.000 OA
ENDROOT
BRANCH   1   7
ATOM      2  C   UNL     1      48.698   5.435  18.140  0.00  0.00    +0.000 A 
ATOM      3  C   UNL     1      48.019   4.262  18.477  0.00  0.00    +0.000 A 
ATOM      4  C   UNL     1      47.417   3.521  17.467  0.00  0.00    +0.000 A 
ATOM      5  F   UNL     1      46.762   2.397  17.784  0.00  0.00    +0.000 F 
ATOM      6  C   UNL     1      47.475   3.928  16.137  0.00  0.00    +0.000 A 
ATOM      7  C   UNL     1      48.141   5.105  15.796  0.00  0.00    +0.000 A 
ATOM      8  C   UNL     1      48.745   5.860  16.804  0.00  0.00    +0.000 A 
BRANCH   2  10
ATOM      9  N   UNL     1      49.242   7.630  19.038  0.00  0.00    +0.000 N 
ATOM     10  C   UNL     1      49.373   6.275  19.161  0.00  0.00    +0.000 C 
ATOM     11  O   UNL     1      49.976   5.777  20.097  0.00  0.00    +0.000 OA
ATOM     12  H   UNL     1      49.611   8.185  19.801  0.00  0.00    +0.000 HD
ATOM     13  H   UNL     1      48.553   8.062  18.437  0.00  0.00    +0.000 HD
ENDBRANCH   2  10
ENDBRANCH   1   7
BRANCH   1  14
ATOM     14  C   UNL     1      47.989   6.791  14.134  0.00  0.00    +0.000 C 
BRANCH  14  15
ATOM     15  C   UNL     1      46.844   6.971  13.170  0.00  0.00    +0.000 A 
ATOM     16  C   UNL     1      46.246   8.223  12.998  0.00  0.00    +0.000 A 
ATOM     17  C   UNL     1      45.234   8.390  12.059  0.00  0.00    +0.000 A 
ATOM     18  C   UNL     1      44.824   7.310  11.271  0.00  0.00    +0.000 A 
ATOM     19  C   UNL     1      45.420   6.042  11.394  0.00  0.00    +0.000 A 
ATOM     20  C   UNL     1      46.404   5.889  12.388  0.00  0.00    +0.000 A 
BRANCH  19  21
ATOM     21  C   UNL     1      45.122   4.945  10.444  0.00  0.00    +0.000 A 
ATOM     22  C   UNL     1      45.596   4.999   9.119  0.00  0.00    +0.000 A 
ATOM     23  C   UNL     1      45.430   3.929   8.236  0.00  0.00    +0.000 A 
ATOM     24  C   UNL     1      44.791   2.769   8.661  0.00  0.00    +0.000 A 
ATOM     25  C   UNL     1      44.294   2.693   9.958  0.00  0.00    +0.000 A 
ATOM     26  C   UNL     1      44.448   3.773  10.836  0.00  0.00    +0.000 A 
ENDBRANCH  19  21
ENDBRANCH  14  15
ENDBRANCH   1  14
TORSDOF 5
ENDMDL
