MODEL 1
REMARK VINA RESULT:    -8.996      0.000      0.000
REMARK INTER + INTRA:         -13.423
REMARK INTER:                 -12.151
REMARK INTRA:                  -1.271
REMARK UNBOUND:                -1.271
REMARK  Name = 
REMARK  8 active torsions:
REMARK  status: ('A' for Active; 'I' for Inactive)
REMARK    1  A    between atoms: C_1  and  C_2
REMARK    2  A    between atoms: C_2  and  C_3
REMARK    3  A    between atoms: C_2  and  C_4
REMARK    4  A    between atoms: C_2  and  C_15
REMARK    5  A    between atoms: C_4  and  N_5
REMARK    6  A    between atoms: N_5  and  C_6
REMARK    7  A    between atoms: C_9  and  C_10
REMARK    8  A    between atoms: C_20  and  C_21
REMARK                            x       y       z     vdW  Elec       q    Type
REMARK                         _______ _______ _______ _____ _____    ______ ____
ROOT
ATOM      1  C   UNL     1      42.860   5.429  12.787  0.00  0.00    +0.000 C 
ATOM      2  C   UNL     1      43.897   4.540  12.062  0.00  0.00    +0.000 C 
ATOM      3  C   UNL     1      43.617   3.073  12.475  0.00  0.00    +0.000 C 
ENDROOT
BRANCH   2   4
ATOM      4  C   UNL     1      45.298   5.036  12.489  0.00  0.00    +0.000 A 
ATOM      5  C   UNL     1      45.968   6.022  11.747  0.00  0.00    +0.000 A 
ATOM      6  C   UNL     1      47.183   6.539  12.188  0.00  0.00    +0.000 A 
ATOM      7  F   UNL     1      47.783   7.501  11.474  0.00  0.00    +0.000 F 
ATOM      8  C   UNL     1      47.760   6.112  13.377  0.00  0.00    +0.000 A 
ATOM      9  C   UNL     1      47.121   5.149  14.169  0.00  0.00    +0.000 A 
ATOM     10  C   UNL     1      45.911   4.606  13.683  0.00  0.00    +0.000 A 
BRANCH   9  11
ATOM     11  C   UNL     1      47.609   4.793  15.522  0.00  0.00    +0.000 A 
ATOM     12  C   UNL     1      47.314   3.538  16.086  0.00  0.00    +0.000 A 
ATOM     13  C   UNL     1      47.874   3.133  17.301  0.00  0.00    +0.000 A 
ATOM     14  C   UNL     1      48.747   3.975  17.981  0.00  0.00    +0.000 A 
ATOM     15  C   UNL     1      49.037   5.232  17.461  0.00  0.00    +0.000 A 
ATOM     16  C   UNL     1      48.463   5.641  16.253  0.00  0.00    +0.000 A 
ENDBRANCH   9  11
ENDBRANCH   2   4
BRANCH   2  17
ATOM     17  C   UNL     1      43.751   4.645  10.509  0.00  0.00    +0.000 C 
BRANCH  17  18
ATOM     18  N   UNL     1      43.749   3.325   9.863  0.00  0.00    +0.000 N 
ATOM     19  H   UNL     1      42.837   3.078   9.489  0.00  0.00    +0.000 HD
BRANCH  18  20
ATOM     20  C   UNL     1      44.753   3.028   8.933  0.00  0.00    +0.000 A 
ATOM     21  C   UNL     1      45.368   3.990   8.127  0.00  0.00    +0.000 A 
ATOM     22  C   UNL     1      46.407   3.646   7.254  0.00  0.00    +0.000 A 
ATOM     23  C   UNL     1      46.879   2.332   7.201  0.00  0.00    +0.000 A 
ATOM     24  C   UNL     1      46.303   1.365   8.027  0.00  0.00    +0.000 A 
ATOM     25  C   UNL     1      45.264   1.721   8.895  0.00  0.00    +0.000 A 
BRANCH  23  26
ATOM     26  C   UNL     1      47.977   2.017   6.250  0.00  0.00    +0.000 C 
ATOM     27  N   UNL     1      49.071   2.836   6.254  0.00  0.00    +0.000 N 
ATOM     28  O   UNL     1      47.900   1.082   5.465  0.00  0.00    +0.000 OA
ATOM     29  H   UNL     1      49.068   3.746   6.690  0.00  0.00    +0.000 HD
ATOM     30  H   UNL     1      49.749   2.669   5.522  0.00  0.00    +0.000 HD
ENDBRANCH  23  26
ENDBRANCH  18  20
ENDBRANCH  17  18
ENDBRANCH   2  17
TORSDOF 6
ENDMDL
MODEL 2
REMARK VINA RESULT:    -8.419      1.866      3.605
REMARK INTER + INTRA:         -12.643
REMARK INTER:                 -11.552
REMARK INTRA:                  -1.091
REMARK UNBOUND:                -1.271
REMARK  Name = 
REMARK  8 active torsions:
REMARK  status: ('A' for Active; 'I' for Inactive)
REMARK    1  A    between atoms: C_1  and  C_2
REMARK    2  A    between atoms: C_2  and  C_3
REMARK    3  A    between atoms: C_2  and  C_4
REMARK    4  A    between atoms: C_2  and  C_15
REMARK    5  A    between atoms: C_4  and  N_5
REMARK    6  A    between atoms: N_5  and  C_6
REMARK    7  A    between atoms: C_9  and  C_10
REMARK    8  A    between atoms: C_20  and  C_21
REMARK                            x       y       z     vdW  Elec       q    Type
REMARK                         _______ _______ _______ _____ _____    ______ ____
ROOT
ATOM      1  C   UNL     1      42.773   5.380  12.958  0.00  0.00    +0.000 C 
ATOM      2  C   UNL     1      43.974   4.689  12.272  0.00  0.00    +0.000 C 
ATOM      3  C   UNL     1      43.754   3.159  12.387  0.00  0.00    +0.000 C 
ENDROOT
BRANCH   2   4
ATOM      4  C   UNL     1      45.252   5.176  12.994  0.00  0.00    +0.000 A 
ATOM      5  C   UNL     1      45.881   4.374  13.960  0.00  0.00    +0.000 A 
ATOM      6  C   UNL     1      47.085   4.769  14.535  0.00  0.00    +0.000 A 
ATOM      7  F   UNL     1      47.677   3.967  15.431  0.00  0.00    +0.000 F 
ATOM      8  C   UNL     1      47.709   5.953  14.164  0.00  0.00    +0.000 A 
ATOM      9  C   UNL     1      47.138   6.778  13.187  0.00  0.00    +0.000 A 
ATOM     10  C   UNL     1      45.894   6.381  12.646  0.00  0.00    +0.000 A 
BRANCH   9  11
ATOM     11  C   UNL     1      47.850   7.955  12.635  0.00  0.00    +0.000 A 
ATOM     12  C   UNL     1      49.092   7.808  11.992  0.00  0.00    +0.000 A 
ATOM     13  C   UNL     1      49.714   8.882  11.350  0.00  0.00    +0.000 A 
ATOM     14  C   UNL     1      49.104  10.132  11.333  0.00  0.00    +0.000 A 
ATOM     15  C   UNL     1      47.887  10.313  11.982  0.00  0.00    +0.000 A 
ATOM     16  C   UNL     1      47.275   9.240  12.637  0.00  0.00    +0.000 A 
ENDBRANCH   9  11
ENDBRANCH   2   4
BRANCH   2  17
ATOM     17  C   UNL     1      44.053   5.057  10.754  0.00  0.00    +0.000 C 
BRANCH  17  18
ATOM     18  N   UNL     1      43.681   3.927   9.891  0.00  0.00    +0.000 N 
ATOM     19  H   UNL     1      42.800   4.083   9.408  0.00  0.00    +0.000 HD
BRANCH  18  20
ATOM     20  C   UNL     1      44.635   3.410   9.007  0.00  0.00    +0.000 A 
ATOM     21  C   UNL     1      45.409   4.204   8.155  0.00  0.00    +0.000 A 
ATOM     22  C   UNL     1      46.390   3.638   7.333  0.00  0.00    +0.000 A 
ATOM     23  C   UNL     1      46.645   2.266   7.377  0.00  0.00    +0.000 A 
ATOM     24  C   UNL     1      45.909   1.462   8.251  0.00  0.00    +0.000 A 
ATOM     25  C   UNL     1      44.930   2.039   9.068  0.00  0.00    +0.000 A 
BRANCH  23  26
ATOM     26  C   UNL     1      47.690   1.715   6.477  0.00  0.00    +0.000 C 
ATOM     27  N   UNL     1      48.845   2.431   6.336  0.00  0.00    +0.000 N 
ATOM     28  O   UNL     1      47.520   0.676   5.853  0.00  0.00    +0.000 OA
ATOM     29  H   UNL     1      48.925   3.396   6.619  0.00  0.00    +0.000 HD
ATOM     30  H   UNL     1      49.489   2.095   5.631  0.00  0.00    +0.000 HD
ENDBRANCH  23  26
ENDBRANCH  18  20
ENDBRANCH  17  18
ENDBRANCH   2  17
TORSDOF 6
ENDMDL
MODEL 3
REMARK VINA RESULT:    -7.369      3.985      8.244
REMARK INTER + INTRA:         -11.225
REMARK INTER:                 -10.298
REMARK INTRA:                  -0.927
REMARK UNBOUND:                -1.271
REMARK  Name = 
REMARK  8 active torsions:
REMARK  status: ('A' for Active; 'I' for Inactive)
REMARK    1  A    between atoms: C_1  and  C_2
REMARK    2  A    between atoms: C_2  and  C_3
REMARK    3  A    between atoms: C_2  and  C_4
REMARK    4  A    between atoms: C_2  and  C_15
REMARK    5  A    between atoms: C_4  and  N_5
REMARK    6  A    between atoms: N_5  and  C_6
REMARK    7  A    between atoms: C_9  and  C_10
REMARK    8  A    between atoms: C_20  and  C_21
REMARK                            x       y       z     vdW  Elec       q    Type
REMARK                         _______ _______ _______ _____ _____    ______ ____
ROOT
ATOM      1  C   UNL     1      45.583   8.878  12.113  0.00  0.00    +0.000 C 
ATOM      2  C   UNL     1      46.332   7.530  12.225  0.00  0.00    +0.000 C 
ATOM      3  C   UNL     1      47.646   7.663  11.414  0.00  0.00    +0.000 C 
ENDROOT
BRANCH   2   4
ATOM      4  C   UNL     1      45.385   6.437  11.676  0.00  0.00    +0.000 A 
ATOM      5  C   UNL     1      44.013   6.458  11.978  0.00  0.00    +0.000 A 
ATOM      6  C   UNL     1      43.147   5.533  11.402  0.00  0.00    +0.000 A 
ATOM      7  F   UNL     1      41.839   5.598  11.686  0.00  0.00    +0.000 F 
ATOM      8  C   UNL     1      43.603   4.579  10.502  0.00  0.00    +0.000 A 
ATOM      9  C   UNL     1      44.957   4.530  10.147  0.00  0.00    +0.000 A 
ATOM     10  C   UNL     1      45.828   5.449  10.775  0.00  0.00    +0.000 A 
BRANCH   9  11
ATOM     11  C   UNL     1      45.457   3.648   9.066  0.00  0.00    +0.000 A 
ATOM     12  C   UNL     1      46.117   4.186   7.946  0.00  0.00    +0.000 A 
ATOM     13  C   UNL     1      46.711   3.364   6.985  0.00  0.00    +0.000 A 
ATOM     14  C   UNL     1      46.662   1.982   7.123  0.00  0.00    +0.000 A 
ATOM     15  C   UNL     1      45.994   1.421   8.206  0.00  0.00    +0.000 A 
ATOM     16  C   UNL     1      45.387   2.245   9.158  0.00  0.00    +0.000 A 
ENDBRANCH   9  11
ENDBRANCH   2   4
BRANCH   2  17
ATOM     17  C   UNL     1      46.706   7.207  13.709  0.00  0.00    +0.000 C 
BRANCH  17  18
ATOM     18  N   UNL     1      47.087   5.798  13.889  0.00  0.00    +0.000 N 
ATOM     19  H   UNL     1      47.614   5.436  13.099  0.00  0.00    +0.000 HD
BRANCH  18  20
ATOM     20  C   UNL     1      47.687   5.411  15.093  0.00  0.00    +0.000 A 
ATOM     21  C   UNL     1      48.580   6.218  15.805  0.00  0.00    +0.000 A 
ATOM     22  C   UNL     1      49.106   5.803  17.035  0.00  0.00    +0.000 A 
ATOM     23  C   UNL     1      48.715   4.584  17.596  0.00  0.00    +0.000 A 
ATOM     24  C   UNL     1      47.794   3.783  16.918  0.00  0.00    +0.000 A 
ATOM     25  C   UNL     1      47.275   4.208  15.689  0.00  0.00    +0.000 A 
BRANCH  23  26
ATOM     26  C   UNL     1      49.311   4.187  18.897  0.00  0.00    +0.000 C 
ATOM     27  N   UNL     1      48.486   3.605  19.819  0.00  0.00    +0.000 N 
ATOM     28  O   UNL     1      50.487   4.397  19.159  0.00  0.00    +0.000 OA
ATOM     29  H   UNL     1      47.480   3.645  19.751  0.00  0.00    +0.000 HD
ATOM     30  H   UNL     1      48.888   3.450  20.735  0.00  0.00    +0.000 HD
ENDBRANCH  23  26
ENDBRANCH  18  20
ENDBRANCH  17  18
ENDBRANCH   2  17
TORSDOF 6
ENDMDL
MODEL 4
REMARK VINA RESULT:    -7.176      4.008      7.953
REMARK INTER + INTRA:         -10.964
REMARK INTER:                  -9.543
REMARK INTRA:                  -1.421
REMARK UNBOUND:                -1.271
REMARK  Name = 
REMARK  8 active torsions:
REMARK  status: ('A' for Active; 'I' for Inactive)
REMARK    1  A    between atoms: C_1  and  C_2
REMARK    2  A    between atoms: C_2  and  C_3
REMARK    3  A    between atoms: C_2  and  C_4
REMARK    4  A    between atoms: C_2  and  C_15
REMARK    5  A    between atoms: C_4  and  N_5
REMARK    6  A    between atoms: N_5  and  C_6
REMARK    7  A    between atoms: C_9  and  C_10
REMARK    8  A    between atoms: C_20  and  C_21
REMARK                            x       y       z     vdW  Elec       q    Type
REMARK                         _______ _______ _______ _____ _____    ______ ____
ROOT
ATOM      1  C   UNL     1      49.151   9.934  11.808  0.00  0.00    +0.000 C 
ATOM      2  C   UNL     1      48.869   8.580  12.499  0.00  0.00    +0.000 C 
ATOM      3  C   UNL     1      49.880   7.552  11.930  0.00  0.00    +0.000 C 
ENDROOT
BRANCH   2   4
ATOM      4  C   UNL     1      47.397   8.215  12.202  0.00  0.00    +0.000 A 
ATOM      5  C   UNL     1      46.390   9.194  12.251  0.00  0.00    +0.000 A 
ATOM      6  C   UNL     1      45.083   8.885  11.886  0.00  0.00    +0.000 A 
ATOM      7  F   UNL     1      44.151   9.848  11.915  0.00  0.00    +0.000 F 
ATOM      8  C   UNL     1      44.736   7.615  11.446  0.00  0.00    +0.000 A 
ATOM      9  C   UNL     1      45.707   6.609  11.353  0.00  0.00    +0.000 A 
ATOM     10  C   UNL     1      47.018   6.929  11.769  0.00  0.00    +0.000 A 
BRANCH   9  11
ATOM     11  C   UNL     1      45.422   5.296  10.727  0.00  0.00    +0.000 A 
ATOM     12  C   UNL     1      44.900   4.234  11.488  0.00  0.00    +0.000 A 
ATOM     13  C   UNL     1      44.501   3.035  10.892  0.00  0.00    +0.000 A 
ATOM     14  C   UNL     1      44.613   2.870   9.516  0.00  0.00    +0.000 A 
ATOM     15  C   UNL     1      45.149   3.892   8.741  0.00  0.00    +0.000 A 
ATOM     16  C   UNL     1      45.562   5.085   9.342  0.00  0.00    +0.000 A 
ENDBRANCH   9  11
ENDBRANCH   2   4
BRANCH   2  17
ATOM     17  C   UNL     1      49.088   8.673  14.045  0.00  0.00    +0.000 C 
BRANCH  17  18
ATOM     18  N   UNL     1      49.913   7.568  14.554  0.00  0.00    +0.000 N 
ATOM     19  H   UNL     1      50.777   7.895  14.980  0.00  0.00    +0.000 HD
BRANCH  18  20
ATOM     20  C   UNL     1      49.312   6.593  15.358  0.00  0.00    +0.000 A 
ATOM     21  C   UNL     1      48.140   5.916  15.005  0.00  0.00    +0.000 A 
ATOM     22  C   UNL     1      47.614   4.908  15.821  0.00  0.00    +0.000 A 
ATOM     23  C   UNL     1      48.275   4.528  16.992  0.00  0.00    +0.000 A 
ATOM     24  C   UNL     1      49.468   5.166  17.341  0.00  0.00    +0.000 A 
ATOM     25  C   UNL     1      49.984   6.173  16.517  0.00  0.00    +0.000 A 
BRANCH  23  26
ATOM     26  C   UNL     1      47.669   3.460  17.827  0.00  0.00    +0.000 C 
ATOM     27  N   UNL     1      48.323   3.107  18.974  0.00  0.00    +0.000 N 
ATOM     28  O   UNL     1      46.641   2.887  17.494  0.00  0.00    +0.000 OA
ATOM     29  H   UNL     1      49.283   3.362  19.154  0.00  0.00    +0.000 HD
ATOM     30  H   UNL     1      47.953   2.302  19.463  0.00  0.00    +0.000 HD
ENDBRANCH  23  26
ENDBRANCH  18  20
ENDBRANCH  17  18
ENDBRANCH   2  17
TORSDOF 6
ENDMDL
MODEL 5
REMARK VINA RESULT:    -7.079      2.380      4.042
REMARK INTER + INTRA:         -10.833
REMARK INTER:                  -9.815
REMARK INTRA:                  -1.018
REMARK UNBOUND:                -1.271
REMARK  Name = 
REMARK  8 active torsions:
REMARK  status: ('A' for Active; 'I' for Inactive)
REMARK    1  A    between atoms: C_1  and  C_2
REMARK    2  A    between atoms: C_2  and  C_3
REMARK    3  A    between atoms: C_2  and  C_4
REMARK    4  A    between atoms: C_2  and  C_15
REMARK    5  A    between atoms: C_4  and  N_5
REMARK    6  A    between atoms: N_5  and  C_6
REMARK    7  A    between atoms: C_9  and  C_10
REMARK    8  A    between atoms: C_20  and  C_21
REMARK                            x       y       z     vdW  Elec       q    Type
REMARK                         _______ _______ _______ _____ _____    ______ ____
ROOT
ATOM      1  C   UNL     1      43.810   4.836  10.074  0.00  0.00    +0.000 C 
ATOM      2  C   UNL     1      44.389   3.668  10.905  0.00  0.00    +0.000 C 
ATOM      3  C   UNL     1      43.195   2.939  11.572  0.00  0.00    +0.000 C 
ENDROOT
BRANCH   2   4
ATOM      4  C   UNL     1      45.375   4.281  11.926  0.00  0.00    +0.000 A 
ATOM      5  C   UNL     1      45.949   3.489  12.935  0.00  0.00    +0.000 A 
ATOM      6  C   UNL     1      46.911   4.018  13.790  0.00  0.00    +0.000 A 
ATOM      7  F   UNL     1      47.463   3.229  14.722  0.00  0.00    +0.000 F 
ATOM      8  C   UNL     1      47.346   5.331  13.665  0.00  0.00    +0.000 A 
ATOM      9  C   UNL     1      46.825   6.156  12.660  0.00  0.00    +0.000 A 
ATOM     10  C   UNL     1      45.818   5.615  11.830  0.00  0.00    +0.000 A 
BRANCH   9  11
ATOM     11  C   UNL     1      47.381   7.501  12.378  0.00  0.00    +0.000 A 
ATOM     12  C   UNL     1      48.725   7.657  11.993  0.00  0.00    +0.000 A 
ATOM     13  C   UNL     1      49.231   8.898  11.595  0.00  0.00    +0.000 A 
ATOM     14  C   UNL     1      48.402  10.013  11.569  0.00  0.00    +0.000 A 
ATOM     15  C   UNL     1      47.075   9.894  11.969  0.00  0.00    +0.000 A 
ATOM     16  C   UNL     1      46.575   8.655  12.381  0.00  0.00    +0.000 A 
ENDBRANCH   9  11
ENDBRANCH   2   4
BRANCH   2  17
ATOM     17  C   UNL     1      45.141   2.640   9.997  0.00  0.00    +0.000 C 
BRANCH  17  18
ATOM     18  N   UNL     1      45.942   3.302   8.958  0.00  0.00    +0.000 N 
ATOM     19  H   UNL     1      46.751   3.784   9.341  0.00  0.00    +0.000 HD
BRANCH  18  20
ATOM     20  C   UNL     1      46.304   2.573   7.819  0.00  0.00    +0.000 A 
ATOM     21  C   UNL     1      46.598   1.206   7.838  0.00  0.00    +0.000 A 
ATOM     22  C   UNL     1      46.898   0.515   6.658  0.00  0.00    +0.000 A 
ATOM     23  C   UNL     1      46.871   1.173   5.426  0.00  0.00    +0.000 A 
ATOM     24  C   UNL     1      46.542   2.530   5.383  0.00  0.00    +0.000 A 
ATOM     25  C   UNL     1      46.244   3.211   6.569  0.00  0.00    +0.000 A 
BRANCH  23  26
ATOM     26  C   UNL     1      47.208   0.396   4.206  0.00  0.00    +0.000 C 
ATOM     27  N   UNL     1      46.989  -0.953   4.236  0.00  0.00    +0.000 N 
ATOM     28  O   UNL     1      47.694   0.927   3.218  0.00  0.00    +0.000 OA
ATOM     29  H   UNL     1      46.836  -1.461   5.094  0.00  0.00    +0.000 HD
ATOM     30  H   UNL     1      47.333  -1.473   3.438  0.00  0.00    +0.000 HD
ENDBRANCH  23  26
ENDBRANCH  18  20
ENDBRANCH  17  18
ENDBRANCH   2  17
TORSDOF 6
ENDMDL
MODEL 6
REMARK VINA RESULT:    -7.062      3.312      5.047
REMARK INTER + INTRA:         -10.811
REMARK INTER:                  -9.319
REMARK INTRA:                  -1.492
REMARK UNBOUND:                -1.271
REMARK  Name = 
REMARK  8 active torsions:
REMARK  status: ('A' for Active; 'I' for Inactive)
REMARK    1  A    between atoms: C_1  and  C_2
REMARK    2  A    between atoms: C_2  and  C_3
REMARK    3  A    between atoms: C_2  and  C_4
REMARK    4  A    between atoms: C_2  and  C_15
REMARK    5  A    between atoms: C_4  and  N_5
REMARK    6  A    between atoms: N_5  and  C_6
REMARK    7  A    between atoms: C_9  and  C_10
REMARK    8  A    between atoms: C_20  and  C_21
REMARK                            x       y       z     vdW  Elec       q    Type
REMARK                         _______ _______ _______ _____ _____    ______ ____
ROOT
ATOM      1  C   UNL     1      48.761   7.234  11.942  0.00  0.00    +0.000 C 
ATOM      2  C   UNL     1      48.205   8.483  12.664  0.00  0.00    +0.000 C 
ATOM      3  C   UNL     1      48.937   9.718  12.079  0.00  0.00    +0.000 C 
ENDROOT
BRANCH   2   4
ATOM      4  C   UNL     1      48.458   8.284  14.176  0.00  0.00    +0.000 A 
ATOM      5  C   UNL     1      48.342   9.361  15.071  0.00  0.00    +0.000 A 
ATOM      6  C   UNL     1      48.471   9.160  16.442  0.00  0.00    +0.000 A 
ATOM      7  F   UNL     1      48.324  10.202  17.272  0.00  0.00    +0.000 F 
ATOM      8  C   UNL     1      48.699   7.896  16.969  0.00  0.00    +0.000 A 
ATOM      9  C   UNL     1      48.797   6.784  16.123  0.00  0.00    +0.000 A 
ATOM     10  C   UNL     1      48.707   7.014  14.732  0.00  0.00    +0.000 A 
BRANCH   9  11
ATOM     11  C   UNL     1      48.865   5.399  16.647  0.00  0.00    +0.000 A 
ATOM     12  C   UNL     1      47.845   4.472  16.363  0.00  0.00    +0.000 A 
ATOM     13  C   UNL     1      47.955   3.129  16.735  0.00  0.00    +0.000 A 
ATOM     14  C   UNL     1      49.092   2.680  17.397  0.00  0.00    +0.000 A 
ATOM     15  C   UNL     1      50.106   3.579  17.714  0.00  0.00    +0.000 A 
ATOM     16  C   UNL     1      49.986   4.925  17.355  0.00  0.00    +0.000 A 
ENDBRANCH   9  11
ENDBRANCH   2   4
BRANCH   2  17
ATOM     17  C   UNL     1      46.673   8.658  12.403  0.00  0.00    +0.000 C 
BRANCH  17  18
ATOM     18  N   UNL     1      45.861   7.795  13.273  0.00  0.00    +0.000 N 
ATOM     19  H   UNL     1      45.143   8.313  13.772  0.00  0.00    +0.000 HD
BRANCH  18  20
ATOM     20  C   UNL     1      45.329   6.613  12.744  0.00  0.00    +0.000 A 
ATOM     21  C   UNL     1      44.527   6.572  11.600  0.00  0.00    +0.000 A 
ATOM     22  C   UNL     1      44.069   5.355  11.081  0.00  0.00    +0.000 A 
ATOM     23  C   UNL     1      44.440   4.147  11.678  0.00  0.00    +0.000 A 
ATOM     24  C   UNL     1      45.273   4.167  12.799  0.00  0.00    +0.000 A 
ATOM     25  C   UNL     1      45.725   5.390  13.309  0.00  0.00    +0.000 A 
BRANCH  23  26
ATOM     26  C   UNL     1      43.919   2.885  11.094  0.00  0.00    +0.000 C 
ATOM     27  N   UNL     1      44.617   2.332  10.057  0.00  0.00    +0.000 N 
ATOM     28  O   UNL     1      42.886   2.368  11.496  0.00  0.00    +0.000 OA
ATOM     29  H   UNL     1      45.311   2.844   9.535  0.00  0.00    +0.000 HD
ATOM     30  H   UNL     1      44.179   1.540   9.604  0.00  0.00    +0.000 HD
ENDBRANCH  23  26
ENDBRANCH  18  20
ENDBRANCH  17  18
ENDBRANCH   2  17
TORSDOF 6
ENDMDL
MODEL 7
REMARK VINA RESULT:    -6.832      3.371      6.025
REMARK INTER + INTRA:         -10.500
REMARK INTER:                  -9.445
REMARK INTRA:                  -1.055
REMARK UNBOUND:                -1.271
REMARK  Name = 
REMARK  8 active torsions:
REMARK  status: ('A' for Active; 'I' for Inactive)
REMARK    1  A    between atoms: C_1  and  C_2
REMARK    2  A    between atoms: C_2  and  C_3
REMARK    3  A    between atoms: C_2  and  C_4
REMARK    4  A    between atoms: C_2  and  C_15
REMARK    5  A    between atoms: C_4  and  N_5
REMARK    6  A    between atoms: N_5  and  C_6
REMARK    7  A    between atoms: C_9  and  C_10
REMARK    8  A    between atoms: C_20  and  C_21
REMARK                            x       y       z     vdW  Elec       q    Type
REMARK                         _______ _______ _______ _____ _____    ______ ____
ROOT
ATOM      1  C   UNL     1      50.760   7.386  15.726  0.00  0.00    +0.000 C 
ATOM      2  C   UNL     1      49.271   6.969  15.686  0.00  0.00    +0.000 C 
ATOM      3  C   UNL     1      48.450   8.127  16.308  0.00  0.00    +0.000 C 
ENDROOT
BRANCH   2   4
ATOM      4  C   UNL     1      49.149   5.644  16.474  0.00  0.00    +0.000 A 
ATOM      5  C   UNL     1      47.899   5.030  16.656  0.00  0.00    +0.000 A 
ATOM      6  C   UNL     1      47.803   3.788  17.278  0.00  0.00    +0.000 A 
ATOM      7  F   UNL     1      46.599   3.214  17.409  0.00  0.00    +0.000 F 
ATOM      8  C   UNL     1      48.932   3.112  17.719  0.00  0.00    +0.000 A 
ATOM      9  C   UNL     1      50.205   3.667  17.539  0.00  0.00    +0.000 A 
ATOM     10  C   UNL     1      50.279   4.947  16.946  0.00  0.00    +0.000 A 
BRANCH   9  11
ATOM     11  C   UNL     1      51.444   2.909  17.834  0.00  0.00    +0.000 A 
ATOM     12  C   UNL     1      51.590   1.576  17.408  0.00  0.00    +0.000 A 
ATOM     13  C   UNL     1      52.798   0.890  17.559  0.00  0.00    +0.000 A 
ATOM     14  C   UNL     1      53.893   1.523  18.137  0.00  0.00    +0.000 A 
ATOM     15  C   UNL     1      53.771   2.833  18.590  0.00  0.00    +0.000 A 
ATOM     16  C   UNL     1      52.556   3.512  18.453  0.00  0.00    +0.000 A 
ENDBRANCH   9  11
ENDBRANCH   2   4
BRANCH   2  17
ATOM     17  C   UNL     1      48.778   6.756  14.217  0.00  0.00    +0.000 C 
BRANCH  17  18
ATOM     18  N   UNL     1      47.344   7.041  14.068  0.00  0.00    +0.000 N 
ATOM     19  H   UNL     1      47.158   8.031  13.933  0.00  0.00    +0.000 HD
BRANCH  18  20
ATOM     20  C   UNL     1      46.595   6.277  13.166  0.00  0.00    +0.000 A 
ATOM     21  C   UNL     1      45.966   5.076  13.507  0.00  0.00    +0.000 A 
ATOM     22  C   UNL     1      45.181   4.382  12.579  0.00  0.00    +0.000 A 
ATOM     23  C   UNL     1      44.977   4.899  11.297  0.00  0.00    +0.000 A 
ATOM     24  C   UNL     1      45.565   6.118  10.951  0.00  0.00    +0.000 A 
ATOM     25  C   UNL     1      46.349   6.803  11.887  0.00  0.00    +0.000 A 
BRANCH  23  26
ATOM     26  C   UNL     1      44.144   4.118  10.347  0.00  0.00    +0.000 C 
ATOM     27  N   UNL     1      43.973   4.628   9.090  0.00  0.00    +0.000 N 
ATOM     28  O   UNL     1      43.598   3.075  10.677  0.00  0.00    +0.000 OA
ATOM     29  H   UNL     1      44.183   5.587   8.858  0.00  0.00    +0.000 HD
ATOM     30  H   UNL     1      43.310   4.138   8.503  0.00  0.00    +0.000 HD
ENDBRANCH  23  26
ENDBRANCH  18  20
ENDBRANCH  17  18
ENDBRANCH   2  17
TORSDOF 6
ENDMDL
MODEL 8
REMARK VINA RESULT:    -6.476      4.146      7.218
REMARK INTER + INTRA:         -10.019
REMARK INTER:                  -8.204
REMARK INTRA:                  -1.815
REMARK UNBOUND:                -1.271
REMARK  Name = 
REMARK  8 active torsions:
REMARK  status: ('A' for Active; 'I' for Inactive)
REMARK    1  A    between atoms: C_1  and  C_2
REMARK    2  A    between atoms: C_2  and  C_3
REMARK    3  A    between atoms: C_2  and  C_4
REMARK    4  A    between atoms: C_2  and  C_15
REMARK    5  A    between atoms: C_4  and  N_5
REMARK    6  A    between atoms: N_5  and  C_6
REMARK    7  A    between atoms: C_9  and  C_10
REMARK    8  A    between atoms: C_20  and  C_21
REMARK                            x       y       z     vdW  Elec       q    Type
REMARK                         _______ _______ _______ _____ _____    ______ ____
ROOT
ATOM      1  C   UNL     1      48.330   8.903  15.076  0.00  0.00    +0.000 C 
ATOM      2  C   UNL     1      49.151   8.736  13.776  0.00  0.00    +0.000 C 
ATOM      3  C   UNL     1      50.632   9.032  14.124  0.00  0.00    +0.000 C 
ENDROOT
BRANCH   2   4
ATOM      4  C   UNL     1      48.562   9.717  12.737  0.00  0.00    +0.000 A 
ATOM      5  C   UNL     1      49.394  10.368  11.811  0.00  0.00    +0.000 A 
ATOM      6  C   UNL     1      48.853  11.173  10.813  0.00  0.00    +0.000 A 
ATOM      7  F   UNL     1      49.671  11.756   9.927  0.00  0.00    +0.000 F 
ATOM      8  C   UNL     1      47.480  11.344  10.688  0.00  0.00    +0.000 A 
ATOM      9  C   UNL     1      46.603  10.697  11.569  0.00  0.00    +0.000 A 
ATOM     10  C   UNL     1      47.174   9.919  12.602  0.00  0.00    +0.000 A 
BRANCH   9  11
ATOM     11  C   UNL     1      45.135  10.709  11.368  0.00  0.00    +0.000 A 
ATOM     12  C   UNL     1      44.417  11.918  11.379  0.00  0.00    +0.000 A 
ATOM     13  C   UNL     1      43.057  11.964  11.060  0.00  0.00    +0.000 A 
ATOM     14  C   UNL     1      42.382  10.797  10.719  0.00  0.00    +0.000 A 
ATOM     15  C   UNL     1      43.060   9.582  10.724  0.00  0.00    +0.000 A 
ATOM     16  C   UNL     1      44.417   9.538  11.059  0.00  0.00    +0.000 A 
ENDBRANCH   9  11
ENDBRANCH   2   4
BRANCH   2  17
ATOM     17  C   UNL     1      49.062   7.273  13.230  0.00  0.00    +0.000 C 
BRANCH  17  18
ATOM     18  N   UNL     1      47.973   6.512  13.860  0.00  0.00    +0.000 N 
ATOM     19  H   UNL     1      47.539   7.020  14.626  0.00  0.00    +0.000 HD
BRANCH  18  20
ATOM     20  C   UNL     1      46.994   5.935  13.043  0.00  0.00    +0.000 A 
ATOM     21  C   UNL     1      46.146   4.906  13.464  0.00  0.00    +0.000 A 
ATOM     22  C   UNL     1      45.145   4.404  12.623  0.00  0.00    +0.000 A 
ATOM     23  C   UNL     1      44.947   4.953  11.354  0.00  0.00    +0.000 A 
ATOM     24  C   UNL     1      45.759   6.007  10.931  0.00  0.00    +0.000 A 
ATOM     25  C   UNL     1      46.757   6.500  11.780  0.00  0.00    +0.000 A 
BRANCH  23  26
ATOM     26  C   UNL     1      43.878   4.377  10.498  0.00  0.00    +0.000 C 
ATOM     27  N   UNL     1      44.001   4.529   9.145  0.00  0.00    +0.000 N 
ATOM     28  O   UNL     1      42.903   3.815  10.976  0.00  0.00    +0.000 OA
ATOM     29  H   UNL     1      44.637   5.192   8.728  0.00  0.00    +0.000 HD
ATOM     30  H   UNL     1      43.206   4.231   8.594  0.00  0.00    +0.000 HD
ENDBRANCH  23  26
ENDBRANCH  18  20
ENDBRANCH  17  18
ENDBRANCH   2  17
TORSDOF 6
ENDMDL
MODEL 9
REMARK VINA RESULT:    -6.432      3.689      5.995
REMARK INTER + INTRA:          -9.959
REMARK INTER:                  -8.429
REMARK INTRA:                  -1.529
REMARK UNBOUND:                -1.271
REMARK  Name = 
REMARK  8 active torsions:
REMARK  status: ('A' for Active; 'I' for Inactive)
REMARK    1  A    between atoms: C_1  and  C_2
REMARK    2  A    between atoms: C_2  and  C_3
REMARK    3  A    between atoms: C_2  and  C_4
REMARK    4  A    between atoms: C_2  and  C_15
REMARK    5  A    between atoms: C_4  and  N_5
REMARK    6  A    between atoms: N_5  and  C_6
REMARK    7  A    between atoms: C_9  and  C_10
REMARK    8  A    between atoms: C_20  and  C_21
REMARK                            x       y       z     vdW  Elec       q    Type
REMARK                         _______ _______ _______ _____ _____    ______ ____
ROOT
ATOM      1  C   UNL     1      50.491   8.882  14.213  0.00  0.00    +0.000 C 
ATOM      2  C   UNL     1      49.061   9.188  14.715  0.00  0.00    +0.000 C 
ATOM      3  C   UNL     1      48.954  10.724  14.897  0.00  0.00    +0.000 C 
ENDROOT
BRANCH   2   4
ATOM      4  C   UNL     1      48.865   8.404  16.034  0.00  0.00    +0.000 A 
ATOM      5  C   UNL     1      48.165   8.974  17.110  0.00  0.00    +0.000 A 
ATOM      6  C   UNL     1      47.903   8.231  18.258  0.00  0.00    +0.000 A 
ATOM      7  F   UNL     1      47.207   8.793  19.256  0.00  0.00    +0.000 F 
ATOM      8  C   UNL     1      48.306   6.907  18.369  0.00  0.00    +0.000 A 
ATOM      9  C   UNL     1      48.984   6.282  17.315  0.00  0.00    +0.000 A 
ATOM     10  C   UNL     1      49.279   7.065  16.176  0.00  0.00    +0.000 A 
BRANCH   9  11
ATOM     11  C   UNL     1      49.277   4.830  17.317  0.00  0.00    +0.000 A 
ATOM     12  C   UNL     1      48.319   3.902  16.870  0.00  0.00    +0.000 A 
ATOM     13  C   UNL     1      48.622   2.544  16.740  0.00  0.00    +0.000 A 
ATOM     14  C   UNL     1      49.896   2.081  17.051  0.00  0.00    +0.000 A 
ATOM     15  C   UNL     1      50.857   2.971  17.519  0.00  0.00    +0.000 A 
ATOM     16  C   UNL     1      50.546   4.327  17.664  0.00  0.00    +0.000 A 
ENDBRANCH   9  11
ENDBRANCH   2   4
BRANCH   2  17
ATOM     17  C   UNL     1      47.983   8.745  13.673  0.00  0.00    +0.000 C 
BRANCH  17  18
ATOM     18  N   UNL     1      48.371   7.517  12.964  0.00  0.00    +0.000 N 
ATOM     19  H   UNL     1      49.218   7.102  13.343  0.00  0.00    +0.000 HD
BRANCH  18  20
ATOM     20  C   UNL     1      47.402   6.531  12.744  0.00  0.00    +0.000 A 
ATOM     21  C   UNL     1      47.021   5.594  13.709  0.00  0.00    +0.000 A 
ATOM     22  C   UNL     1      46.004   4.666  13.454  0.00  0.00    +0.000 A 
ATOM     23  C   UNL     1      45.320   4.683  12.236  0.00  0.00    +0.000 A 
ATOM     24  C   UNL     1      45.660   5.637  11.274  0.00  0.00    +0.000 A 
ATOM     25  C   UNL     1      46.679   6.560  11.541  0.00  0.00    +0.000 A 
BRANCH  23  26
ATOM     26  C   UNL     1      44.257   3.670  12.012  0.00  0.00    +0.000 C 
ATOM     27  N   UNL     1      43.589   3.708  10.820  0.00  0.00    +0.000 N 
ATOM     28  O   UNL     1      43.959   2.849  12.868  0.00  0.00    +0.000 OA
ATOM     29  H   UNL     1      43.620   4.506  10.204  0.00  0.00    +0.000 HD
ATOM     30  H   UNL     1      42.796   3.084  10.740  0.00  0.00    +0.000 HD
ENDBRANCH  23  26
ENDBRANCH  18  20
ENDBRANCH  17  18
ENDBRANCH   2  17
TORSDOF 6
ENDMDL
