MODEL 1
REMARK VINA RESULT:    -8.037      0.000      0.000
REMARK INTER + INTRA:         -12.442
REMARK INTER:                 -11.325
REMARK INTRA:                  -1.117
REMARK UNBOUND:                -1.117
REMARK  Name = 
REMARK  10 active torsions:
REMARK  status: ('A' for Active; 'I' for Inactive)
REMARK    1  A    between atoms: C_1  and  C_2
REMARK    2  A    between atoms: C_4  and  C_5
REMARK    3  A    between atoms: C_5  and  C_6
REMARK    4  A    between atoms: C_5  and  C_7
REMARK    5  A    between atoms: C_7  and  N_8
REMARK    6  A    between atoms: N_8  and  C_9
REMARK    7  A    between atoms: C_12  and  C_13
REMARK    8  A    between atoms: C_19  and  C_20
REMARK    9  A    between atoms: C_21  and  O_22
REMARK   10  A    between atoms: O_22  and  C_23
REMARK                            x       y       z     vdW  Elec       q    Type
REMARK                         _______ _______ _______ _____ _____    ______ ____
ROOT
ATOM      1  C   UNL     1      43.666   4.998  12.177  0.00  0.00    +0.000 C 
ATOM      2  C   UNL     1      43.064   6.156  11.363  0.00  0.00    +0.000 C 
ENDROOT
BRANCH   1   6
ATOM      3  C   UNL     1      47.361   4.131  15.437  0.00  0.00    +0.000 C 
ATOM      4  C   UNL     1      46.944   4.890  14.211  0.00  0.00    +0.000 A 
ATOM      5  C   UNL     1      45.635   4.645  13.730  0.00  0.00    +0.000 A 
ATOM      6  C   UNL     1      45.086   5.330  12.634  0.00  0.00    +0.000 A 
ATOM      7  C   UNL     1      45.900   6.266  11.994  0.00  0.00    +0.000 A 
ATOM      8  C   UNL     1      47.220   6.495  12.409  0.00  0.00    +0.000 A 
ATOM      9  C   UNL     1      48.072   7.449  11.610  0.00  0.00    +0.000 C 
ATOM     10  C   UNL     1      47.739   5.829  13.540  0.00  0.00    +0.000 A 
BRANCH  10  11
ATOM     11  O   UNL     1      48.964   6.310  13.934  0.00  0.00    +0.000 OA
BRANCH  11  12
ATOM     12  C   UNL     1      49.133   7.212  15.042  0.00  0.00    +0.000 C 
ATOM     13  C   UNL     1      50.221   8.274  14.813  0.00  0.00    +0.000 C 
ATOM     14  O   UNL     1      50.933   7.885  16.008  0.00  0.00    +0.000 OA
ATOM     15  C   UNL     1      50.007   6.794  16.228  0.00  0.00    +0.000 C 
ENDBRANCH  11  12
ENDBRANCH  10  11
ENDBRANCH   1   6
BRANCH   1  16
ATOM     16  C   UNL     1      43.501   3.698  11.350  0.00  0.00    +0.000 C 
BRANCH  16  17
ATOM     17  N   UNL     1      43.562   3.955   9.908  0.00  0.00    +0.000 N 
ATOM     18  H   UNL     1      42.678   3.825   9.422  0.00  0.00    +0.000 HD
BRANCH  17  19
ATOM     19  C   UNL     1      44.658   3.497   9.173  0.00  0.00    +0.000 A 
ATOM     20  C   UNL     1      45.420   4.319   8.337  0.00  0.00    +0.000 A 
ATOM     21  C   UNL     1      46.438   3.793   7.533  0.00  0.00    +0.000 A 
ATOM     22  C   UNL     1      46.704   2.422   7.533  0.00  0.00    +0.000 A 
ATOM     23  C   UNL     1      45.935   1.580   8.342  0.00  0.00    +0.000 A 
ATOM     24  C   UNL     1      44.920   2.119   9.146  0.00  0.00    +0.000 A 
BRANCH  22  25
ATOM     25  C   UNL     1      47.766   1.914   6.628  0.00  0.00    +0.000 C 
ATOM     26  N   UNL     1      48.780   2.768   6.296  0.00  0.00    +0.000 N 
ATOM     27  O   UNL     1      47.730   0.782   6.165  0.00  0.00    +0.000 OA
ATOM     28  H   UNL     1      48.739   3.761   6.463  0.00  0.00    +0.000 HD
ATOM     29  H   UNL     1      49.441   2.431   5.611  0.00  0.00    +0.000 HD
ENDBRANCH  22  25
ENDBRANCH  17  19
ENDBRANCH  16  17
ENDBRANCH   1  16
TORSDOF 7
ENDMDL
MODEL 2
REMARK VINA RESULT:    -7.965      0.284      1.726
REMARK INTER + INTRA:         -12.341
REMARK INTER:                 -11.331
REMARK INTRA:                  -1.010
REMARK UNBOUND:                -1.117
REMARK  Name = 
REMARK  10 active torsions:
REMARK  status: ('A' for Active; 'I' for Inactive)
REMARK    1  A    between atoms: C_1  and  C_2
REMARK    2  A    between atoms: C_4  and  C_5
REMARK    3  A    between atoms: C_5  and  C_6
REMARK    4  A    between atoms: C_5  and  C_7
REMARK    5  A    between atoms: C_7  and  N_8
REMARK    6  A    between atoms: N_8  and  C_9
REMARK    7  A    between atoms: C_12  and  C_13
REMARK    8  A    between atoms: C_19  and  C_20
REMARK    9  A    between atoms: C_21  and  O_22
REMARK   10  A    between atoms: O_22  and  C_23
REMARK                            x       y       z     vdW  Elec       q    Type
REMARK                         _______ _______ _______ _____ _____    ______ ____
ROOT
ATOM      1  C   UNL     1      43.555   4.978  12.167  0.00  0.00    +0.000 C 
ATOM      2  C   UNL     1      42.970   6.189  11.420  0.00  0.00    +0.000 C 
ENDROOT
BRANCH   1   6
ATOM      3  C   UNL     1      47.705   7.744  11.758  0.00  0.00    +0.000 C 
ATOM      4  C   UNL     1      47.006   6.668  12.537  0.00  0.00    +0.000 A 
ATOM      5  C   UNL     1      45.704   6.318  12.103  0.00  0.00    +0.000 A 
ATOM      6  C   UNL     1      44.958   5.286  12.694  0.00  0.00    +0.000 A 
ATOM      7  C   UNL     1      45.538   4.613  13.769  0.00  0.00    +0.000 A 
ATOM      8  C   UNL     1      46.803   4.969  14.260  0.00  0.00    +0.000 A 
ATOM      9  C   UNL     1      47.325   4.264  15.487  0.00  0.00    +0.000 C 
ATOM     10  C   UNL     1      47.556   5.980  13.627  0.00  0.00    +0.000 A 
BRANCH  10  11
ATOM     11  O   UNL     1      48.844   6.068  14.098  0.00  0.00    +0.000 OA
BRANCH  11  12
ATOM     12  C   UNL     1      49.298   7.141  14.941  0.00  0.00    +0.000 C 
ATOM     13  C   UNL     1      50.480   7.930  14.352  0.00  0.00    +0.000 C 
ATOM     14  O   UNL     1      51.298   7.687  15.518  0.00  0.00    +0.000 OA
ATOM     15  C   UNL     1      50.269   6.841  16.087  0.00  0.00    +0.000 C 
ENDBRANCH  11  12
ENDBRANCH  10  11
ENDBRANCH   1   6
BRANCH   1  16
ATOM     16  C   UNL     1      43.430   3.742  11.242  0.00  0.00    +0.000 C 
BRANCH  16  17
ATOM     17  N   UNL     1      43.595   4.096   9.830  0.00  0.00    +0.000 N 
ATOM     18  H   UNL     1      42.726   4.124   9.300  0.00  0.00    +0.000 HD
BRANCH  17  19
ATOM     19  C   UNL     1      44.655   3.549   9.103  0.00  0.00    +0.000 A 
ATOM     20  C   UNL     1      45.416   4.282   8.186  0.00  0.00    +0.000 A 
ATOM     21  C   UNL     1      46.394   3.665   7.397  0.00  0.00    +0.000 A 
ATOM     22  C   UNL     1      46.621   2.291   7.495  0.00  0.00    +0.000 A 
ATOM     23  C   UNL     1      45.852   1.537   8.386  0.00  0.00    +0.000 A 
ATOM     24  C   UNL     1      44.876   2.166   9.174  0.00  0.00    +0.000 A 
BRANCH  22  25
ATOM     25  C   UNL     1      47.640   1.683   6.602  0.00  0.00    +0.000 C 
ATOM     26  N   UNL     1      48.784   2.393   6.370  0.00  0.00    +0.000 N 
ATOM     27  O   UNL     1      47.461   0.599   6.065  0.00  0.00    +0.000 OA
ATOM     28  H   UNL     1      48.882   3.369   6.600  0.00  0.00    +0.000 HD
ATOM     29  H   UNL     1      49.422   2.001   5.692  0.00  0.00    +0.000 HD
ENDBRANCH  22  25
ENDBRANCH  17  19
ENDBRANCH  16  17
ENDBRANCH   1  16
TORSDOF 7
ENDMDL
MODEL 3
REMARK VINA RESULT:    -7.319      2.049      3.148
REMARK INTER + INTRA:         -11.431
REMARK INTER:                 -10.495
REMARK INTRA:                  -0.936
REMARK UNBOUND:                -1.117
REMARK  Name = 
REMARK  10 active torsions:
REMARK  status: ('A' for Active; 'I' for Inactive)
REMARK    1  A    between atoms: C_1  and  C_2
REMARK    2  A    between atoms: C_4  and  C_5
REMARK    3  A    between atoms: C_5  and  C_6
REMARK    4  A    between atoms: C_5  and  C_7
REMARK    5  A    between atoms: C_7  and  N_8
REMARK    6  A    between atoms: N_8  and  C_9
REMARK    7  A    between atoms: C_12  and  C_13
REMARK    8  A    between atoms: C_19  and  C_20
REMARK    9  A    between atoms: C_21  and  O_22
REMARK   10  A    between atoms: O_22  and  C_23
REMARK                            x       y       z     vdW  Elec       q    Type
REMARK                         _______ _______ _______ _____ _____    ______ ____
ROOT
ATOM      1  C   UNL     1      45.386   4.664  11.744  0.00  0.00    +0.000 C 
ATOM      2  C   UNL     1      45.597   3.478  12.701  0.00  0.00    +0.000 C 
ENDROOT
BRANCH   1   6
ATOM      3  C   UNL     1      45.044   9.625  12.302  0.00  0.00    +0.000 C 
ATOM      4  C   UNL     1      45.831   8.392  12.639  0.00  0.00    +0.000 A 
ATOM      5  C   UNL     1      45.333   7.166  12.136  0.00  0.00    +0.000 A 
ATOM      6  C   UNL     1      45.999   5.943  12.316  0.00  0.00    +0.000 A 
ATOM      7  C   UNL     1      47.186   5.965  13.050  0.00  0.00    +0.000 A 
ATOM      8  C   UNL     1      47.680   7.152  13.609  0.00  0.00    +0.000 A 
ATOM      9  C   UNL     1      48.915   7.083  14.472  0.00  0.00    +0.000 C 
ATOM     10  C   UNL     1      47.020   8.378  13.381  0.00  0.00    +0.000 A 
BRANCH  10  11
ATOM     11  O   UNL     1      47.735   9.466  13.821  0.00  0.00    +0.000 OA
BRANCH  11  12
ATOM     12  C   UNL     1      48.663  10.183  12.989  0.00  0.00    +0.000 C 
ATOM     13  C   UNL     1      48.131  11.538  12.495  0.00  0.00    +0.000 C 
ATOM     14  O   UNL     1      48.342  11.183  11.111  0.00  0.00    +0.000 OA
ATOM     15  C   UNL     1      48.753   9.849  11.496  0.00  0.00    +0.000 C 
ENDBRANCH  11  12
ENDBRANCH  10  11
ENDBRANCH   1   6
BRANCH   1  16
ATOM     16  C   UNL     1      43.881   4.729  11.389  0.00  0.00    +0.000 C 
BRANCH  16  17
ATOM     17  N   UNL     1      43.656   4.659   9.942  0.00  0.00    +0.000 N 
ATOM     18  H   UNL     1      42.680   4.547   9.675  0.00  0.00    +0.000 HD
BRANCH  17  19
ATOM     19  C   UNL     1      44.525   3.910   9.146  0.00  0.00    +0.000 A 
ATOM     20  C   UNL     1      44.615   2.515   9.208  0.00  0.00    +0.000 A 
ATOM     21  C   UNL     1      45.580   1.817   8.474  0.00  0.00    +0.000 A 
ATOM     22  C   UNL     1      46.494   2.503   7.671  0.00  0.00    +0.000 A 
ATOM     23  C   UNL     1      46.437   3.898   7.617  0.00  0.00    +0.000 A 
ATOM     24  C   UNL     1      45.464   4.588   8.355  0.00  0.00    +0.000 A 
BRANCH  22  25
ATOM     25  C   UNL     1      47.523   1.713   6.949  0.00  0.00    +0.000 C 
ATOM     26  N   UNL     1      48.570   2.393   6.394  0.00  0.00    +0.000 N 
ATOM     27  O   UNL     1      47.432   0.499   6.823  0.00  0.00    +0.000 OA
ATOM     28  H   UNL     1      48.575   3.393   6.274  0.00  0.00    +0.000 HD
ATOM     29  H   UNL     1      49.209   1.847   5.832  0.00  0.00    +0.000 HD
ENDBRANCH  22  25
ENDBRANCH  17  19
ENDBRANCH  16  17
ENDBRANCH   1  16
TORSDOF 7
ENDMDL
MODEL 4
REMARK VINA RESULT:    -7.011      1.245      2.077
REMARK INTER + INTRA:         -10.997
REMARK INTER:                 -10.024
REMARK INTRA:                  -0.972
REMARK UNBOUND:                -1.117
REMARK  Name = 
REMARK  10 active torsions:
REMARK  status: ('A' for Active; 'I' for Inactive)
REMARK    1  A    between atoms: C_1  and  C_2
REMARK    2  A    between atoms: C_4  and  C_5
REMARK    3  A    between atoms: C_5  and  C_6
REMARK    4  A    between atoms: C_5  and  C_7
REMARK    5  A    between atoms: C_7  and  N_8
REMARK    6  A    between atoms: N_8  and  C_9
REMARK    7  A    between atoms: C_12  and  C_13
REMARK    8  A    between atoms: C_19  and  C_20
REMARK    9  A    between atoms: C_21  and  O_22
REMARK   10  A    between atoms: O_22  and  C_23
REMARK                            x       y       z     vdW  Elec       q    Type
REMARK                         _______ _______ _______ _____ _____    ______ ____
ROOT
ATOM      1  C   UNL     1      45.725   5.046  11.941  0.00  0.00    +0.000 C 
ATOM      2  C   UNL     1      44.923   4.349  13.053  0.00  0.00    +0.000 C 
ENDROOT
BRANCH   1   6
ATOM      3  C   UNL     1      48.609   6.201  15.863  0.00  0.00    +0.000 C 
ATOM      4  C   UNL     1      48.253   6.541  14.445  0.00  0.00    +0.000 A 
ATOM      5  C   UNL     1      47.267   5.733  13.829  0.00  0.00    +0.000 A 
ATOM      6  C   UNL     1      46.788   5.974  12.531  0.00  0.00    +0.000 A 
ATOM      7  C   UNL     1      47.345   7.045  11.833  0.00  0.00    +0.000 A 
ATOM      8  C   UNL     1      48.363   7.834  12.391  0.00  0.00    +0.000 A 
ATOM      9  C   UNL     1      48.987   8.913  11.542  0.00  0.00    +0.000 C 
ATOM     10  C   UNL     1      48.801   7.604  13.712  0.00  0.00    +0.000 A 
BRANCH  10  11
ATOM     11  O   UNL     1      49.649   8.580  14.177  0.00  0.00    +0.000 OA
BRANCH  11  12
ATOM     12  C   UNL     1      51.049   8.354  14.414  0.00  0.00    +0.000 C 
ATOM     13  C   UNL     1      51.524   8.823  15.800  0.00  0.00    +0.000 C 
ATOM     14  O   UNL     1      52.540   9.676  15.226  0.00  0.00    +0.000 OA
ATOM     15  C   UNL     1      52.077   9.362  13.890  0.00  0.00    +0.000 C 
ENDBRANCH  11  12
ENDBRANCH  10  11
ENDBRANCH   1   6
BRANCH   1  16
ATOM     16  C   UNL     1      44.717   5.700  10.963  0.00  0.00    +0.000 C 
BRANCH  16  17
ATOM     17  N   UNL     1      44.055   4.705  10.114  0.00  0.00    +0.000 N 
ATOM     18  H   UNL     1      43.332   4.166  10.586  0.00  0.00    +0.000 HD
BRANCH  17  19
ATOM     19  C   UNL     1      44.817   3.935   9.233  0.00  0.00    +0.000 A 
ATOM     20  C   UNL     1      44.948   2.547   9.341  0.00  0.00    +0.000 A 
ATOM     21  C   UNL     1      45.813   1.832   8.505  0.00  0.00    +0.000 A 
ATOM     22  C   UNL     1      46.585   2.495   7.550  0.00  0.00    +0.000 A 
ATOM     23  C   UNL     1      46.489   3.886   7.444  0.00  0.00    +0.000 A 
ATOM     24  C   UNL     1      45.616   4.592   8.285  0.00  0.00    +0.000 A 
BRANCH  22  25
ATOM     25  C   UNL     1      47.517   1.691   6.720  0.00  0.00    +0.000 C 
ATOM     26  N   UNL     1      48.676   2.287   6.308  0.00  0.00    +0.000 N 
ATOM     27  O   UNL     1      47.255   0.543   6.386  0.00  0.00    +0.000 OA
ATOM     28  H   UNL     1      48.833   3.281   6.362  0.00  0.00    +0.000 HD
ATOM     29  H   UNL     1      49.252   1.752   5.673  0.00  0.00    +0.000 HD
ENDBRANCH  22  25
ENDBRANCH  17  19
ENDBRANCH  16  17
ENDBRANCH   1  16
TORSDOF 7
ENDMDL
MODEL 5
REMARK VINA RESULT:    -6.167      4.030      7.200
REMARK INTER + INTRA:          -9.807
REMARK INTER:                  -8.379
REMARK INTRA:                  -1.428
REMARK UNBOUND:                -1.117
REMARK  Name = 
REMARK  10 active torsions:
REMARK  status: ('A' for Active; 'I' for Inactive)
REMARK    1  A    between atoms: C_1  and  C_2
REMARK    2  A    between atoms: C_4  and  C_5
REMARK    3  A    between atoms: C_5  and  C_6
REMARK    4  A    between atoms: C_5  and  C_7
REMARK    5  A    between atoms: C_7  and  N_8
REMARK    6  A    between atoms: N_8  and  C_9
REMARK    7  A    between atoms: C_12  and  C_13
REMARK    8  A    between atoms: C_19  and  C_20
REMARK    9  A    between atoms: C_21  and  O_22
REMARK   10  A    between atoms: O_22  and  C_23
REMARK                            x       y       z     vdW  Elec       q    Type
REMARK                         _______ _______ _______ _____ _____    ______ ____
ROOT
ATOM      1  C   UNL     1      49.232   8.431  12.688  0.00  0.00    +0.000 C 
ATOM      2  C   UNL     1      50.465   8.139  11.816  0.00  0.00    +0.000 C 
ENDROOT
BRANCH   1   6
ATOM      3  C   UNL     1      46.909   4.625  14.958  0.00  0.00    +0.000 C 
ATOM      4  C   UNL     1      47.018   5.436  13.700  0.00  0.00    +0.000 A 
ATOM      5  C   UNL     1      47.953   6.499  13.712  0.00  0.00    +0.000 A 
ATOM      6  C   UNL     1      48.209   7.299  12.586  0.00  0.00    +0.000 A 
ATOM      7  C   UNL     1      47.476   7.029  11.431  0.00  0.00    +0.000 A 
ATOM      8  C   UNL     1      46.502   6.020  11.400  0.00  0.00    +0.000 A 
ATOM      9  C   UNL     1      45.679   5.850  10.147  0.00  0.00    +0.000 C 
ATOM     10  C   UNL     1      46.289   5.198  12.526  0.00  0.00    +0.000 A 
BRANCH  10  11
ATOM     11  O   UNL     1      45.455   4.137  12.270  0.00  0.00    +0.000 OA
BRANCH  11  12
ATOM     12  C   UNL     1      44.087   4.091  12.712  0.00  0.00    +0.000 C 
ATOM     13  C   UNL     1      43.074   3.910  11.569  0.00  0.00    +0.000 C 
ATOM     14  O   UNL     1      42.355   5.106  11.939  0.00  0.00    +0.000 OA
ATOM     15  C   UNL     1      43.332   5.399  12.968  0.00  0.00    +0.000 C 
ENDBRANCH  11  12
ENDBRANCH  10  11
ENDBRANCH   1   6
BRANCH   1  16
ATOM     16  C   UNL     1      48.719   9.848  12.331  0.00  0.00    +0.000 C 
BRANCH  16  17
ATOM     17  N   UNL     1      47.430  10.140  12.965  0.00  0.00    +0.000 N 
ATOM     18  H   UNL     1      47.242   9.593  13.802  0.00  0.00    +0.000 HD
BRANCH  17  19
ATOM     19  C   UNL     1      46.297  10.320  12.169  0.00  0.00    +0.000 A 
ATOM     20  C   UNL     1      45.175   9.487  12.230  0.00  0.00    +0.000 A 
ATOM     21  C   UNL     1      44.110   9.637  11.335  0.00  0.00    +0.000 A 
ATOM     22  C   UNL     1      44.152  10.616  10.340  0.00  0.00    +0.000 A 
ATOM     23  C   UNL     1      45.277  11.441  10.245  0.00  0.00    +0.000 A 
ATOM     24  C   UNL     1      46.338  11.283  11.150  0.00  0.00    +0.000 A 
BRANCH  22  25
ATOM     25  C   UNL     1      43.014  10.701   9.390  0.00  0.00    +0.000 C 
ATOM     26  N   UNL     1      43.299  10.677   8.054  0.00  0.00    +0.000 N 
ATOM     27  O   UNL     1      41.859  10.818   9.778  0.00  0.00    +0.000 OA
ATOM     28  H   UNL     1      44.228  10.809   7.687  0.00  0.00    +0.000 HD
ATOM     29  H   UNL     1      42.519  10.826   7.429  0.00  0.00    +0.000 HD
ENDBRANCH  22  25
ENDBRANCH  17  19
ENDBRANCH  16  17
ENDBRANCH   1  16
TORSDOF 7
ENDMDL
MODEL 6
REMARK VINA RESULT:    -6.130      1.764      2.885
REMARK INTER + INTRA:          -9.755
REMARK INTER:                  -9.212
REMARK INTRA:                  -0.543
REMARK UNBOUND:                -1.117
REMARK  Name = 
REMARK  10 active torsions:
REMARK  status: ('A' for Active; 'I' for Inactive)
REMARK    1  A    between atoms: C_1  and  C_2
REMARK    2  A    between atoms: C_4  and  C_5
REMARK    3  A    between atoms: C_5  and  C_6
REMARK    4  A    between atoms: C_5  and  C_7
REMARK    5  A    between atoms: C_7  and  N_8
REMARK    6  A    between atoms: N_8  and  C_9
REMARK    7  A    between atoms: C_12  and  C_13
REMARK    8  A    between atoms: C_19  and  C_20
REMARK    9  A    between atoms: C_21  and  O_22
REMARK   10  A    between atoms: O_22  and  C_23
REMARK                            x       y       z     vdW  Elec       q    Type
REMARK                         _______ _______ _______ _____ _____    ______ ____
ROOT
ATOM      1  C   UNL     1      45.696   6.076  12.279  0.00  0.00    +0.000 C 
ATOM      2  C   UNL     1      46.433   6.683  11.073  0.00  0.00    +0.000 C 
ENDROOT
BRANCH   1   6
ATOM      3  C   UNL     1      49.582   7.775  14.934  0.00  0.00    +0.000 C 
ATOM      4  C   UNL     1      48.550   6.693  14.803  0.00  0.00    +0.000 A 
ATOM      5  C   UNL     1      47.631   6.822  13.734  0.00  0.00    +0.000 A 
ATOM      6  C   UNL     1      46.654   5.854  13.450  0.00  0.00    +0.000 A 
ATOM      7  C   UNL     1      46.593   4.742  14.291  0.00  0.00    +0.000 A 
ATOM      8  C   UNL     1      47.452   4.608  15.392  0.00  0.00    +0.000 A 
ATOM      9  C   UNL     1      47.264   3.430  16.315  0.00  0.00    +0.000 C 
ATOM     10  C   UNL     1      48.456   5.570  15.636  0.00  0.00    +0.000 A 
BRANCH  10  11
ATOM     11  O   UNL     1      49.335   5.193  16.622  0.00  0.00    +0.000 OA
BRANCH  11  12
ATOM     12  C   UNL     1      49.379   5.820  17.915  0.00  0.00    +0.000 C 
ATOM     13  C   UNL     1      49.288   4.828  19.087  0.00  0.00    +0.000 C 
ATOM     14  O   UNL     1      48.139   5.502  19.644  0.00  0.00    +0.000 OA
ATOM     15  C   UNL     1      48.097   6.407  18.514  0.00  0.00    +0.000 C 
ENDBRANCH  11  12
ENDBRANCH  10  11
ENDBRANCH   1   6
BRANCH   1  16
ATOM     16  C   UNL     1      44.921   4.829  11.786  0.00  0.00    +0.000 C 
BRANCH  16  17
ATOM     17  N   UNL     1      44.585   4.921  10.363  0.00  0.00    +0.000 N 
ATOM     18  H   UNL     1      43.587   4.980  10.170  0.00  0.00    +0.000 HD
BRANCH  17  19
ATOM     19  C   UNL     1      45.267   4.124   9.442  0.00  0.00    +0.000 A 
ATOM     20  C   UNL     1      45.949   4.640   8.334  0.00  0.00    +0.000 A 
ATOM     21  C   UNL     1      46.522   3.796   7.376  0.00  0.00    +0.000 A 
ATOM     22  C   UNL     1      46.409   2.410   7.495  0.00  0.00    +0.000 A 
ATOM     23  C   UNL     1      45.709   1.874   8.580  0.00  0.00    +0.000 A 
ATOM     24  C   UNL     1      45.141   2.730   9.536  0.00  0.00    +0.000 A 
BRANCH  22  25
ATOM     25  C   UNL     1      46.999   1.564   6.426  0.00  0.00    +0.000 C 
ATOM     26  N   UNL     1      47.410   2.185   5.280  0.00  0.00    +0.000 N 
ATOM     27  O   UNL     1      47.093   0.350   6.544  0.00  0.00    +0.000 OA
ATOM     28  H   UNL     1      47.152   3.130   5.044  0.00  0.00    +0.000 HD
ATOM     29  H   UNL     1      47.725   1.581   4.534  0.00  0.00    +0.000 HD
ENDBRANCH  22  25
ENDBRANCH  17  19
ENDBRANCH  16  17
ENDBRANCH   1  16
TORSDOF 7
ENDMDL
MODEL 7
REMARK VINA RESULT:    -6.028      3.874      8.649
REMARK INTER + INTRA:          -9.612
REMARK INTER:                  -8.392
REMARK INTRA:                  -1.220
REMARK UNBOUND:                -1.117
REMARK  Name = 
REMARK  10 active torsions:
REMARK  status: ('A' for Active; 'I' for Inactive)
REMARK    1  A    between atoms: C_1  and  C_2
REMARK    2  A    between atoms: C_4  and  C_5
REMARK    3  A    between atoms: C_5  and  C_6
REMARK    4  A    between atoms: C_5  and  C_7
REMARK    5  A    between atoms: C_7  and  N_8
REMARK    6  A    between atoms: N_8  and  C_9
REMARK    7  A    between atoms: C_12  and  C_13
REMARK    8  A    between atoms: C_19  and  C_20
REMARK    9  A    between atoms: C_21  and  O_22
REMARK   10  A    between atoms: O_22  and  C_23
REMARK                            x       y       z     vdW  Elec       q    Type
REMARK                         _______ _______ _______ _____ _____    ______ ____
ROOT
ATOM      1  C   UNL     1      49.494   7.681  12.815  0.00  0.00    +0.000 C 
ATOM      2  C   UNL     1      49.625   8.793  11.759  0.00  0.00    +0.000 C 
ENDROOT
BRANCH   1   6
ATOM      3  C   UNL     1      44.691   8.097  11.476  0.00  0.00    +0.000 C 
ATOM      4  C   UNL     1      45.738   7.199  12.068  0.00  0.00    +0.000 A 
ATOM      5  C   UNL     1      47.046   7.732  12.166  0.00  0.00    +0.000 A 
ATOM      6  C   UNL     1      48.110   7.033  12.758  0.00  0.00    +0.000 A 
ATOM      7  C   UNL     1      47.844   5.750  13.236  0.00  0.00    +0.000 A 
ATOM      8  C   UNL     1      46.573   5.169  13.108  0.00  0.00    +0.000 A 
ATOM      9  C   UNL     1      46.383   3.742  13.559  0.00  0.00    +0.000 C 
ATOM     10  C   UNL     1      45.505   5.903  12.550  0.00  0.00    +0.000 A 
BRANCH  10  11
ATOM     11  O   UNL     1      44.292   5.273  12.680  0.00  0.00    +0.000 OA
BRANCH  11  12
ATOM     12  C   UNL     1      43.546   4.768  11.559  0.00  0.00    +0.000 C 
ATOM     13  C   UNL     1      43.245   3.262  11.646  0.00  0.00    +0.000 C 
ATOM     14  O   UNL     1      43.872   3.004  10.371  0.00  0.00    +0.000 OA
ATOM     15  C   UNL     1      44.284   4.389  10.271  0.00  0.00    +0.000 C 
ENDBRANCH  11  12
ENDBRANCH  10  11
ENDBRANCH   1   6
BRANCH   1  16
ATOM     16  C   UNL     1      49.915   8.271  14.184  0.00  0.00    +0.000 C 
BRANCH  16  17
ATOM     17  N   UNL     1      50.739   7.334  14.953  0.00  0.00    +0.000 N 
ATOM     18  H   UNL     1      51.337   6.738  14.385  0.00  0.00    +0.000 HD
BRANCH  17  19
ATOM     19  C   UNL     1      50.181   6.661  16.042  0.00  0.00    +0.000 A 
ATOM     20  C   UNL     1      48.881   6.893  16.505  0.00  0.00    +0.000 A 
ATOM     21  C   UNL     1      48.404   6.278  17.668  0.00  0.00    +0.000 A 
ATOM     22  C   UNL     1      49.227   5.427  18.408  0.00  0.00    +0.000 A 
ATOM     23  C   UNL     1      50.538   5.203  17.977  0.00  0.00    +0.000 A 
ATOM     24  C   UNL     1      51.004   5.822  16.808  0.00  0.00    +0.000 A 
BRANCH  22  25
ATOM     25  C   UNL     1      48.682   4.836  19.657  0.00  0.00    +0.000 C 
ATOM     26  N   UNL     1      48.550   3.477  19.712  0.00  0.00    +0.000 N 
ATOM     27  O   UNL     1      48.333   5.533  20.600  0.00  0.00    +0.000 OA
ATOM     28  H   UNL     1      48.608   2.886  18.898  0.00  0.00    +0.000 HD
ATOM     29  H   UNL     1      48.096   3.106  20.534  0.00  0.00    +0.000 HD
ENDBRANCH  22  25
ENDBRANCH  17  19
ENDBRANCH  16  17
ENDBRANCH   1  16
TORSDOF 7
ENDMDL
MODEL 8
REMARK VINA RESULT:    -6.017      3.589      6.085
REMARK INTER + INTRA:          -9.596
REMARK INTER:                  -8.776
REMARK INTRA:                  -0.821
REMARK UNBOUND:                -1.117
REMARK  Name = 
REMARK  10 active torsions:
REMARK  status: ('A' for Active; 'I' for Inactive)
REMARK    1  A    between atoms: C_1  and  C_2
REMARK    2  A    between atoms: C_4  and  C_5
REMARK    3  A    between atoms: C_5  and  C_6
REMARK    4  A    between atoms: C_5  and  C_7
REMARK    5  A    between atoms: C_7  and  N_8
REMARK    6  A    between atoms: N_8  and  C_9
REMARK    7  A    between atoms: C_12  and  C_13
REMARK    8  A    between atoms: C_19  and  C_20
REMARK    9  A    between atoms: C_21  and  O_22
REMARK   10  A    between atoms: O_22  and  C_23
REMARK                            x       y       z     vdW  Elec       q    Type
REMARK                         _______ _______ _______ _____ _____    ______ ____
ROOT
ATOM      1  C   UNL     1      48.802   7.642  15.331  0.00  0.00    +0.000 C 
ATOM      2  C   UNL     1      49.705   8.888  15.317  0.00  0.00    +0.000 C 
ENDROOT
BRANCH   1   6
ATOM      3  C   UNL     1      52.954   5.749  17.382  0.00  0.00    +0.000 C 
ATOM      4  C   UNL     1      51.476   5.574  17.194  0.00  0.00    +0.000 A 
ATOM      5  C   UNL     1      50.810   6.576  16.448  0.00  0.00    +0.000 A 
ATOM      6  C   UNL     1      49.443   6.511  16.136  0.00  0.00    +0.000 A 
ATOM      7  C   UNL     1      48.729   5.413  16.619  0.00  0.00    +0.000 A 
ATOM      8  C   UNL     1      49.344   4.429  17.407  0.00  0.00    +0.000 A 
ATOM      9  C   UNL     1      48.490   3.324  17.976  0.00  0.00    +0.000 C 
ATOM     10  C   UNL     1      50.728   4.489  17.674  0.00  0.00    +0.000 A 
BRANCH  10  11
ATOM     11  O   UNL     1      51.210   3.355  18.281  0.00  0.00    +0.000 OA
BRANCH  11  12
ATOM     12  C   UNL     1      52.101   2.434  17.627  0.00  0.00    +0.000 C 
ATOM     13  C   UNL     1      51.644   0.968  17.712  0.00  0.00    +0.000 C 
ATOM     14  O   UNL     1      52.889   0.555  18.318  0.00  0.00    +0.000 OA
ATOM     15  C   UNL     1      53.343   1.929  18.369  0.00  0.00    +0.000 C 
ENDBRANCH  11  12
ENDBRANCH  10  11
ENDBRANCH   1   6
BRANCH   1  16
ATOM     16  C   UNL     1      48.427   7.308  13.866  0.00  0.00    +0.000 C 
BRANCH  16  17
ATOM     17  N   UNL     1      46.975   7.270  13.668  0.00  0.00    +0.000 N 
ATOM     18  H   UNL     1      46.433   7.529  14.489  0.00  0.00    +0.000 HD
BRANCH  17  19
ATOM     19  C   UNL     1      46.405   6.215  12.953  0.00  0.00    +0.000 A 
ATOM     20  C   UNL     1      45.969   6.330  11.629  0.00  0.00    +0.000 A 
ATOM     21  C   UNL     1      45.301   5.279  10.991  0.00  0.00    +0.000 A 
ATOM     22  C   UNL     1      45.036   4.089  11.672  0.00  0.00    +0.000 A 
ATOM     23  C   UNL     1      45.440   3.964  13.005  0.00  0.00    +0.000 A 
ATOM     24  C   UNL     1      46.112   5.024  13.634  0.00  0.00    +0.000 A 
BRANCH  22  25
ATOM     25  C   UNL     1      44.285   3.025  10.959  0.00  0.00    +0.000 C 
ATOM     26  N   UNL     1      44.921   2.374   9.940  0.00  0.00    +0.000 N 
ATOM     27  O   UNL     1      43.128   2.750  11.246  0.00  0.00    +0.000 OA
ATOM     28  H   UNL     1      45.775   2.708   9.521  0.00  0.00    +0.000 HD
ATOM     29  H   UNL     1      44.363   1.718   9.412  0.00  0.00    +0.000 HD
ENDBRANCH  22  25
ENDBRANCH  17  19
ENDBRANCH  16  17
ENDBRANCH   1  16
TORSDOF 7
ENDMDL
MODEL 9
REMARK VINA RESULT:    -5.992      4.347      8.261
REMARK INTER + INTRA:          -9.561
REMARK INTER:                  -7.830
REMARK INTRA:                  -1.731
REMARK UNBOUND:                -1.117
REMARK  Name = 
REMARK  10 active torsions:
REMARK  status: ('A' for Active; 'I' for Inactive)
REMARK    1  A    between atoms: C_1  and  C_2
REMARK    2  A    between atoms: C_4  and  C_5
REMARK    3  A    between atoms: C_5  and  C_6
REMARK    4  A    between atoms: C_5  and  C_7
REMARK    5  A    between atoms: C_7  and  N_8
REMARK    6  A    between atoms: N_8  and  C_9
REMARK    7  A    between atoms: C_12  and  C_13
REMARK    8  A    between atoms: C_19  and  C_20
REMARK    9  A    between atoms: C_21  and  O_22
REMARK   10  A    between atoms: O_22  and  C_23
REMARK                            x       y       z     vdW  Elec       q    Type
REMARK                         _______ _______ _______ _____ _____    ______ ____
ROOT
ATOM      1  C   UNL     1      49.822   8.056  13.712  0.00  0.00    +0.000 C 
ATOM      2  C   UNL     1      50.297   8.825  12.467  0.00  0.00    +0.000 C 
ENDROOT
BRANCH   1   6
ATOM      3  C   UNL     1      46.897   4.052  14.380  0.00  0.00    +0.000 C 
ATOM      4  C   UNL     1      46.988   5.439  13.813  0.00  0.00    +0.000 A 
ATOM      5  C   UNL     1      48.217   6.118  13.995  0.00  0.00    +0.000 A 
ATOM      6  C   UNL     1      48.468   7.392  13.462  0.00  0.00    +0.000 A 
ATOM      7  C   UNL     1      47.434   8.002  12.751  0.00  0.00    +0.000 A 
ATOM      8  C   UNL     1      46.185   7.383  12.598  0.00  0.00    +0.000 A 
ATOM      9  C   UNL     1      45.083   8.143  11.902  0.00  0.00    +0.000 C 
ATOM     10  C   UNL     1      45.965   6.084  13.103  0.00  0.00    +0.000 A 
BRANCH  10  11
ATOM     11  O   UNL     1      44.770   5.542  12.697  0.00  0.00    +0.000 OA
BRANCH  11  12
ATOM     12  C   UNL     1      44.648   4.678  11.553  0.00  0.00    +0.000 C 
ATOM     13  C   UNL     1      43.223   4.610  10.979  0.00  0.00    +0.000 C 
ATOM     14  O   UNL     1      43.176   3.173  11.114  0.00  0.00    +0.000 OA
ATOM     15  C   UNL     1      44.471   3.171  11.761  0.00  0.00    +0.000 C 
ENDBRANCH  11  12
ENDBRANCH  10  11
ENDBRANCH   1   6
BRANCH   1  16
ATOM     16  C   UNL     1      49.897   9.017  14.924  0.00  0.00    +0.000 C 
BRANCH  16  17
ATOM     17  N   UNL     1      50.656   8.438  16.036  0.00  0.00    +0.000 N 
ATOM     18  H   UNL     1      51.661   8.392  15.879  0.00  0.00    +0.000 HD
BRANCH  17  19
ATOM     19  C   UNL     1      50.159   7.312  16.696  0.00  0.00    +0.000 A 
ATOM     20  C   UNL     1      50.812   6.075  16.704  0.00  0.00    +0.000 A 
ATOM     21  C   UNL     1      50.221   4.946  17.281  0.00  0.00    +0.000 A 
ATOM     22  C   UNL     1      48.949   5.025  17.851  0.00  0.00    +0.000 A 
ATOM     23  C   UNL     1      48.268   6.245  17.830  0.00  0.00    +0.000 A 
ATOM     24  C   UNL     1      48.872   7.372  17.251  0.00  0.00    +0.000 A 
BRANCH  22  25
ATOM     25  C   UNL     1      48.353   3.785  18.411  0.00  0.00    +0.000 C 
ATOM     26  N   UNL     1      48.501   3.558  19.750  0.00  0.00    +0.000 N 
ATOM     27  O   UNL     1      47.773   2.973  17.703  0.00  0.00    +0.000 OA
ATOM     28  H   UNL     1      49.152   4.069  20.326  0.00  0.00    +0.000 HD
ATOM     29  H   UNL     1      48.167   2.668  20.092  0.00  0.00    +0.000 HD
ENDBRANCH  22  25
ENDBRANCH  17  19
ENDBRANCH  16  17
ENDBRANCH   1  16
TORSDOF 7
ENDMDL
