MODEL 1
REMARK VINA RESULT:    -7.364      0.000      0.000
REMARK INTER + INTRA:         -10.936
REMARK INTER:                  -9.947
REMARK INTRA:                  -0.989
REMARK UNBOUND:                -0.989
REMARK  Name = 
REMARK  9 active torsions:
REMARK  status: ('A' for Active; 'I' for Inactive)
REMARK    1  A    between atoms: C_1  and  C_2
REMARK    2  A    between atoms: C_3  and  C_4
REMARK    3  A    between atoms: N_6  and  C_7
REMARK    4  A    between atoms: C_7  and  C_8
REMARK    5  A    between atoms: C_11  and  N_12
REMARK    6  A    between atoms: N_12  and  C_13
REMARK    7  A    between atoms: N_12  and  C_14
REMARK    8  A    between atoms: C_14  and  C_15
REMARK    9  A    between atoms: C_29  and  C_30
REMARK                            x       y       z     vdW  Elec       q    Type
REMARK                         _______ _______ _______ _____ _____    ______ ____
ROOT
ATOM      1  C   UNL     1      48.412   7.175  13.899  0.00  0.00    +0.000 C 
ENDROOT
BRANCH   1   2
ATOM      2  C   UNL     1      47.429   6.374  13.084  0.00  0.00    +0.000 A 
ATOM      3  C   UNL     1      47.044   6.802  11.810  0.00  0.00    +0.000 A 
ATOM      4  C   UNL     1      46.058   6.113  11.086  0.00  0.00    +0.000 A 
ATOM      5  C   UNL     1      45.419   4.978  11.608  0.00  0.00    +0.000 A 
ATOM      6  C   UNL     1      45.840   4.543  12.872  0.00  0.00    +0.000 A 
ATOM      7  C   UNL     1      46.826   5.224  13.603  0.00  0.00    +0.000 A 
BRANCH   5   8
ATOM      8  N   UNL     1      44.429   4.253  10.912  0.00  0.00    +0.000 N 
ATOM      9  C   UNL     1      43.068   4.385  11.449  0.00  0.00    +0.000 C 
BRANCH   8  10
ATOM     10  C   UNL     1      44.823   2.868  10.524  0.00  0.00    +0.000 C 
BRANCH  10  11
ATOM     11  C   UNL     1      44.434   2.554   9.055  0.00  0.00    +0.000 C 
ATOM     12  C   UNL     1      45.141   1.302   8.482  0.00  0.00    +0.000 C 
ATOM     13  C   UNL     1      46.582   1.533   8.009  0.00  0.00    +0.000 C 
ATOM     14  N   UNL     1      46.750   2.729   7.185  0.00  0.00    +0.000 NA
ATOM     15  C   UNL     1      46.191   3.911   7.838  0.00  0.00    +0.000 C 
ATOM     16  C   UNL     1      44.699   3.730   8.107  0.00  0.00    +0.000 C 
ATOM     17  H   UNL     1      46.282   2.594   6.289  0.00  0.00    +0.000 HD
ENDBRANCH  10  11
ENDBRANCH   8  10
ENDBRANCH   5   8
ENDBRANCH   1   2
BRANCH   1  20
ATOM     18  C   UNL     1      49.338   6.598  16.103  0.00  0.00    +0.000 C 
ATOM     19  O   UNL     1      50.485   6.571  15.667  0.00  0.00    +0.000 OA
ATOM     20  N   UNL     1      48.256   6.887  15.308  0.00  0.00    +0.000 N 
ATOM     21  H   UNL     1      47.334   6.656  15.648  0.00  0.00    +0.000 HD
BRANCH  18  24
ATOM     22  C   UNL     1      49.581   3.691  17.753  0.00  0.00    +0.000 C 
ATOM     23  C   UNL     1      49.128   5.031  18.232  0.00  0.00    +0.000 A 
ATOM     24  C   UNL     1      49.026   6.272  17.499  0.00  0.00    +0.000 A 
ATOM     25  C   UNL     1      48.494   7.189  18.396  0.00  0.00    +0.000 A 
ATOM     26  C   UNL     1      48.156   8.590  18.268  0.00  0.00    +0.000 A 
ATOM     27  N   UNL     1      47.663   9.279  19.263  0.00  0.00    +0.000 NA
ATOM     28  C   UNL     1      47.459   8.619  20.457  0.00  0.00    +0.000 A 
ATOM     29  C   UNL     1      47.744   7.323  20.659  0.00  0.00    +0.000 A 
ATOM     30  N   UNL     1      48.272   6.585  19.608  0.00  0.00    +0.000 N 
ATOM     31  C   UNL     1      48.654   5.264  19.525  0.00  0.00    +0.000 A 
ATOM     32  C   UNL     1      48.524   4.292  20.650  0.00  0.00    +0.000 C 
ENDBRANCH  18  24
ENDBRANCH   1  20
TORSDOF 6
ENDMDL
MODEL 2
REMARK VINA RESULT:    -7.290      1.757      2.454
REMARK INTER + INTRA:         -10.836
REMARK INTER:                  -9.909
REMARK INTRA:                  -0.927
REMARK UNBOUND:                -0.989
REMARK  Name = 
REMARK  9 active torsions:
REMARK  status: ('A' for Active; 'I' for Inactive)
REMARK    1  A    between atoms: C_1  and  C_2
REMARK    2  A    between atoms: C_3  and  C_4
REMARK    3  A    between atoms: N_6  and  C_7
REMARK    4  A    between atoms: C_7  and  C_8
REMARK    5  A    between atoms: C_11  and  N_12
REMARK    6  A    between atoms: N_12  and  C_13
REMARK    7  A    between atoms: N_12  and  C_14
REMARK    8  A    between atoms: C_14  and  C_15
REMARK    9  A    between atoms: C_29  and  C_30
REMARK                            x       y       z     vdW  Elec       q    Type
REMARK                         _______ _______ _______ _____ _____    ______ ____
ROOT
ATOM      1  C   UNL     1      47.799   8.156  13.989  0.00  0.00    +0.000 C 
ENDROOT
BRANCH   1   2
ATOM      2  C   UNL     1      46.931   7.309  13.095  0.00  0.00    +0.000 A 
ATOM      3  C   UNL     1      45.959   7.898  12.282  0.00  0.00    +0.000 A 
ATOM      4  C   UNL     1      45.083   7.108  11.519  0.00  0.00    +0.000 A 
ATOM      5  C   UNL     1      45.142   5.707  11.545  0.00  0.00    +0.000 A 
ATOM      6  C   UNL     1      46.144   5.133  12.340  0.00  0.00    +0.000 A 
ATOM      7  C   UNL     1      47.025   5.914  13.104  0.00  0.00    +0.000 A 
BRANCH   5   8
ATOM      8  N   UNL     1      44.287   4.878  10.790  0.00  0.00    +0.000 N 
ATOM      9  C   UNL     1      42.873   4.919  11.184  0.00  0.00    +0.000 C 
BRANCH   8  10
ATOM     10  C   UNL     1      44.824   3.515  10.508  0.00  0.00    +0.000 C 
BRANCH  10  11
ATOM     11  C   UNL     1      44.337   2.983   9.133  0.00  0.00    +0.000 C 
ATOM     12  C   UNL     1      44.861   1.566   8.798  0.00  0.00    +0.000 C 
ATOM     13  C   UNL     1      46.298   1.519   8.263  0.00  0.00    +0.000 C 
ATOM     14  N   UNL     1      46.575   2.507   7.221  0.00  0.00    +0.000 NA
ATOM     15  C   UNL     1      46.192   3.852   7.646  0.00  0.00    +0.000 C 
ATOM     16  C   UNL     1      44.703   3.917   7.973  0.00  0.00    +0.000 C 
ATOM     17  H   UNL     1      46.056   2.267   6.377  0.00  0.00    +0.000 HD
ENDBRANCH  10  11
ENDBRANCH   8  10
ENDBRANCH   5   8
ENDBRANCH   1   2
BRANCH   1  20
ATOM     18  C   UNL     1      49.317   6.930  15.488  0.00  0.00    +0.000 C 
ATOM     19  O   UNL     1      50.247   7.012  14.692  0.00  0.00    +0.000 OA
ATOM     20  N   UNL     1      48.078   7.463  15.229  0.00  0.00    +0.000 N 
ATOM     21  H   UNL     1      47.296   7.159  15.791  0.00  0.00    +0.000 HD
BRANCH  18  24
ATOM     22  C   UNL     1      51.291   7.523  18.130  0.00  0.00    +0.000 C 
ATOM     23  C   UNL     1      50.278   6.448  17.912  0.00  0.00    +0.000 A 
ATOM     24  C   UNL     1      49.440   6.208  16.760  0.00  0.00    +0.000 A 
ATOM     25  C   UNL     1      48.731   5.050  17.051  0.00  0.00    +0.000 A 
ATOM     26  C   UNL     1      47.742   4.301  16.306  0.00  0.00    +0.000 A 
ATOM     27  N   UNL     1      47.186   3.220  16.783  0.00  0.00    +0.000 NA
ATOM     28  C   UNL     1      47.583   2.797  18.034  0.00  0.00    +0.000 A 
ATOM     29  C   UNL     1      48.493   3.431  18.790  0.00  0.00    +0.000 A 
ATOM     30  N   UNL     1      49.086   4.583  18.292  0.00  0.00    +0.000 N 
ATOM     31  C   UNL     1      50.031   5.427  18.832  0.00  0.00    +0.000 A 
ATOM     32  C   UNL     1      50.671   5.210  20.164  0.00  0.00    +0.000 C 
ENDBRANCH  18  24
ENDBRANCH   1  20
TORSDOF 6
ENDMDL
MODEL 3
REMARK VINA RESULT:    -7.215      0.850      2.305
REMARK INTER + INTRA:         -10.735
REMARK INTER:                  -9.784
REMARK INTRA:                  -0.951
REMARK UNBOUND:                -0.989
REMARK  Name = 
REMARK  9 active torsions:
REMARK  status: ('A' for Active; 'I' for Inactive)
REMARK    1  A    between atoms: C_1  and  C_2
REMARK    2  A    between atoms: C_3  and  C_4
REMARK    3  A    between atoms: N_6  and  C_7
REMARK    4  A    between atoms: C_7  and  C_8
REMARK    5  A    between atoms: C_11  and  N_12
REMARK    6  A    between atoms: N_12  and  C_13
REMARK    7  A    between atoms: N_12  and  C_14
REMARK    8  A    between atoms: C_14  and  C_15
REMARK    9  A    between atoms: C_29  and  C_30
REMARK                            x       y       z     vdW  Elec       q    Type
REMARK                         _______ _______ _______ _____ _____    ______ ____
ROOT
ATOM      1  C   UNL     1      48.730   7.312  14.157  0.00  0.00    +0.000 C 
ENDROOT
BRANCH   1   2
ATOM      2  C   UNL     1      47.690   6.525  13.402  0.00  0.00    +0.000 A 
ATOM      3  C   UNL     1      47.288   6.920  12.123  0.00  0.00    +0.000 A 
ATOM      4  C   UNL     1      46.252   6.248  11.454  0.00  0.00    +0.000 A 
ATOM      5  C   UNL     1      45.579   5.164  12.038  0.00  0.00    +0.000 A 
ATOM      6  C   UNL     1      46.017   4.760  13.307  0.00  0.00    +0.000 A 
ATOM      7  C   UNL     1      47.053   5.424  13.983  0.00  0.00    +0.000 A 
BRANCH   5   8
ATOM      8  N   UNL     1      44.539   4.457  11.399  0.00  0.00    +0.000 N 
ATOM      9  C   UNL     1      43.242   4.504  12.085  0.00  0.00    +0.000 C 
BRANCH   8  10
ATOM     10  C   UNL     1      44.925   3.118  10.868  0.00  0.00    +0.000 C 
BRANCH  10  11
ATOM     11  C   UNL     1      44.341   2.876   9.450  0.00  0.00    +0.000 C 
ATOM     12  C   UNL     1      44.828   1.560   8.798  0.00  0.00    +0.000 C 
ATOM     13  C   UNL     1      46.226   1.629   8.168  0.00  0.00    +0.000 C 
ATOM     14  N   UNL     1      46.442   2.810   7.334  0.00  0.00    +0.000 NA
ATOM     15  C   UNL     1      46.101   4.038   8.050  0.00  0.00    +0.000 C 
ATOM     16  C   UNL     1      44.638   4.029   8.483  0.00  0.00    +0.000 C 
ATOM     17  H   UNL     1      45.865   2.746   6.495  0.00  0.00    +0.000 HD
ENDBRANCH  10  11
ENDBRANCH   8  10
ENDBRANCH   5   8
ENDBRANCH   1   2
BRANCH   1  20
ATOM     18  C   UNL     1      49.156   7.331  16.579  0.00  0.00    +0.000 C 
ATOM     19  O   UNL     1      50.314   6.953  16.428  0.00  0.00    +0.000 OA
ATOM     20  N   UNL     1      48.305   7.536  15.522  0.00  0.00    +0.000 N 
ATOM     21  H   UNL     1      47.314   7.603  15.707  0.00  0.00    +0.000 HD
BRANCH  18  24
ATOM     22  C   UNL     1      47.808  10.084  17.935  0.00  0.00    +0.000 C 
ATOM     23  C   UNL     1      47.982   8.718  18.512  0.00  0.00    +0.000 A 
ATOM     24  C   UNL     1      48.573   7.545  17.909  0.00  0.00    +0.000 A 
ATOM     25  C   UNL     1      48.541   6.566  18.894  0.00  0.00    +0.000 A 
ATOM     26  C   UNL     1      48.980   5.187  18.909  0.00  0.00    +0.000 A 
ATOM     27  N   UNL     1      48.844   4.428  19.964  0.00  0.00    +0.000 NA
ATOM     28  C   UNL     1      48.271   4.989  21.086  0.00  0.00    +0.000 A 
ATOM     29  C   UNL     1      47.838   6.257  21.155  0.00  0.00    +0.000 A 
ATOM     30  N   UNL     1      47.976   7.071  20.038  0.00  0.00    +0.000 N 
ATOM     31  C   UNL     1      47.628   8.386  19.821  0.00  0.00    +0.000 A 
ATOM     32  C   UNL     1      47.015   9.263  20.863  0.00  0.00    +0.000 C 
ENDBRANCH  18  24
ENDBRANCH   1  20
TORSDOF 6
ENDMDL
MODEL 4
REMARK VINA RESULT:    -7.016      3.583      9.322
REMARK INTER + INTRA:         -10.466
REMARK INTER:                  -9.216
REMARK INTRA:                  -1.250
REMARK UNBOUND:                -0.989
REMARK  Name = 
REMARK  9 active torsions:
REMARK  status: ('A' for Active; 'I' for Inactive)
REMARK    1  A    between atoms: C_1  and  C_2
REMARK    2  A    between atoms: C_3  and  C_4
REMARK    3  A    between atoms: N_6  and  C_7
REMARK    4  A    between atoms: C_7  and  C_8
REMARK    5  A    between atoms: C_11  and  N_12
REMARK    6  A    between atoms: N_12  and  C_13
REMARK    7  A    between atoms: N_12  and  C_14
REMARK    8  A    between atoms: C_14  and  C_15
REMARK    9  A    between atoms: C_29  and  C_30
REMARK                            x       y       z     vdW  Elec       q    Type
REMARK                         _______ _______ _______ _____ _____    ______ ____
ROOT
ATOM      1  C   UNL     1      47.259   3.414  16.968  0.00  0.00    +0.000 C 
ENDROOT
BRANCH   1   2
ATOM      2  C   UNL     1      48.754   3.374  17.150  0.00  0.00    +0.000 A 
ATOM      3  C   UNL     1      49.453   2.169  17.032  0.00  0.00    +0.000 A 
ATOM      4  C   UNL     1      50.831   2.107  17.295  0.00  0.00    +0.000 A 
ATOM      5  C   UNL     1      51.558   3.240  17.688  0.00  0.00    +0.000 A 
ATOM      6  C   UNL     1      50.849   4.447  17.770  0.00  0.00    +0.000 A 
ATOM      7  C   UNL     1      49.472   4.520  17.508  0.00  0.00    +0.000 A 
BRANCH   5   8
ATOM      8  N   UNL     1      52.943   3.224  17.955  0.00  0.00    +0.000 N 
ATOM      9  C   UNL     1      53.495   1.908  18.301  0.00  0.00    +0.000 C 
BRANCH   8  10
ATOM     10  C   UNL     1      53.433   4.354  18.796  0.00  0.00    +0.000 C 
BRANCH  10  11
ATOM     11  C   UNL     1      54.722   4.988  18.206  0.00  0.00    +0.000 C 
ATOM     12  C   UNL     1      55.121   6.321  18.882  0.00  0.00    +0.000 C 
ATOM     13  C   UNL     1      54.341   7.551  18.397  0.00  0.00    +0.000 C 
ATOM     14  N   UNL     1      54.228   7.643  16.942  0.00  0.00    +0.000 NA
ATOM     15  C   UNL     1      53.710   6.403  16.367  0.00  0.00    +0.000 C 
ATOM     16  C   UNL     1      54.626   5.227  16.694  0.00  0.00    +0.000 C 
ATOM     17  H   UNL     1      55.145   7.836  16.540  0.00  0.00    +0.000 HD
ENDBRANCH  10  11
ENDBRANCH   8  10
ENDBRANCH   5   8
ENDBRANCH   1   2
BRANCH   1  20
ATOM     18  C   UNL     1      46.962   4.169  14.646  0.00  0.00    +0.000 C 
ATOM     19  O   UNL     1      47.330   3.088  14.196  0.00  0.00    +0.000 OA
ATOM     20  N   UNL     1      46.893   4.420  15.994  0.00  0.00    +0.000 N 
ATOM     21  H   UNL     1      46.827   5.379  16.302  0.00  0.00    +0.000 HD
BRANCH  18  24
ATOM     22  C   UNL     1      48.603   7.030  14.051  0.00  0.00    +0.000 C 
ATOM     23  C   UNL     1      47.307   6.535  13.499  0.00  0.00    +0.000 A 
ATOM     24  C   UNL     1      46.614   5.298  13.775  0.00  0.00    +0.000 A 
ATOM     25  C   UNL     1      45.430   5.367  13.052  0.00  0.00    +0.000 A 
ATOM     26  C   UNL     1      44.321   4.448  12.913  0.00  0.00    +0.000 A 
ATOM     27  N   UNL     1      43.288   4.716  12.159  0.00  0.00    +0.000 NA
ATOM     28  C   UNL     1      43.279   5.925  11.495  0.00  0.00    +0.000 A 
ATOM     29  C   UNL     1      44.265   6.833  11.570  0.00  0.00    +0.000 A 
ATOM     30  N   UNL     1      45.368   6.554  12.368  0.00  0.00    +0.000 N 
ATOM     31  C   UNL     1      46.508   7.281  12.630  0.00  0.00    +0.000 A 
ATOM     32  C   UNL     1      46.767   8.643  12.077  0.00  0.00    +0.000 C 
ENDBRANCH  18  24
ENDBRANCH   1  20
TORSDOF 6
ENDMDL
MODEL 5
REMARK VINA RESULT:    -6.874      2.065      9.304
REMARK INTER + INTRA:         -10.274
REMARK INTER:                  -9.213
REMARK INTRA:                  -1.061
REMARK UNBOUND:                -0.989
REMARK  Name = 
REMARK  9 active torsions:
REMARK  status: ('A' for Active; 'I' for Inactive)
REMARK    1  A    between atoms: C_1  and  C_2
REMARK    2  A    between atoms: C_3  and  C_4
REMARK    3  A    between atoms: N_6  and  C_7
REMARK    4  A    between atoms: C_7  and  C_8
REMARK    5  A    between atoms: C_11  and  N_12
REMARK    6  A    between atoms: N_12  and  C_13
REMARK    7  A    between atoms: N_12  and  C_14
REMARK    8  A    between atoms: C_14  and  C_15
REMARK    9  A    between atoms: C_29  and  C_30
REMARK                            x       y       z     vdW  Elec       q    Type
REMARK                         _______ _______ _______ _____ _____    ______ ____
ROOT
ATOM      1  C   UNL     1      48.055   7.915  11.847  0.00  0.00    +0.000 C 
ENDROOT
BRANCH   1   2
ATOM      2  C   UNL     1      48.325   7.951  13.328  0.00  0.00    +0.000 A 
ATOM      3  C   UNL     1      48.641   6.780  14.024  0.00  0.00    +0.000 A 
ATOM      4  C   UNL     1      48.798   6.792  15.419  0.00  0.00    +0.000 A 
ATOM      5  C   UNL     1      48.642   7.967  16.169  0.00  0.00    +0.000 A 
ATOM      6  C   UNL     1      48.359   9.139  15.453  0.00  0.00    +0.000 A 
ATOM      7  C   UNL     1      48.201   9.138  14.058  0.00  0.00    +0.000 A 
BRANCH   5   8
ATOM      8  N   UNL     1      48.798   8.024  17.570  0.00  0.00    +0.000 N 
ATOM      9  C   UNL     1      49.571   9.170  18.064  0.00  0.00    +0.000 C 
BRANCH   8  10
ATOM     10  C   UNL     1      49.118   6.720  18.218  0.00  0.00    +0.000 C 
BRANCH  10  11
ATOM     11  C   UNL     1      47.852   6.058  18.826  0.00  0.00    +0.000 C 
ATOM     12  C   UNL     1      47.954   5.814  20.351  0.00  0.00    +0.000 C 
ATOM     13  C   UNL     1      48.751   4.567  20.755  0.00  0.00    +0.000 C 
ATOM     14  N   UNL     1      48.402   3.369  19.992  0.00  0.00    +0.000 NA
ATOM     15  C   UNL     1      48.462   3.616  18.553  0.00  0.00    +0.000 C 
ATOM     16  C   UNL     1      47.497   4.728  18.151  0.00  0.00    +0.000 C 
ATOM     17  H   UNL     1      47.458   3.072  20.238  0.00  0.00    +0.000 HD
ENDBRANCH  10  11
ENDBRANCH   8  10
ENDBRANCH   5   8
ENDBRANCH   1   2
BRANCH   1  20
ATOM     18  C   UNL     1      45.912   6.820  11.339  0.00  0.00    +0.000 C 
ATOM     19  O   UNL     1      45.289   7.869  11.472  0.00  0.00    +0.000 OA
ATOM     20  N   UNL     1      47.273   6.747  11.502  0.00  0.00    +0.000 N 
ATOM     21  H   UNL     1      47.695   5.838  11.626  0.00  0.00    +0.000 HD
BRANCH  18  24
ATOM     22  C   UNL     1      43.916   4.931  13.258  0.00  0.00    +0.000 C 
ATOM     23  C   UNL     1      44.375   4.720  11.852  0.00  0.00    +0.000 A 
ATOM     24  C   UNL     1      45.242   5.548  11.045  0.00  0.00    +0.000 A 
ATOM     25  C   UNL     1      45.394   4.864   9.846  0.00  0.00    +0.000 A 
ATOM     26  C   UNL     1      46.136   5.169   8.641  0.00  0.00    +0.000 A 
ATOM     27  N   UNL     1      46.135   4.372   7.606  0.00  0.00    +0.000 NA
ATOM     28  C   UNL     1      45.403   3.206   7.698  0.00  0.00    +0.000 A 
ATOM     29  C   UNL     1      44.689   2.849   8.776  0.00  0.00    +0.000 A 
ATOM     30  N   UNL     1      44.683   3.692   9.880  0.00  0.00    +0.000 N 
ATOM     31  C   UNL     1      44.053   3.588  11.101  0.00  0.00    +0.000 A 
ATOM     32  C   UNL     1      43.213   2.421  11.503  0.00  0.00    +0.000 C 
ENDBRANCH  18  24
ENDBRANCH   1  20
TORSDOF 6
ENDMDL
MODEL 6
REMARK VINA RESULT:    -6.405      5.007      8.845
REMARK INTER + INTRA:          -9.641
REMARK INTER:                  -8.599
REMARK INTRA:                  -1.042
REMARK UNBOUND:                -0.989
REMARK  Name = 
REMARK  9 active torsions:
REMARK  status: ('A' for Active; 'I' for Inactive)
REMARK    1  A    between atoms: C_1  and  C_2
REMARK    2  A    between atoms: C_3  and  C_4
REMARK    3  A    between atoms: N_6  and  C_7
REMARK    4  A    between atoms: C_7  and  C_8
REMARK    5  A    between atoms: C_11  and  N_12
REMARK    6  A    between atoms: N_12  and  C_13
REMARK    7  A    between atoms: N_12  and  C_14
REMARK    8  A    between atoms: C_14  and  C_15
REMARK    9  A    between atoms: C_29  and  C_30
REMARK                            x       y       z     vdW  Elec       q    Type
REMARK                         _______ _______ _______ _____ _____    ______ ____
ROOT
ATOM      1  C   UNL     1      46.712   8.415  12.424  0.00  0.00    +0.000 C 
ENDROOT
BRANCH   1   2
ATOM      2  C   UNL     1      48.135   8.602  11.968  0.00  0.00    +0.000 A 
ATOM      3  C   UNL     1      48.971   7.499  11.773  0.00  0.00    +0.000 A 
ATOM      4  C   UNL     1      50.325   7.671  11.442  0.00  0.00    +0.000 A 
ATOM      5  C   UNL     1      50.893   8.945  11.299  0.00  0.00    +0.000 A 
ATOM      6  C   UNL     1      50.034  10.040  11.465  0.00  0.00    +0.000 A 
ATOM      7  C   UNL     1      48.679   9.879  11.795  0.00  0.00    +0.000 A 
BRANCH   5   8
ATOM      8  N   UNL     1      52.245   9.162  10.961  0.00  0.00    +0.000 N 
ATOM      9  C   UNL     1      52.856  10.351  11.569  0.00  0.00    +0.000 C 
BRANCH   8  10
ATOM     10  C   UNL     1      52.574   8.949   9.522  0.00  0.00    +0.000 C 
BRANCH  10  11
ATOM     11  C   UNL     1      53.573   7.777   9.331  0.00  0.00    +0.000 C 
ATOM     12  C   UNL     1      54.778   8.132   8.427  0.00  0.00    +0.000 C 
ATOM     13  C   UNL     1      54.492   8.082   6.920  0.00  0.00    +0.000 C 
ATOM     14  N   UNL     1      53.774   6.882   6.494  0.00  0.00    +0.000 NA
ATOM     15  C   UNL     1      52.565   6.672   7.288  0.00  0.00    +0.000 C 
ATOM     16  C   UNL     1      52.906   6.516   8.768  0.00  0.00    +0.000 C 
ATOM     17  H   UNL     1      54.380   6.068   6.593  0.00  0.00    +0.000 HD
ENDBRANCH  10  11
ENDBRANCH   8  10
ENDBRANCH   5   8
ENDBRANCH   1   2
BRANCH   1  20
ATOM     18  C   UNL     1      45.052   6.912  11.405  0.00  0.00    +0.000 C 
ATOM     19  O   UNL     1      44.339   7.852  11.065  0.00  0.00    +0.000 OA
ATOM     20  N   UNL     1      46.237   7.094  12.075  0.00  0.00    +0.000 N 
ATOM     21  H   UNL     1      46.652   6.300  12.542  0.00  0.00    +0.000 HD
BRANCH  18  24
ATOM     22  C   UNL     1      43.247   4.812  13.292  0.00  0.00    +0.000 C 
ATOM     23  C   UNL     1      43.889   4.595  11.961  0.00  0.00    +0.000 A 
ATOM     24  C   UNL     1      44.669   5.516  11.167  0.00  0.00    +0.000 A 
ATOM     25  C   UNL     1      45.077   4.792  10.054  0.00  0.00    +0.000 A 
ATOM     26  C   UNL     1      45.877   5.149   8.902  0.00  0.00    +0.000 A 
ATOM     27  N   UNL     1      46.138   4.295   7.948  0.00  0.00    +0.000 NA
ATOM     28  C   UNL     1      45.632   3.019   8.077  0.00  0.00    +0.000 A 
ATOM     29  C   UNL     1      44.883   2.607   9.112  0.00  0.00    +0.000 A 
ATOM     30  N   UNL     1      44.598   3.509  10.129  0.00  0.00    +0.000 N 
ATOM     31  C   UNL     1      43.868   3.371  11.289  0.00  0.00    +0.000 A 
ATOM     32  C   UNL     1      43.223   2.094  11.715  0.00  0.00    +0.000 C 
ENDBRANCH  18  24
ENDBRANCH   1  20
TORSDOF 6
ENDMDL
MODEL 7
REMARK VINA RESULT:    -6.137      2.721      4.465
REMARK INTER + INTRA:          -9.279
REMARK INTER:                  -8.359
REMARK INTRA:                  -0.920
REMARK UNBOUND:                -0.989
REMARK  Name = 
REMARK  9 active torsions:
REMARK  status: ('A' for Active; 'I' for Inactive)
REMARK    1  A    between atoms: C_1  and  C_2
REMARK    2  A    between atoms: C_3  and  C_4
REMARK    3  A    between atoms: N_6  and  C_7
REMARK    4  A    between atoms: C_7  and  C_8
REMARK    5  A    between atoms: C_11  and  N_12
REMARK    6  A    between atoms: N_12  and  C_13
REMARK    7  A    between atoms: N_12  and  C_14
REMARK    8  A    between atoms: C_14  and  C_15
REMARK    9  A    between atoms: C_29  and  C_30
REMARK                            x       y       z     vdW  Elec       q    Type
REMARK                         _______ _______ _______ _____ _____    ______ ____
ROOT
ATOM      1  C   UNL     1      49.709   8.372  15.691  0.00  0.00    +0.000 C 
ENDROOT
BRANCH   1   2
ATOM      2  C   UNL     1      48.687   7.977  14.657  0.00  0.00    +0.000 A 
ATOM      3  C   UNL     1      48.822   6.784  13.941  0.00  0.00    +0.000 A 
ATOM      4  C   UNL     1      47.927   6.457  12.910  0.00  0.00    +0.000 A 
ATOM      5  C   UNL     1      46.871   7.308  12.553  0.00  0.00    +0.000 A 
ATOM      6  C   UNL     1      46.729   8.484  13.302  0.00  0.00    +0.000 A 
ATOM      7  C   UNL     1      47.617   8.820  14.336  0.00  0.00    +0.000 A 
BRANCH   5   8
ATOM      8  N   UNL     1      45.946   7.015  11.529  0.00  0.00    +0.000 N 
ATOM      9  C   UNL     1      44.776   7.900  11.475  0.00  0.00    +0.000 C 
BRANCH   8  10
ATOM     10  C   UNL     1      45.649   5.564  11.349  0.00  0.00    +0.000 C 
BRANCH  10  11
ATOM     11  C   UNL     1      44.140   5.319  11.079  0.00  0.00    +0.000 C 
ATOM     12  C   UNL     1      43.375   4.762  12.303  0.00  0.00    +0.000 C 
ATOM     13  C   UNL     1      43.537   3.254  12.536  0.00  0.00    +0.000 C 
ATOM     14  N   UNL     1      43.374   2.448  11.327  0.00  0.00    +0.000 NA
ATOM     15  C   UNL     1      44.227   2.931  10.243  0.00  0.00    +0.000 C 
ATOM     16  C   UNL     1      43.895   4.379   9.892  0.00  0.00    +0.000 C 
ATOM     17  H   UNL     1      42.401   2.484  11.022  0.00  0.00    +0.000 HD
ENDBRANCH  10  11
ENDBRANCH   8  10
ENDBRANCH   5   8
ENDBRANCH   1   2
BRANCH   1  20
ATOM     18  C   UNL     1      50.606   6.841  17.393  0.00  0.00    +0.000 C 
ATOM     19  O   UNL     1      50.030   7.434  18.301  0.00  0.00    +0.000 OA
ATOM     20  N   UNL     1      50.505   7.228  16.080  0.00  0.00    +0.000 N 
ATOM     21  H   UNL     1      51.179   6.871  15.420  0.00  0.00    +0.000 HD
BRANCH  18  24
ATOM     22  C   UNL     1      53.837   6.760  18.281  0.00  0.00    +0.000 C 
ATOM     23  C   UNL     1      52.881   5.639  18.036  0.00  0.00    +0.000 A 
ATOM     24  C   UNL     1      51.491   5.698  17.648  0.00  0.00    +0.000 A 
ATOM     25  C   UNL     1      51.093   4.376  17.495  0.00  0.00    +0.000 A 
ATOM     26  C   UNL     1      49.829   3.778  17.122  0.00  0.00    +0.000 A 
ATOM     27  N   UNL     1      49.670   2.484  17.045  0.00  0.00    +0.000 NA
ATOM     28  C   UNL     1      50.762   1.689  17.323  0.00  0.00    +0.000 A 
ATOM     29  C   UNL     1      51.967   2.161  17.676  0.00  0.00    +0.000 A 
ATOM     30  N   UNL     1      52.144   3.536  17.763  0.00  0.00    +0.000 N 
ATOM     31  C   UNL     1      53.246   4.293  18.096  0.00  0.00    +0.000 A 
ATOM     32  C   UNL     1      54.583   3.711  18.418  0.00  0.00    +0.000 C 
ENDBRANCH  18  24
ENDBRANCH   1  20
TORSDOF 6
ENDMDL
MODEL 8
REMARK VINA RESULT:    -6.099      2.517      3.378
REMARK INTER + INTRA:          -9.228
REMARK INTER:                  -8.071
REMARK INTRA:                  -1.157
REMARK UNBOUND:                -0.989
REMARK  Name = 
REMARK  9 active torsions:
REMARK  status: ('A' for Active; 'I' for Inactive)
REMARK    1  A    between atoms: C_1  and  C_2
REMARK    2  A    between atoms: C_3  and  C_4
REMARK    3  A    between atoms: N_6  and  C_7
REMARK    4  A    between atoms: C_7  and  C_8
REMARK    5  A    between atoms: C_11  and  N_12
REMARK    6  A    between atoms: N_12  and  C_13
REMARK    7  A    between atoms: N_12  and  C_14
REMARK    8  A    between atoms: C_14  and  C_15
REMARK    9  A    between atoms: C_29  and  C_30
REMARK                            x       y       z     vdW  Elec       q    Type
REMARK                         _______ _______ _______ _____ _____    ______ ____
ROOT
ATOM      1  C   UNL     1      50.202   8.103  14.730  0.00  0.00    +0.000 C 
ENDROOT
BRANCH   1   2
ATOM      2  C   UNL     1      49.006   8.048  13.816  0.00  0.00    +0.000 A 
ATOM      3  C   UNL     1      47.803   8.661  14.180  0.00  0.00    +0.000 A 
ATOM      4  C   UNL     1      46.657   8.532  13.378  0.00  0.00    +0.000 A 
ATOM      5  C   UNL     1      46.669   7.786  12.191  0.00  0.00    +0.000 A 
ATOM      6  C   UNL     1      47.891   7.206  11.823  0.00  0.00    +0.000 A 
ATOM      7  C   UNL     1      49.042   7.330  12.617  0.00  0.00    +0.000 A 
BRANCH   5   8
ATOM      8  N   UNL     1      45.544   7.637  11.353  0.00  0.00    +0.000 N 
ATOM      9  C   UNL     1      44.514   8.672  11.505  0.00  0.00    +0.000 C 
BRANCH   8  10
ATOM     10  C   UNL     1      45.026   6.242  11.240  0.00  0.00    +0.000 C 
BRANCH  10  11
ATOM     11  C   UNL     1      44.644   5.661  12.628  0.00  0.00    +0.000 C 
ATOM     12  C   UNL     1      45.636   4.592  13.145  0.00  0.00    +0.000 C 
ATOM     13  C   UNL     1      45.445   3.191  12.549  0.00  0.00    +0.000 C 
ATOM     14  N   UNL     1      44.054   2.740  12.532  0.00  0.00    +0.000 NA
ATOM     15  C   UNL     1      43.180   3.727  11.903  0.00  0.00    +0.000 C 
ATOM     16  C   UNL     1      43.234   5.057  12.650  0.00  0.00    +0.000 C 
ATOM     17  H   UNL     1      43.737   2.578  13.488  0.00  0.00    +0.000 HD
ENDBRANCH  10  11
ENDBRANCH   8  10
ENDBRANCH   5   8
ENDBRANCH   1   2
BRANCH   1  20
ATOM     18  C   UNL     1      49.891   6.788  16.786  0.00  0.00    +0.000 C 
ATOM     19  O   UNL     1      50.333   5.771  16.260  0.00  0.00    +0.000 OA
ATOM     20  N   UNL     1      49.791   7.980  16.112  0.00  0.00    +0.000 N 
ATOM     21  H   UNL     1      49.203   8.704  16.500  0.00  0.00    +0.000 HD
BRANCH  18  24
ATOM     22  C   UNL     1      47.342   5.106  18.167  0.00  0.00    +0.000 C 
ATOM     23  C   UNL     1      48.295   6.078  18.781  0.00  0.00    +0.000 A 
ATOM     24  C   UNL     1      49.385   6.797  18.163  0.00  0.00    +0.000 A 
ATOM     25  C   UNL     1      49.905   7.611  19.161  0.00  0.00    +0.000 A 
ATOM     26  C   UNL     1      50.997   8.560  19.171  0.00  0.00    +0.000 A 
ATOM     27  N   UNL     1      51.327   9.227  20.245  0.00  0.00    +0.000 NA
ATOM     28  C   UNL     1      50.586   9.005  21.387  0.00  0.00    +0.000 A 
ATOM     29  C   UNL     1      49.560   8.144  21.463  0.00  0.00    +0.000 A 
ATOM     30  N   UNL     1      49.204   7.429  20.327  0.00  0.00    +0.000 N 
ATOM     31  C   UNL     1      48.215   6.495  20.112  0.00  0.00    +0.000 A 
ATOM     32  C   UNL     1      47.235   6.071  21.155  0.00  0.00    +0.000 C 
ENDBRANCH  18  24
ENDBRANCH   1  20
TORSDOF 6
ENDMDL
MODEL 9
REMARK VINA RESULT:    -5.915      2.580      3.764
REMARK INTER + INTRA:          -8.979
REMARK INTER:                  -7.616
REMARK INTRA:                  -1.362
REMARK UNBOUND:                -0.989
REMARK  Name = 
REMARK  9 active torsions:
REMARK  status: ('A' for Active; 'I' for Inactive)
REMARK    1  A    between atoms: C_1  and  C_2
REMARK    2  A    between atoms: C_3  and  C_4
REMARK    3  A    between atoms: N_6  and  C_7
REMARK    4  A    between atoms: C_7  and  C_8
REMARK    5  A    between atoms: C_11  and  N_12
REMARK    6  A    between atoms: N_12  and  C_13
REMARK    7  A    between atoms: N_12  and  C_14
REMARK    8  A    between atoms: C_14  and  C_15
REMARK    9  A    between atoms: C_29  and  C_30
REMARK                            x       y       z     vdW  Elec       q    Type
REMARK                         _______ _______ _______ _____ _____    ______ ____
ROOT
ATOM      1  C   UNL     1      50.846   7.996  14.416  0.00  0.00    +0.000 C 
ENDROOT
BRANCH   1   2
ATOM      2  C   UNL     1      49.535   8.014  13.674  0.00  0.00    +0.000 A 
ATOM      3  C   UNL     1      48.424   8.674  14.208  0.00  0.00    +0.000 A 
ATOM      4  C   UNL     1      47.175   8.613  13.569  0.00  0.00    +0.000 A 
ATOM      5  C   UNL     1      46.989   7.891  12.382  0.00  0.00    +0.000 A 
ATOM      6  C   UNL     1      48.120   7.263  11.842  0.00  0.00    +0.000 A 
ATOM      7  C   UNL     1      49.373   7.318  12.472  0.00  0.00    +0.000 A 
BRANCH   5   8
ATOM      8  N   UNL     1      45.754   7.810  11.705  0.00  0.00    +0.000 N 
ATOM      9  C   UNL     1      44.744   8.787  12.132  0.00  0.00    +0.000 C 
BRANCH   8  10
ATOM     10  C   UNL     1      45.243   6.424  11.496  0.00  0.00    +0.000 C 
BRANCH  10  11
ATOM     11  C   UNL     1      44.863   5.747  12.841  0.00  0.00    +0.000 C 
ATOM     12  C   UNL     1      45.801   4.580  13.232  0.00  0.00    +0.000 C 
ATOM     13  C   UNL     1      45.508   3.250  12.525  0.00  0.00    +0.000 C 
ATOM     14  N   UNL     1      44.093   2.885  12.514  0.00  0.00    +0.000 NA
ATOM     15  C   UNL     1      43.264   3.973  11.999  0.00  0.00    +0.000 C 
ATOM     16  C   UNL     1      43.420   5.227  12.855  0.00  0.00    +0.000 C 
ATOM     17  H   UNL     1      43.791   2.659  13.462  0.00  0.00    +0.000 HD
ENDBRANCH  10  11
ENDBRANCH   8  10
ENDBRANCH   5   8
ENDBRANCH   1   2
BRANCH   1  20
ATOM     18  C   UNL     1      50.712   7.046  16.681  0.00  0.00    +0.000 C 
ATOM     19  O   UNL     1      50.983   5.919  16.276  0.00  0.00    +0.000 OA
ATOM     20  N   UNL     1      50.626   8.128  15.840  0.00  0.00    +0.000 N 
ATOM     21  H   UNL     1      50.166   8.962  16.175  0.00  0.00    +0.000 HD
BRANCH  18  24
ATOM     22  C   UNL     1      52.488   8.693  18.998  0.00  0.00    +0.000 C 
ATOM     23  C   UNL     1      51.155   8.027  19.104  0.00  0.00    +0.000 A 
ATOM     24  C   UNL     1      50.410   7.316  18.091  0.00  0.00    +0.000 A 
ATOM     25  C   UNL     1      49.271   6.845  18.731  0.00  0.00    +0.000 A 
ATOM     26  C   UNL     1      48.144   6.068  18.263  0.00  0.00    +0.000 A 
ATOM     27  N   UNL     1      47.157   5.733  19.050  0.00  0.00    +0.000 NA
ATOM     28  C   UNL     1      47.225   6.138  20.367  0.00  0.00    +0.000 A 
ATOM     29  C   UNL     1      48.233   6.859  20.882  0.00  0.00    +0.000 A 
ATOM     30  N   UNL     1      49.285   7.222  20.050  0.00  0.00    +0.000 N 
ATOM     31  C   UNL     1      50.431   7.946  20.296  0.00  0.00    +0.000 A 
ATOM     32  C   UNL     1      50.795   8.491  21.637  0.00  0.00    +0.000 C 
ENDBRANCH  18  24
ENDBRANCH   1  20
TORSDOF 6
ENDMDL
