MODEL 1
REMARK VINA RESULT:    -7.318      0.000      0.000
REMARK INTER + INTRA:          -9.612
REMARK INTER:                  -9.029
REMARK INTRA:                  -0.583
REMARK UNBOUND:                -0.583
REMARK  Name = 
REMARK  4 active torsions:
REMARK  status: ('A' for Active; 'I' for Inactive)
REMARK    1  A    between atoms: C_4  and  O_5
REMARK    2  A    between atoms: O_5  and  C_6
REMARK    3  A    between atoms: C_6  and  C_7
REMARK    4  A    between atoms: C_16  and  N_17
REMARK                            x       y       z     vdW  Elec       q    Type
REMARK                         _______ _______ _______ _____ _____    ______ ____
ROOT
ATOM      1  F   UNL     1      42.451   4.533  13.703  0.00  0.00    +0.000 F 
ATOM      2  C   UNL     1      43.342   4.790  12.736  0.00  0.00    +0.000 A 
ATOM      3  C   UNL     1      43.263   4.093  11.541  0.00  0.00    +0.000 A 
ATOM      4  C   UNL     1      44.190   4.365  10.541  0.00  0.00    +0.000 A 
ATOM      5  C   UNL     1      45.184   5.353  10.750  0.00  0.00    +0.000 A 
ATOM      6 CL   UNL     1      46.171   5.777   9.371  0.00  0.00    +0.000 Cl
ATOM      7  C   UNL     1      45.286   6.065  11.977  0.00  0.00    +0.000 A 
ATOM      8  C   UNL     1      44.332   5.744  12.960  0.00  0.00    +0.000 A 
ENDROOT
BRANCH   7   9
ATOM      9  N   UNL     1      46.213   7.071  12.215  0.00  0.00    +0.000 N 
ATOM     10  C   UNL     1      45.806   8.407  12.680  0.00  0.00    +0.000 C 
ATOM     11  C   UNL     1      46.707   9.475  12.012  0.00  0.00    +0.000 C 
ATOM     12  N   UNL     1      48.156   9.250  12.203  0.00  0.00    +0.000 NA
ATOM     13  C   UNL     1      48.492   7.875  11.761  0.00  0.00    +0.000 C 
ATOM     14  C   UNL     1      47.639   6.786  12.457  0.00  0.00    +0.000 C 
ATOM     15  H   UNL     1      48.358   9.318  13.200  0.00  0.00    +0.000 HD
ENDBRANCH   7   9
BRANCH   4  16
ATOM     16  O   UNL     1      44.241   3.657   9.366  0.00  0.00    +0.000 OA
BRANCH  16  17
ATOM     17  C   UNL     1      44.899   2.389   9.406  0.00  0.00    +0.000 C 
BRANCH  17  18
ATOM     18  C   UNL     1      45.774   2.235   8.184  0.00  0.00    +0.000 A 
ATOM     19  C   UNL     1      45.834   3.225   7.203  0.00  0.00    +0.000 A 
ATOM     20  N   UNL     1      46.596   3.123   6.084  0.00  0.00    +0.000 NA
ATOM     21  C   UNL     1      47.300   1.977   5.975  0.00  0.00    +0.000 A 
ATOM     22  F   UNL     1      48.078   1.811   4.896  0.00  0.00    +0.000 F 
ATOM     23  C   UNL     1      47.240   0.978   6.933  0.00  0.00    +0.000 A 
ATOM     24  N   UNL     1      46.477   1.076   8.052  0.00  0.00    +0.000 NA
ENDBRANCH  17  18
ENDBRANCH  16  17
ENDBRANCH   4  16
TORSDOF 4
ENDMDL
MODEL 2
REMARK VINA RESULT:    -7.015      1.866      2.108
REMARK INTER + INTRA:          -9.239
REMARK INTER:                  -8.688
REMARK INTRA:                  -0.551
REMARK UNBOUND:                -0.583
REMARK  Name = 
REMARK  4 active torsions:
REMARK  status: ('A' for Active; 'I' for Inactive)
REMARK    1  A    between atoms: C_4  and  O_5
REMARK    2  A    between atoms: O_5  and  C_6
REMARK    3  A    between atoms: C_6  and  C_7
REMARK    4  A    between atoms: C_16  and  N_17
REMARK                            x       y       z     vdW  Elec       q    Type
REMARK                         _______ _______ _______ _____ _____    ______ ____
ROOT
ATOM      1  F   UNL     1      47.315   3.093  14.408  0.00  0.00    +0.000 F 
ATOM      2  C   UNL     1      46.741   3.985  13.589  0.00  0.00    +0.000 A 
ATOM      3  C   UNL     1      45.646   3.601  12.832  0.00  0.00    +0.000 A 
ATOM      4  C   UNL     1      45.055   4.532  11.984  0.00  0.00    +0.000 A 
ATOM      5  C   UNL     1      45.566   5.852  11.919  0.00  0.00    +0.000 A 
ATOM      6 CL   UNL     1      44.638   7.007  10.993  0.00  0.00    +0.000 Cl
ATOM      7  C   UNL     1      46.698   6.255  12.679  0.00  0.00    +0.000 A 
ATOM      8  C   UNL     1      47.266   5.273  13.511  0.00  0.00    +0.000 A 
ENDROOT
BRANCH   7   9
ATOM      9  N   UNL     1      47.209   7.546  12.685  0.00  0.00    +0.000 N 
ATOM     10  C   UNL     1      46.446   8.681  13.225  0.00  0.00    +0.000 C 
ATOM     11  C   UNL     1      46.713   9.936  12.356  0.00  0.00    +0.000 C 
ATOM     12  N   UNL     1      48.145  10.268  12.197  0.00  0.00    +0.000 NA
ATOM     13  C   UNL     1      48.865   9.072  11.697  0.00  0.00    +0.000 C 
ATOM     14  C   UNL     1      48.654   7.819  12.581  0.00  0.00    +0.000 C 
ATOM     15  H   UNL     1      48.520  10.498  13.118  0.00  0.00    +0.000 HD
ENDBRANCH   7   9
BRANCH   4  16
ATOM     16  O   UNL     1      44.029   4.209  11.132  0.00  0.00    +0.000 OA
BRANCH  16  17
ATOM     17  C   UNL     1      44.067   2.910  10.539  0.00  0.00    +0.000 C 
BRANCH  17  18
ATOM     18  C   UNL     1      44.962   2.935   9.322  0.00  0.00    +0.000 A 
ATOM     19  C   UNL     1      45.106   4.087   8.550  0.00  0.00    +0.000 A 
ATOM     20  N   UNL     1      45.889   4.151   7.442  0.00  0.00    +0.000 NA
ATOM     21  C   UNL     1      46.526   3.005   7.125  0.00  0.00    +0.000 A 
ATOM     22  F   UNL     1      47.319   2.997   6.046  0.00  0.00    +0.000 F 
ATOM     23  C   UNL     1      46.382   1.848   7.874  0.00  0.00    +0.000 A 
ATOM     24  N   UNL     1      45.598   1.780   8.981  0.00  0.00    +0.000 NA
ENDBRANCH  17  18
ENDBRANCH  16  17
ENDBRANCH   4  16
TORSDOF 4
ENDMDL
MODEL 3
REMARK VINA RESULT:    -6.634      4.533      8.185
REMARK INTER + INTRA:          -8.768
REMARK INTER:                  -8.100
REMARK INTRA:                  -0.668
REMARK UNBOUND:                -0.583
REMARK  Name = 
REMARK  4 active torsions:
REMARK  status: ('A' for Active; 'I' for Inactive)
REMARK    1  A    between atoms: C_4  and  O_5
REMARK    2  A    between atoms: O_5  and  C_6
REMARK    3  A    between atoms: C_6  and  C_7
REMARK    4  A    between atoms: C_16  and  N_17
REMARK                            x       y       z     vdW  Elec       q    Type
REMARK                         _______ _______ _______ _____ _____    ______ ____
ROOT
ATOM      1  F   UNL     1      46.359   9.349  11.824  0.00  0.00    +0.000 F 
ATOM      2  C   UNL     1      46.543   8.091  12.247  0.00  0.00    +0.000 A 
ATOM      3  C   UNL     1      47.567   7.821  13.142  0.00  0.00    +0.000 A 
ATOM      4  C   UNL     1      47.752   6.513  13.577  0.00  0.00    +0.000 A 
ATOM      5  C   UNL     1      46.890   5.486  13.116  0.00  0.00    +0.000 A 
ATOM      6 CL   UNL     1      47.061   3.920  13.873  0.00  0.00    +0.000 Cl
ATOM      7  C   UNL     1      45.846   5.747  12.186  0.00  0.00    +0.000 A 
ATOM      8  C   UNL     1      45.709   7.084  11.769  0.00  0.00    +0.000 A 
ENDROOT
BRANCH   7   9
ATOM      9  N   UNL     1      44.948   4.787  11.738  0.00  0.00    +0.000 N 
ATOM     10  C   UNL     1      43.831   4.319  12.573  0.00  0.00    +0.000 C 
ATOM     11  C   UNL     1      43.619   2.803  12.339  0.00  0.00    +0.000 C 
ATOM     12  N   UNL     1      43.433   2.429  10.920  0.00  0.00    +0.000 NA
ATOM     13  C   UNL     1      44.564   2.969  10.128  0.00  0.00    +0.000 C 
ATOM     14  C   UNL     1      44.761   4.494  10.306  0.00  0.00    +0.000 C 
ATOM     15  H   UNL     1      42.577   2.872  10.586  0.00  0.00    +0.000 HD
ENDBRANCH   7   9
BRANCH   4  16
ATOM     16  O   UNL     1      48.796   6.143  14.387  0.00  0.00    +0.000 OA
BRANCH  16  17
ATOM     17  C   UNL     1      48.972   6.890  15.593  0.00  0.00    +0.000 C 
BRANCH  17  18
ATOM     18  C   UNL     1      48.826   5.971  16.783  0.00  0.00    +0.000 A 
ATOM     19  C   UNL     1      48.342   6.437  18.005  0.00  0.00    +0.000 A 
ATOM     20  N   UNL     1      48.205   5.649  19.104  0.00  0.00    +0.000 NA
ATOM     21  C   UNL     1      48.583   4.365  18.937  0.00  0.00    +0.000 A 
ATOM     22  F   UNL     1      48.471   3.531  19.979  0.00  0.00    +0.000 F 
ATOM     23  C   UNL     1      49.079   3.891  17.733  0.00  0.00    +0.000 A 
ATOM     24  N   UNL     1      49.219   4.675  16.634  0.00  0.00    +0.000 NA
ENDBRANCH  17  18
ENDBRANCH  16  17
ENDBRANCH   4  16
TORSDOF 4
ENDMDL
MODEL 4
REMARK VINA RESULT:    -6.128      4.854      6.118
REMARK INTER + INTRA:          -8.144
REMARK INTER:                  -7.560
REMARK INTRA:                  -0.584
REMARK UNBOUND:                -0.583
REMARK  Name = 
REMARK  4 active torsions:
REMARK  status: ('A' for Active; 'I' for Inactive)
REMARK    1  A    between atoms: C_4  and  O_5
REMARK    2  A    between atoms: O_5  and  C_6
REMARK    3  A    between atoms: C_6  and  C_7
REMARK    4  A    between atoms: C_16  and  N_17
REMARK                            x       y       z     vdW  Elec       q    Type
REMARK                         _______ _______ _______ _____ _____    ______ ____
ROOT
ATOM      1  F   UNL     1      48.671   8.292  13.474  0.00  0.00    +0.000 F 
ATOM      2  C   UNL     1      48.332   7.181  14.142  0.00  0.00    +0.000 A 
ATOM      3  C   UNL     1      47.419   6.305  13.578  0.00  0.00    +0.000 A 
ATOM      4  C   UNL     1      47.072   5.154  14.278  0.00  0.00    +0.000 A 
ATOM      5  C   UNL     1      47.663   4.888  15.538  0.00  0.00    +0.000 A 
ATOM      6 CL   UNL     1      47.331   3.325  16.245  0.00  0.00    +0.000 Cl
ATOM      7  C   UNL     1      48.590   5.786  16.134  0.00  0.00    +0.000 A 
ATOM      8  C   UNL     1      48.898   6.941  15.392  0.00  0.00    +0.000 A 
ENDROOT
BRANCH   7   9
ATOM      9  N   UNL     1      49.230   5.551  17.344  0.00  0.00    +0.000 N 
ATOM     10  C   UNL     1      50.660   5.216  17.414  0.00  0.00    +0.000 C 
ATOM     11  C   UNL     1      50.887   4.175  18.539  0.00  0.00    +0.000 C 
ATOM     12  N   UNL     1      50.359   4.586  19.858  0.00  0.00    +0.000 NA
ATOM     13  C   UNL     1      48.930   4.956  19.711  0.00  0.00    +0.000 C 
ATOM     14  C   UNL     1      48.687   6.034  18.627  0.00  0.00    +0.000 C 
ATOM     15  H   UNL     1      50.868   5.418  20.158  0.00  0.00    +0.000 HD
ENDBRANCH   7   9
BRANCH   4  16
ATOM     16  O   UNL     1      46.108   4.282  13.836  0.00  0.00    +0.000 OA
BRANCH  16  17
ATOM     17  C   UNL     1      44.931   4.858  13.267  0.00  0.00    +0.000 C 
BRANCH  17  18
ATOM     18  C   UNL     1      44.781   4.394  11.837  0.00  0.00    +0.000 A 
ATOM     19  C   UNL     1      44.140   3.195  11.526  0.00  0.00    +0.000 A 
ATOM     20  N   UNL     1      43.993   2.733  10.257  0.00  0.00    +0.000 NA
ATOM     21  C   UNL     1      44.525   3.519   9.298  0.00  0.00    +0.000 A 
ATOM     22  F   UNL     1      44.413   3.126   8.022  0.00  0.00    +0.000 F 
ATOM     23  C   UNL     1      45.177   4.706   9.592  0.00  0.00    +0.000 A 
ATOM     24  N   UNL     1      45.327   5.169  10.860  0.00  0.00    +0.000 NA
ENDBRANCH  17  18
ENDBRANCH  16  17
ENDBRANCH   4  16
TORSDOF 4
ENDMDL
MODEL 5
REMARK VINA RESULT:    -6.000      2.562      3.427
REMARK INTER + INTRA:          -7.986
REMARK INTER:                  -7.407
REMARK INTRA:                  -0.579
REMARK UNBOUND:                -0.583
REMARK  Name = 
REMARK  4 active torsions:
REMARK  status: ('A' for Active; 'I' for Inactive)
REMARK    1  A    between atoms: C_4  and  O_5
REMARK    2  A    between atoms: O_5  and  C_6
REMARK    3  A    between atoms: C_6  and  C_7
REMARK    4  A    between atoms: C_16  and  N_17
REMARK                            x       y       z     vdW  Elec       q    Type
REMARK                         _______ _______ _______ _____ _____    ______ ____
ROOT
ATOM      1  F   UNL     1      44.459   9.656  11.529  0.00  0.00    +0.000 F 
ATOM      2  C   UNL     1      45.105   8.573  11.982  0.00  0.00    +0.000 A 
ATOM      3  C   UNL     1      44.541   7.321  11.795  0.00  0.00    +0.000 A 
ATOM      4  C   UNL     1      45.218   6.201  12.268  0.00  0.00    +0.000 A 
ATOM      5  C   UNL     1      46.469   6.353  12.915  0.00  0.00    +0.000 A 
ATOM      6 CL   UNL     1      47.343   4.886  13.286  0.00  0.00    +0.000 Cl
ATOM      7  C   UNL     1      47.052   7.633  13.127  0.00  0.00    +0.000 A 
ATOM      8  C   UNL     1      46.322   8.733  12.641  0.00  0.00    +0.000 A 
ENDROOT
BRANCH   7   9
ATOM      9  N   UNL     1      48.293   7.832  13.715  0.00  0.00    +0.000 N 
ATOM     10  C   UNL     1      49.321   8.680  13.091  0.00  0.00    +0.000 C 
ATOM     11  C   UNL     1      50.716   8.053  13.334  0.00  0.00    +0.000 C 
ATOM     12  N   UNL     1      51.021   7.786  14.756  0.00  0.00    +0.000 NA
ATOM     13  C   UNL     1      49.928   6.970  15.338  0.00  0.00    +0.000 C 
ATOM     14  C   UNL     1      48.528   7.606  15.153  0.00  0.00    +0.000 C 
ATOM     15  H   UNL     1      51.042   8.680  15.248  0.00  0.00    +0.000 HD
ENDBRANCH   7   9
BRANCH   4  16
ATOM     16  O   UNL     1      44.688   4.936  12.208  0.00  0.00    +0.000 OA
BRANCH  16  17
ATOM     17  C   UNL     1      43.784   4.667  11.134  0.00  0.00    +0.000 C 
BRANCH  17  18
ATOM     18  C   UNL     1      44.523   3.974  10.013  0.00  0.00    +0.000 A 
ATOM     19  C   UNL     1      45.229   4.697   9.052  0.00  0.00    +0.000 A 
ATOM     20  N   UNL     1      45.896   4.116   8.021  0.00  0.00    +0.000 NA
ATOM     21  C   UNL     1      45.825   2.770   7.980  0.00  0.00    +0.000 A 
ATOM     22  F   UNL     1      46.464   2.131   6.991  0.00  0.00    +0.000 F 
ATOM     23  C   UNL     1      45.115   2.038   8.919  0.00  0.00    +0.000 A 
ATOM     24  N   UNL     1      44.445   2.616   9.949  0.00  0.00    +0.000 NA
ENDBRANCH  17  18
ENDBRANCH  16  17
ENDBRANCH   4  16
TORSDOF 4
ENDMDL
MODEL 6
REMARK VINA RESULT:    -5.941      5.532      7.427
REMARK INTER + INTRA:          -7.913
REMARK INTER:                  -7.373
REMARK INTRA:                  -0.540
REMARK UNBOUND:                -0.583
REMARK  Name = 
REMARK  4 active torsions:
REMARK  status: ('A' for Active; 'I' for Inactive)
REMARK    1  A    between atoms: C_4  and  O_5
REMARK    2  A    between atoms: O_5  and  C_6
REMARK    3  A    between atoms: C_6  and  C_7
REMARK    4  A    between atoms: C_16  and  N_17
REMARK                            x       y       z     vdW  Elec       q    Type
REMARK                         _______ _______ _______ _____ _____    ______ ____
ROOT
ATOM      1  F   UNL     1      49.175   7.981  14.443  0.00  0.00    +0.000 F 
ATOM      2  C   UNL     1      48.768   6.908  15.136  0.00  0.00    +0.000 A 
ATOM      3  C   UNL     1      47.963   5.967  14.514  0.00  0.00    +0.000 A 
ATOM      4  C   UNL     1      47.544   4.856  15.239  0.00  0.00    +0.000 A 
ATOM      5  C   UNL     1      47.956   4.696  16.586  0.00  0.00    +0.000 A 
ATOM      6 CL   UNL     1      47.560   3.175  17.350  0.00  0.00    +0.000 Cl
ATOM      7  C   UNL     1      48.768   5.662  17.240  0.00  0.00    +0.000 A 
ATOM      8  C   UNL     1      49.154   6.772  16.467  0.00  0.00    +0.000 A 
ENDROOT
BRANCH   7   9
ATOM      9  N   UNL     1      49.234   5.530  18.542  0.00  0.00    +0.000 N 
ATOM     10  C   UNL     1      50.653   5.717  18.882  0.00  0.00    +0.000 C 
ATOM     11  C   UNL     1      51.052   4.702  19.982  0.00  0.00    +0.000 C 
ATOM     12  N   UNL     1      50.193   4.745  21.185  0.00  0.00    +0.000 NA
ATOM     13  C   UNL     1      48.776   4.599  20.771  0.00  0.00    +0.000 C 
ATOM     14  C   UNL     1      48.341   5.639  19.710  0.00  0.00    +0.000 C 
ATOM     15  H   UNL     1      50.301   5.662  21.618  0.00  0.00    +0.000 HD
ENDBRANCH   7   9
BRANCH   4  16
ATOM     16  O   UNL     1      46.672   3.926  14.730  0.00  0.00    +0.000 OA
BRANCH  16  17
ATOM     17  C   UNL     1      46.578   3.842  13.307  0.00  0.00    +0.000 C 
BRANCH  17  18
ATOM     18  C   UNL     1      45.261   4.425  12.851  0.00  0.00    +0.000 A 
ATOM     19  C   UNL     1      45.208   5.432  11.887  0.00  0.00    +0.000 A 
ATOM     20  N   UNL     1      44.049   5.993  11.456  0.00  0.00    +0.000 NA
ATOM     21  C   UNL     1      42.930   5.511  12.037  0.00  0.00    +0.000 A 
ATOM     22  F   UNL     1      41.750   6.017  11.657  0.00  0.00    +0.000 F 
ATOM     23  C   UNL     1      42.968   4.522  13.007  0.00  0.00    +0.000 A 
ATOM     24  N   UNL     1      44.126   3.960  13.441  0.00  0.00    +0.000 NA
ENDBRANCH  17  18
ENDBRANCH  16  17
ENDBRANCH   4  16
TORSDOF 4
ENDMDL
MODEL 7
REMARK VINA RESULT:    -5.891      4.095      7.569
REMARK INTER + INTRA:          -7.851
REMARK INTER:                  -7.217
REMARK INTRA:                  -0.634
REMARK UNBOUND:                -0.583
REMARK  Name = 
REMARK  4 active torsions:
REMARK  status: ('A' for Active; 'I' for Inactive)
REMARK    1  A    between atoms: C_4  and  O_5
REMARK    2  A    between atoms: O_5  and  C_6
REMARK    3  A    between atoms: C_6  and  C_7
REMARK    4  A    between atoms: C_16  and  N_17
REMARK                            x       y       z     vdW  Elec       q    Type
REMARK                         _______ _______ _______ _____ _____    ______ ____
ROOT
ATOM      1  F   UNL     1      49.097   6.951  13.484  0.00  0.00    +0.000 F 
ATOM      2  C   UNL     1      47.826   7.007  13.064  0.00  0.00    +0.000 A 
ATOM      3  C   UNL     1      47.161   8.223  13.083  0.00  0.00    +0.000 A 
ATOM      4  C   UNL     1      45.842   8.274  12.645  0.00  0.00    +0.000 A 
ATOM      5  C   UNL     1      45.207   7.097  12.176  0.00  0.00    +0.000 A 
ATOM      6 CL   UNL     1      43.629   7.292  11.451  0.00  0.00    +0.000 Cl
ATOM      7  C   UNL     1      45.873   5.840  12.166  0.00  0.00    +0.000 A 
ATOM      8  C   UNL     1      47.202   5.840  12.630  0.00  0.00    +0.000 A 
ENDROOT
BRANCH   7   9
ATOM      9  N   UNL     1      45.312   4.668  11.677  0.00  0.00    +0.000 N 
ATOM     10  C   UNL     1      45.323   4.342  10.242  0.00  0.00    +0.000 C 
ATOM     11  C   UNL     1      43.994   3.641   9.868  0.00  0.00    +0.000 C 
ATOM     12  N   UNL     1      43.680   2.455  10.694  0.00  0.00    +0.000 NA
ATOM     13  C   UNL     1      43.731   2.839  12.126  0.00  0.00    +0.000 C 
ATOM     14  C   UNL     1      45.074   3.493  12.534  0.00  0.00    +0.000 C 
ATOM     15  H   UNL     1      44.405   1.756  10.531  0.00  0.00    +0.000 HD
ENDBRANCH   7   9
BRANCH   4  16
ATOM     16  O   UNL     1      45.082   9.415  12.717  0.00  0.00    +0.000 OA
BRANCH  16  17
ATOM     17  C   UNL     1      45.272  10.382  11.683  0.00  0.00    +0.000 C 
BRANCH  17  18
ATOM     18  C   UNL     1      43.939  10.721  11.057  0.00  0.00    +0.000 A 
ATOM     19  C   UNL     1      43.763  10.711   9.673  0.00  0.00    +0.000 A 
ATOM     20  N   UNL     1      42.588  11.021   9.068  0.00  0.00    +0.000 NA
ATOM     21  C   UNL     1      41.584  11.354   9.905  0.00  0.00    +0.000 A 
ATOM     22  F   UNL     1      40.394  11.667   9.375  0.00  0.00    +0.000 F 
ATOM     23  C   UNL     1      41.747  11.383  11.281  0.00  0.00    +0.000 A 
ATOM     24  N   UNL     1      42.922  11.076  11.889  0.00  0.00    +0.000 NA
ENDBRANCH  17  18
ENDBRANCH  16  17
ENDBRANCH   4  16
TORSDOF 4
ENDMDL
MODEL 8
REMARK VINA RESULT:    -5.822      4.379      6.512
REMARK INTER + INTRA:          -7.767
REMARK INTER:                  -7.179
REMARK INTRA:                  -0.588
REMARK UNBOUND:                -0.583
REMARK  Name = 
REMARK  4 active torsions:
REMARK  status: ('A' for Active; 'I' for Inactive)
REMARK    1  A    between atoms: C_4  and  O_5
REMARK    2  A    between atoms: O_5  and  C_6
REMARK    3  A    between atoms: C_6  and  C_7
REMARK    4  A    between atoms: C_16  and  N_17
REMARK                            x       y       z     vdW  Elec       q    Type
REMARK                         _______ _______ _______ _____ _____    ______ ____
ROOT
ATOM      1  F   UNL     1      49.539   9.558  14.946  0.00  0.00    +0.000 F 
ATOM      2  C   UNL     1      48.985   8.355  14.741  0.00  0.00    +0.000 A 
ATOM      3  C   UNL     1      48.414   8.074  13.510  0.00  0.00    +0.000 A 
ATOM      4  C   UNL     1      47.842   6.823  13.305  0.00  0.00    +0.000 A 
ATOM      5  C   UNL     1      47.864   5.857  14.341  0.00  0.00    +0.000 A 
ATOM      6 CL   UNL     1      47.314   4.251  13.928  0.00  0.00    +0.000 Cl
ATOM      7  C   UNL     1      48.433   6.138  15.614  0.00  0.00    +0.000 A 
ATOM      8  C   UNL     1      48.988   7.421  15.774  0.00  0.00    +0.000 A 
ENDROOT
BRANCH   7   9
ATOM      9  N   UNL     1      48.519   5.213  16.646  0.00  0.00    +0.000 N 
ATOM     10  C   UNL     1      49.746   5.049  17.441  0.00  0.00    +0.000 C 
ATOM     11  C   UNL     1      49.938   3.549  17.778  0.00  0.00    +0.000 C 
ATOM     12  N   UNL     1      48.772   2.923  18.439  0.00  0.00    +0.000 NA
ATOM     13  C   UNL     1      47.564   3.165  17.615  0.00  0.00    +0.000 C 
ATOM     14  C   UNL     1      47.323   4.664  17.310  0.00  0.00    +0.000 C 
ATOM     15  H   UNL     1      48.635   3.382  19.340  0.00  0.00    +0.000 HD
ENDBRANCH   7   9
BRANCH   4  16
ATOM     16  O   UNL     1      47.174   6.496  12.151  0.00  0.00    +0.000 OA
BRANCH  16  17
ATOM     17  C   UNL     1      45.785   6.827  12.094  0.00  0.00    +0.000 C 
BRANCH  17  18
ATOM     18  C   UNL     1      44.967   5.561  11.982  0.00  0.00    +0.000 A 
ATOM     19  C   UNL     1      43.972   5.255  12.911  0.00  0.00    +0.000 A 
ATOM     20  N   UNL     1      43.222   4.124  12.856  0.00  0.00    +0.000 NA
ATOM     21  C   UNL     1      43.511   3.296  11.831  0.00  0.00    +0.000 A 
ATOM     22  F   UNL     1      42.806   2.162  11.713  0.00  0.00    +0.000 F 
ATOM     23  C   UNL     1      44.506   3.579  10.909  0.00  0.00    +0.000 A 
ATOM     24  N   UNL     1      45.259   4.708  10.962  0.00  0.00    +0.000 NA
ENDBRANCH  17  18
ENDBRANCH  16  17
ENDBRANCH   4  16
TORSDOF 4
ENDMDL
MODEL 9
REMARK VINA RESULT:    -5.634      2.921      3.954
REMARK INTER + INTRA:          -7.535
REMARK INTER:                  -7.270
REMARK INTRA:                  -0.265
REMARK UNBOUND:                -0.583
REMARK  Name = 
REMARK  4 active torsions:
REMARK  status: ('A' for Active; 'I' for Inactive)
REMARK    1  A    between atoms: C_4  and  O_5
REMARK    2  A    between atoms: O_5  and  C_6
REMARK    3  A    between atoms: C_6  and  C_7
REMARK    4  A    between atoms: C_16  and  N_17
REMARK                            x       y       z     vdW  Elec       q    Type
REMARK                         _______ _______ _______ _____ _____    ______ ____
ROOT
ATOM      1  F   UNL     1      47.349   3.567  15.041  0.00  0.00    +0.000 F 
ATOM      2  C   UNL     1      47.013   4.701  14.411  0.00  0.00    +0.000 A 
ATOM      3  C   UNL     1      45.802   4.770  13.742  0.00  0.00    +0.000 A 
ATOM      4  C   UNL     1      45.460   5.951  13.091  0.00  0.00    +0.000 A 
ATOM      5  C   UNL     1      46.339   7.061  13.133  0.00  0.00    +0.000 A 
ATOM      6 CL   UNL     1      45.738   8.563  12.471  0.00  0.00    +0.000 Cl
ATOM      7  C   UNL     1      47.592   6.999  13.802  0.00  0.00    +0.000 A 
ATOM      8  C   UNL     1      47.896   5.779  14.435  0.00  0.00    +0.000 A 
ENDROOT
BRANCH   7   9
ATOM      9  N   UNL     1      48.468   8.070  13.910  0.00  0.00    +0.000 N 
ATOM     10  C   UNL     1      49.309   8.502  12.783  0.00  0.00    +0.000 C 
ATOM     11  C   UNL     1      50.691   8.952  13.319  0.00  0.00    +0.000 C 
ATOM     12  N   UNL     1      50.622   9.986  14.375  0.00  0.00    +0.000 NA
ATOM     13  C   UNL     1      49.725   9.511  15.456  0.00  0.00    +0.000 C 
ATOM     14  C   UNL     1      48.320   9.106  14.948  0.00  0.00    +0.000 C 
ATOM     15  H   UNL     1      50.208  10.825  13.969  0.00  0.00    +0.000 HD
ENDBRANCH   7   9
BRANCH   4  16
ATOM     16  O   UNL     1      44.325   6.073  12.328  0.00  0.00    +0.000 OA
BRANCH  16  17
ATOM     17  C   UNL     1      44.505   6.160  10.914  0.00  0.00    +0.000 C 
BRANCH  17  18
ATOM     18  C   UNL     1      44.531   4.770  10.320  0.00  0.00    +0.000 A 
ATOM     19  C   UNL     1      43.826   3.718  10.904  0.00  0.00    +0.000 A 
ATOM     20  N   UNL     1      43.831   2.452  10.412  0.00  0.00    +0.000 NA
ATOM     21  C   UNL     1      44.583   2.271   9.306  0.00  0.00    +0.000 A 
ATOM     22  F   UNL     1      44.630   1.047   8.765  0.00  0.00    +0.000 F 
ATOM     23  C   UNL     1      45.301   3.303   8.724  0.00  0.00    +0.000 A 
ATOM     24  N   UNL     1      45.300   4.569   9.214  0.00  0.00    +0.000 NA
ENDBRANCH  17  18
ENDBRANCH  16  17
ENDBRANCH   4  16
TORSDOF 4
ENDMDL
