MODEL 1
REMARK VINA RESULT:    -7.930      0.000      0.000
REMARK INTER + INTRA:         -10.908
REMARK INTER:                 -10.480
REMARK INTRA:                  -0.428
REMARK UNBOUND:                -0.428
REMARK  Name = 
REMARK  7 active torsions:
REMARK  status: ('A' for Active; 'I' for Inactive)
REMARK    1  A    between atoms: C_1  and  C_2
REMARK    2  A    between atoms: C_3  and  C_4
REMARK    3  A    between atoms: C_6  and  C_7
REMARK    4  A    between atoms: C_7  and  N_8
REMARK    5  A    between atoms: C_10  and  C_11
REMARK    6  A    between atoms: C_11  and  N_12
REMARK    7  A    between atoms: C_16  and  C_17
REMARK                            x       y       z     vdW  Elec       q    Type
REMARK                         _______ _______ _______ _____ _____    ______ ____
ROOT
ATOM      1  C   UNL     1      43.621   4.902  10.605  0.00  0.00    +0.000 C 
ENDROOT
BRANCH   1   2
ATOM      2  N   UNL     1      43.946   3.490  10.403  0.00  0.00    +0.000 N 
ATOM      3  C   UNL     1      44.828   3.258   9.338  0.00  0.00    +0.000 A 
ATOM      4  C   UNL     1      45.225   1.949   9.066  0.00  0.00    +0.000 A 
ATOM      5  C   UNL     1      46.084   1.699   7.992  0.00  0.00    +0.000 A 
ATOM      6  C   UNL     1      46.533   2.759   7.206  0.00  0.00    +0.000 A 
ATOM      7  C   UNL     1      46.106   4.027   7.562  0.00  0.00    +0.000 A 
ATOM      8  N   UNL     1      45.281   4.292   8.605  0.00  0.00    +0.000 NA
ATOM      9  H   UNL     1      43.107   2.934  10.266  0.00  0.00    +0.000 HD
BRANCH   6  10
ATOM     10  C   UNL     1      47.418   2.491   6.048  0.00  0.00    +0.000 C 
ATOM     11  N   UNL     1      48.773   2.451   6.242  0.00  0.00    +0.000 N 
ATOM     12  O   UNL     1      46.956   2.312   4.928  0.00  0.00    +0.000 OA
ATOM     13  H   UNL     1      49.257   2.580   7.113  0.00  0.00    +0.000 HD
ATOM     14  H   UNL     1      49.338   2.271   5.420  0.00  0.00    +0.000 HD
ENDBRANCH   6  10
ENDBRANCH   1   2
BRANCH   1  19
ATOM     15  C   UNL     1      46.157   5.421  13.417  0.00  0.00    +0.000 A 
ATOM     16  C   UNL     1      46.377   6.800  13.348  0.00  0.00    +0.000 A 
ATOM     17  C   UNL     1      45.702   7.586  12.406  0.00  0.00    +0.000 A 
ATOM     18  C   UNL     1      44.808   6.963  11.523  0.00  0.00    +0.000 A 
ATOM     19  C   UNL     1      44.606   5.573  11.543  0.00  0.00    +0.000 A 
ATOM     20  C   UNL     1      45.278   4.809  12.518  0.00  0.00    +0.000 A 
BRANCH  15  23
ATOM     21  C   UNL     1      47.767   3.369  16.565  0.00  0.00    +0.000 C 
ATOM     22  C   UNL     1      47.281   4.075  15.379  0.00  0.00    +0.000 C 
ATOM     23  C   UNL     1      46.818   4.675  14.447  0.00  0.00    +0.000 C 
ENDBRANCH  15  23
BRANCH  17  24
ATOM     24  C   UNL     1      45.892   9.079  12.370  0.00  0.00    +0.000 C 
BRANCH  24  25
ATOM     25  N   UNL     1      44.647   9.791  12.632  0.00  0.00    +0.000 NA
ATOM     26  H   UNL     1      44.114   9.851  11.766  0.00  0.00    +0.000 HD
ATOM     27  H   UNL     1      44.861  10.746  12.909  0.00  0.00    +0.000 HD
ENDBRANCH  24  25
ENDBRANCH  17  24
ENDBRANCH   1  19
TORSDOF 6
ENDMDL
MODEL 2
REMARK VINA RESULT:    -7.762      1.739      3.361
REMARK INTER + INTRA:         -10.686
REMARK INTER:                 -10.289
REMARK INTRA:                  -0.398
REMARK UNBOUND:                -0.428
REMARK  Name = 
REMARK  7 active torsions:
REMARK  status: ('A' for Active; 'I' for Inactive)
REMARK    1  A    between atoms: C_1  and  C_2
REMARK    2  A    between atoms: C_3  and  C_4
REMARK    3  A    between atoms: C_6  and  C_7
REMARK    4  A    between atoms: C_7  and  N_8
REMARK    5  A    between atoms: C_10  and  C_11
REMARK    6  A    between atoms: C_11  and  N_12
REMARK    7  A    between atoms: C_16  and  C_17
REMARK                            x       y       z     vdW  Elec       q    Type
REMARK                         _______ _______ _______ _____ _____    ______ ____
ROOT
ATOM      1  C   UNL     1      44.009   4.989  11.011  0.00  0.00    +0.000 C 
ENDROOT
BRANCH   1   2
ATOM      2  N   UNL     1      44.135   3.575  10.656  0.00  0.00    +0.000 N 
ATOM      3  C   UNL     1      44.949   3.342   9.538  0.00  0.00    +0.000 A 
ATOM      4  C   UNL     1      45.158   2.029   9.120  0.00  0.00    +0.000 A 
ATOM      5  C   UNL     1      45.945   1.782   7.991  0.00  0.00    +0.000 A 
ATOM      6  C   UNL     1      46.512   2.851   7.298  0.00  0.00    +0.000 A 
ATOM      7  C   UNL     1      46.270   4.119   7.797  0.00  0.00    +0.000 A 
ATOM      8  N   UNL     1      45.517   4.380   8.895  0.00  0.00    +0.000 NA
ATOM      9  H   UNL     1      43.225   3.152  10.498  0.00  0.00    +0.000 HD
BRANCH   6  10
ATOM     10  C   UNL     1      47.321   2.591   6.083  0.00  0.00    +0.000 C 
ATOM     11  N   UNL     1      48.682   2.496   6.199  0.00  0.00    +0.000 N 
ATOM     12  O   UNL     1      46.791   2.469   4.986  0.00  0.00    +0.000 OA
ATOM     13  H   UNL     1      49.218   2.577   7.045  0.00  0.00    +0.000 HD
ATOM     14  H   UNL     1      49.193   2.324   5.342  0.00  0.00    +0.000 HD
ENDBRANCH   6  10
ENDBRANCH   1   2
BRANCH   1  19
ATOM     15  C   UNL     1      47.016   6.959  12.311  0.00  0.00    +0.000 A 
ATOM     16  C   UNL     1      47.323   6.263  13.484  0.00  0.00    +0.000 A 
ATOM     17  C   UNL     1      46.579   5.141  13.867  0.00  0.00    +0.000 A 
ATOM     18  C   UNL     1      45.508   4.734  13.057  0.00  0.00    +0.000 A 
ATOM     19  C   UNL     1      45.151   5.444  11.899  0.00  0.00    +0.000 A 
ATOM     20  C   UNL     1      45.934   6.554  11.524  0.00  0.00    +0.000 A 
BRANCH  15  23
ATOM     21  C   UNL     1      49.501  10.116  11.560  0.00  0.00    +0.000 C 
ATOM     22  C   UNL     1      48.589   8.984  11.719  0.00  0.00    +0.000 C 
ATOM     23  C   UNL     1      47.855   8.055  11.928  0.00  0.00    +0.000 C 
ENDBRANCH  15  23
BRANCH  17  24
ATOM     24  C   UNL     1      46.946   4.355  15.097  0.00  0.00    +0.000 C 
BRANCH  24  25
ATOM     25  N   UNL     1      47.589   3.090  14.760  0.00  0.00    +0.000 NA
ATOM     26  H   UNL     1      48.600   3.216  14.799  0.00  0.00    +0.000 HD
ATOM     27  H   UNL     1      47.362   2.847  13.799  0.00  0.00    +0.000 HD
ENDBRANCH  24  25
ENDBRANCH  17  24
ENDBRANCH   1  19
TORSDOF 6
ENDMDL
MODEL 3
REMARK VINA RESULT:    -6.520      4.890      7.892
REMARK INTER + INTRA:          -9.045
REMARK INTER:                  -8.513
REMARK INTRA:                  -0.532
REMARK UNBOUND:                -0.428
REMARK  Name = 
REMARK  7 active torsions:
REMARK  status: ('A' for Active; 'I' for Inactive)
REMARK    1  A    between atoms: C_1  and  C_2
REMARK    2  A    between atoms: C_3  and  C_4
REMARK    3  A    between atoms: C_6  and  C_7
REMARK    4  A    between atoms: C_7  and  N_8
REMARK    5  A    between atoms: C_10  and  C_11
REMARK    6  A    between atoms: C_11  and  N_12
REMARK    7  A    between atoms: C_16  and  C_17
REMARK                            x       y       z     vdW  Elec       q    Type
REMARK                         _______ _______ _______ _____ _____    ______ ____
ROOT
ATOM      1  C   UNL     1      46.548   4.348  15.282  0.00  0.00    +0.000 C 
ENDROOT
BRANCH   1   2
ATOM      2  N   UNL     1      47.570   5.013  16.090  0.00  0.00    +0.000 N 
ATOM      3  C   UNL     1      48.620   4.170  16.481  0.00  0.00    +0.000 A 
ATOM      4  C   UNL     1      49.663   4.702  17.239  0.00  0.00    +0.000 A 
ATOM      5  C   UNL     1      50.704   3.868  17.658  0.00  0.00    +0.000 A 
ATOM      6  C   UNL     1      50.688   2.517  17.315  0.00  0.00    +0.000 A 
ATOM      7  C   UNL     1      49.625   2.081  16.542  0.00  0.00    +0.000 A 
ATOM      8  N   UNL     1      48.611   2.874  16.117  0.00  0.00    +0.000 NA
ATOM      9  H   UNL     1      47.165   5.443  16.916  0.00  0.00    +0.000 HD
BRANCH   6  10
ATOM     10  C   UNL     1      51.776   1.627  17.786  0.00  0.00    +0.000 C 
ATOM     11  N   UNL     1      51.492   0.315  18.054  0.00  0.00    +0.000 N 
ATOM     12  O   UNL     1      52.914   2.051  17.943  0.00  0.00    +0.000 OA
ATOM     13  H   UNL     1      50.599  -0.136  17.960  0.00  0.00    +0.000 HD
ATOM     14  H   UNL     1      52.265  -0.253  18.381  0.00  0.00    +0.000 HD
ENDBRANCH   6  10
ENDBRANCH   1   2
BRANCH   1  19
ATOM     15  C   UNL     1      47.228   6.585  12.258  0.00  0.00    +0.000 A 
ATOM     16  C   UNL     1      46.279   6.120  11.343  0.00  0.00    +0.000 A 
ATOM     17  C   UNL     1      45.396   5.091  11.690  0.00  0.00    +0.000 A 
ATOM     18  C   UNL     1      45.488   4.524  12.970  0.00  0.00    +0.000 A 
ATOM     19  C   UNL     1      46.464   4.943  13.889  0.00  0.00    +0.000 A 
ATOM     20  C   UNL     1      47.323   5.998  13.524  0.00  0.00    +0.000 A 
BRANCH  15  23
ATOM     21  C   UNL     1      49.683   9.769  11.516  0.00  0.00    +0.000 C 
ATOM     22  C   UNL     1      48.783   8.626  11.672  0.00  0.00    +0.000 C 
ATOM     23  C   UNL     1      48.059   7.689  11.878  0.00  0.00    +0.000 C 
ENDBRANCH  15  23
BRANCH  17  24
ATOM     24  C   UNL     1      44.333   4.630  10.728  0.00  0.00    +0.000 C 
BRANCH  24  25
ATOM     25  N   UNL     1      43.277   5.622  10.570  0.00  0.00    +0.000 NA
ATOM     26  H   UNL     1      42.974   5.929  11.494  0.00  0.00    +0.000 HD
ATOM     27  H   UNL     1      42.471   5.184  10.131  0.00  0.00    +0.000 HD
ENDBRANCH  24  25
ENDBRANCH  17  24
ENDBRANCH   1  19
TORSDOF 6
ENDMDL
MODEL 4
REMARK VINA RESULT:    -6.480      3.715      6.236
REMARK INTER + INTRA:          -8.992
REMARK INTER:                  -8.593
REMARK INTRA:                  -0.399
REMARK UNBOUND:                -0.428
REMARK  Name = 
REMARK  7 active torsions:
REMARK  status: ('A' for Active; 'I' for Inactive)
REMARK    1  A    between atoms: C_1  and  C_2
REMARK    2  A    between atoms: C_3  and  C_4
REMARK    3  A    between atoms: C_6  and  C_7
REMARK    4  A    between atoms: C_7  and  N_8
REMARK    5  A    between atoms: C_10  and  C_11
REMARK    6  A    between atoms: C_11  and  N_12
REMARK    7  A    between atoms: C_16  and  C_17
REMARK                            x       y       z     vdW  Elec       q    Type
REMARK                         _______ _______ _______ _____ _____    ______ ____
ROOT
ATOM      1  C   UNL     1      46.693   4.197  15.596  0.00  0.00    +0.000 C 
ENDROOT
BRANCH   1   2
ATOM      2  N   UNL     1      46.982   5.344  14.734  0.00  0.00    +0.000 N 
ATOM      3  C   UNL     1      46.493   5.210  13.428  0.00  0.00    +0.000 A 
ATOM      4  C   UNL     1      46.692   6.252  12.524  0.00  0.00    +0.000 A 
ATOM      5  C   UNL     1      46.232   6.122  11.210  0.00  0.00    +0.000 A 
ATOM      6  C   UNL     1      45.580   4.953  10.819  0.00  0.00    +0.000 A 
ATOM      7  C   UNL     1      45.406   3.980  11.789  0.00  0.00    +0.000 A 
ATOM      8  N   UNL     1      45.836   4.090  13.070  0.00  0.00    +0.000 NA
ATOM      9  H   UNL     1      47.979   5.534  14.697  0.00  0.00    +0.000 HD
BRANCH   6  10
ATOM     10  C   UNL     1      45.120   4.802   9.418  0.00  0.00    +0.000 C 
ATOM     11  N   UNL     1      43.820   4.446   9.180  0.00  0.00    +0.000 N 
ATOM     12  O   UNL     1      45.886   4.985   8.480  0.00  0.00    +0.000 OA
ATOM     13  H   UNL     1      43.110   4.274   9.870  0.00  0.00    +0.000 HD
ATOM     14  H   UNL     1      43.554   4.349   8.207  0.00  0.00    +0.000 HD
ENDBRANCH   6  10
ENDBRANCH   1   2
BRANCH   1  19
ATOM     15  C   UNL     1      49.710   3.040  17.639  0.00  0.00    +0.000 A 
ATOM     16  C   UNL     1      49.549   3.772  18.819  0.00  0.00    +0.000 A 
ATOM     17  C   UNL     1      48.459   4.636  18.982  0.00  0.00    +0.000 A 
ATOM     18  C   UNL     1      47.537   4.765  17.934  0.00  0.00    +0.000 A 
ATOM     19  C   UNL     1      47.704   4.076  16.721  0.00  0.00    +0.000 A 
ATOM     20  C   UNL     1      48.794   3.193  16.593  0.00  0.00    +0.000 A 
BRANCH  15  23
ATOM     21  C   UNL     1      53.038   0.683  17.356  0.00  0.00    +0.000 C 
ATOM     22  C   UNL     1      51.787   1.433  17.468  0.00  0.00    +0.000 C 
ATOM     23  C   UNL     1      50.802   2.116  17.552  0.00  0.00    +0.000 C 
ENDBRANCH  15  23
BRANCH  17  24
ATOM     24  C   UNL     1      48.251   5.378  20.276  0.00  0.00    +0.000 C 
BRANCH  24  25
ATOM     25  N   UNL     1      48.025   4.468  21.393  0.00  0.00    +0.000 NA
ATOM     26  H   UNL     1      48.860   3.898  21.526  0.00  0.00    +0.000 HD
ATOM     27  H   UNL     1      47.271   3.828  21.154  0.00  0.00    +0.000 HD
ENDBRANCH  24  25
ENDBRANCH  17  24
ENDBRANCH   1  19
TORSDOF 6
ENDMDL
MODEL 5
REMARK VINA RESULT:    -6.455      5.014      8.727
REMARK INTER + INTRA:          -8.959
REMARK INTER:                  -8.507
REMARK INTRA:                  -0.452
REMARK UNBOUND:                -0.428
REMARK  Name = 
REMARK  7 active torsions:
REMARK  status: ('A' for Active; 'I' for Inactive)
REMARK    1  A    between atoms: C_1  and  C_2
REMARK    2  A    between atoms: C_3  and  C_4
REMARK    3  A    between atoms: C_6  and  C_7
REMARK    4  A    between atoms: C_7  and  N_8
REMARK    5  A    between atoms: C_10  and  C_11
REMARK    6  A    between atoms: C_11  and  N_12
REMARK    7  A    between atoms: C_16  and  C_17
REMARK                            x       y       z     vdW  Elec       q    Type
REMARK                         _______ _______ _______ _____ _____    ______ ____
ROOT
ATOM      1  C   UNL     1      47.189   3.846  14.558  0.00  0.00    +0.000 C 
ENDROOT
BRANCH   1   2
ATOM      2  N   UNL     1      46.688   4.285  15.861  0.00  0.00    +0.000 N 
ATOM      3  C   UNL     1      47.693   4.480  16.818  0.00  0.00    +0.000 A 
ATOM      4  C   UNL     1      47.333   4.918  18.092  0.00  0.00    +0.000 A 
ATOM      5  C   UNL     1      48.322   5.092  19.066  0.00  0.00    +0.000 A 
ATOM      6  C   UNL     1      49.654   4.826  18.752  0.00  0.00    +0.000 A 
ATOM      7  C   UNL     1      49.922   4.417  17.456  0.00  0.00    +0.000 A 
ATOM      8  N   UNL     1      48.980   4.251  16.495  0.00  0.00    +0.000 NA
ATOM      9  H   UNL     1      46.001   3.633  16.229  0.00  0.00    +0.000 HD
BRANCH   6  10
ATOM     10  C   UNL     1      50.698   4.981  19.793  0.00  0.00    +0.000 C 
ATOM     11  N   UNL     1      50.442   4.535  21.062  0.00  0.00    +0.000 N 
ATOM     12  O   UNL     1      51.774   5.506  19.534  0.00  0.00    +0.000 OA
ATOM     13  H   UNL     1      49.600   4.091  21.382  0.00  0.00    +0.000 HD
ATOM     14  H   UNL     1      51.182   4.669  21.741  0.00  0.00    +0.000 HD
ENDBRANCH   6  10
ENDBRANCH   1   2
BRANCH   1  19
ATOM     15  C   UNL     1      45.407   6.266  12.195  0.00  0.00    +0.000 A 
ATOM     16  C   UNL     1      44.686   5.387  11.382  0.00  0.00    +0.000 A 
ATOM     17  C   UNL     1      44.749   4.004  11.591  0.00  0.00    +0.000 A 
ATOM     18  C   UNL     1      45.560   3.514  12.625  0.00  0.00    +0.000 A 
ATOM     19  C   UNL     1      46.331   4.375  13.424  0.00  0.00    +0.000 A 
ATOM     20  C   UNL     1      46.228   5.763  13.210  0.00  0.00    +0.000 A 
BRANCH  15  23
ATOM     21  C   UNL     1      44.614  10.222  11.536  0.00  0.00    +0.000 C 
ATOM     22  C   UNL     1      45.005   8.835  11.790  0.00  0.00    +0.000 C 
ATOM     23  C   UNL     1      45.250   7.675  11.985  0.00  0.00    +0.000 C 
ENDBRANCH  15  23
BRANCH  17  24
ATOM     24  C   UNL     1      43.926   3.060  10.756  0.00  0.00    +0.000 C 
BRANCH  24  25
ATOM     25  N   UNL     1      43.026   2.255  11.574  0.00  0.00    +0.000 NA
ATOM     26  H   UNL     1      43.498   2.021  12.447  0.00  0.00    +0.000 HD
ATOM     27  H   UNL     1      42.841   1.375  11.099  0.00  0.00    +0.000 HD
ENDBRANCH  24  25
ENDBRANCH  17  24
ENDBRANCH   1  19
TORSDOF 6
ENDMDL
MODEL 6
REMARK VINA RESULT:    -6.438      3.971      7.264
REMARK INTER + INTRA:          -8.936
REMARK INTER:                  -8.415
REMARK INTRA:                  -0.521
REMARK UNBOUND:                -0.428
REMARK  Name = 
REMARK  7 active torsions:
REMARK  status: ('A' for Active; 'I' for Inactive)
REMARK    1  A    between atoms: C_1  and  C_2
REMARK    2  A    between atoms: C_3  and  C_4
REMARK    3  A    between atoms: C_6  and  C_7
REMARK    4  A    between atoms: C_7  and  N_8
REMARK    5  A    between atoms: C_10  and  C_11
REMARK    6  A    between atoms: C_11  and  N_12
REMARK    7  A    between atoms: C_16  and  C_17
REMARK                            x       y       z     vdW  Elec       q    Type
REMARK                         _______ _______ _______ _____ _____    ______ ____
ROOT
ATOM      1  C   UNL     1      45.636   6.888  11.098  0.00  0.00    +0.000 C 
ENDROOT
BRANCH   1   2
ATOM      2  N   UNL     1      46.121   6.795  12.476  0.00  0.00    +0.000 N 
ATOM      3  C   UNL     1      47.447   7.219  12.640  0.00  0.00    +0.000 A 
ATOM      4  C   UNL     1      48.009   7.193  13.915  0.00  0.00    +0.000 A 
ATOM      5  C   UNL     1      49.338   7.588  14.091  0.00  0.00    +0.000 A 
ATOM      6  C   UNL     1      50.086   8.002  12.989  0.00  0.00    +0.000 A 
ATOM      7  C   UNL     1      49.441   8.018  11.765  0.00  0.00    +0.000 A 
ATOM      8  N   UNL     1      48.150   7.648  11.574  0.00  0.00    +0.000 NA
ATOM      9  H   UNL     1      46.027   5.849  12.835  0.00  0.00    +0.000 HD
BRANCH   6  10
ATOM     10  C   UNL     1      51.505   8.392  13.171  0.00  0.00    +0.000 C 
ATOM     11  N   UNL     1      52.419   8.037  12.215  0.00  0.00    +0.000 N 
ATOM     12  O   UNL     1      51.867   9.015  14.161  0.00  0.00    +0.000 OA
ATOM     13  H   UNL     1      52.233   7.530  11.368  0.00  0.00    +0.000 HD
ATOM     14  H   UNL     1      53.377   8.319  12.386  0.00  0.00    +0.000 HD
ENDBRANCH   6  10
ENDBRANCH   1   2
BRANCH   1  19
ATOM     15  C   UNL     1      45.526   3.916   8.696  0.00  0.00    +0.000 A 
ATOM     16  C   UNL     1      44.710   3.020   9.393  0.00  0.00    +0.000 A 
ATOM     17  C   UNL     1      44.170   3.364  10.638  0.00  0.00    +0.000 A 
ATOM     18  C   UNL     1      44.473   4.621  11.181  0.00  0.00    +0.000 A 
ATOM     19  C   UNL     1      45.328   5.519  10.521  0.00  0.00    +0.000 A 
ATOM     20  C   UNL     1      45.837   5.159   9.258  0.00  0.00    +0.000 A 
BRANCH  15  23
ATOM     21  C   UNL     1      47.048   2.598   5.138  0.00  0.00    +0.000 C 
ATOM     22  C   UNL     1      46.446   3.147   6.353  0.00  0.00    +0.000 C 
ATOM     23  C   UNL     1      45.993   3.543   7.393  0.00  0.00    +0.000 C 
ENDBRANCH  15  23
BRANCH  17  24
ATOM     24  C   UNL     1      43.242   2.424  11.361  0.00  0.00    +0.000 C 
BRANCH  24  25
ATOM     25  N   UNL     1      43.551   2.347  12.784  0.00  0.00    +0.000 NA
ATOM     26  H   UNL     1      43.836   3.269  13.109  0.00  0.00    +0.000 HD
ATOM     27  H   UNL     1      44.349   1.730  12.919  0.00  0.00    +0.000 HD
ENDBRANCH  24  25
ENDBRANCH  17  24
ENDBRANCH   1  19
TORSDOF 6
ENDMDL
MODEL 7
REMARK VINA RESULT:    -6.216      4.143      6.687
REMARK INTER + INTRA:          -8.643
REMARK INTER:                  -8.197
REMARK INTRA:                  -0.446
REMARK UNBOUND:                -0.428
REMARK  Name = 
REMARK  7 active torsions:
REMARK  status: ('A' for Active; 'I' for Inactive)
REMARK    1  A    between atoms: C_1  and  C_2
REMARK    2  A    between atoms: C_3  and  C_4
REMARK    3  A    between atoms: C_6  and  C_7
REMARK    4  A    between atoms: C_7  and  N_8
REMARK    5  A    between atoms: C_10  and  C_11
REMARK    6  A    between atoms: C_11  and  N_12
REMARK    7  A    between atoms: C_16  and  C_17
REMARK                            x       y       z     vdW  Elec       q    Type
REMARK                         _______ _______ _______ _____ _____    ______ ____
ROOT
ATOM      1  C   UNL     1      47.005   4.258  15.818  0.00  0.00    +0.000 C 
ENDROOT
BRANCH   1   2
ATOM      2  N   UNL     1      47.047   5.250  14.742  0.00  0.00    +0.000 N 
ATOM      3  C   UNL     1      46.338   4.871  13.594  0.00  0.00    +0.000 A 
ATOM      4  C   UNL     1      46.292   5.749  12.511  0.00  0.00    +0.000 A 
ATOM      5  C   UNL     1      45.610   5.374  11.349  0.00  0.00    +0.000 A 
ATOM      6  C   UNL     1      44.986   4.129  11.287  0.00  0.00    +0.000 A 
ATOM      7  C   UNL     1      45.064   3.332  12.416  0.00  0.00    +0.000 A 
ATOM      8  N   UNL     1      45.711   3.680  13.555  0.00  0.00    +0.000 NA
ATOM      9  H   UNL     1      48.004   5.472  14.483  0.00  0.00    +0.000 HD
BRANCH   6  10
ATOM     10  C   UNL     1      44.290   3.720  10.043  0.00  0.00    +0.000 C 
ATOM     11  N   UNL     1      44.020   4.665   9.091  0.00  0.00    +0.000 N 
ATOM     12  O   UNL     1      43.950   2.556   9.864  0.00  0.00    +0.000 OA
ATOM     13  H   UNL     1      44.254   5.641   9.133  0.00  0.00    +0.000 HD
ATOM     14  H   UNL     1      43.537   4.340   8.261  0.00  0.00    +0.000 HD
ENDBRANCH   6  10
ENDBRANCH   1   2
BRANCH   1  19
ATOM     15  C   UNL     1      50.226   5.228  17.633  0.00  0.00    +0.000 A 
ATOM     16  C   UNL     1      50.854   3.988  17.776  0.00  0.00    +0.000 A 
ATOM     17  C   UNL     1      50.259   2.823  17.278  0.00  0.00    +0.000 A 
ATOM     18  C   UNL     1      49.013   2.920  16.642  0.00  0.00    +0.000 A 
ATOM     19  C   UNL     1      48.341   4.149  16.527  0.00  0.00    +0.000 A 
ATOM     20  C   UNL     1      48.975   5.309  17.014  0.00  0.00    +0.000 A 
BRANCH  15  23
ATOM     21  C   UNL     1      52.137   8.703  18.628  0.00  0.00    +0.000 C 
ATOM     22  C   UNL     1      51.472   7.424  18.377  0.00  0.00    +0.000 C 
ATOM     23  C   UNL     1      50.913   6.398  18.095  0.00  0.00    +0.000 C 
ENDBRANCH  15  23
BRANCH  17  24
ATOM     24  C   UNL     1      50.961   1.495  17.378  0.00  0.00    +0.000 C 
BRANCH  24  25
ATOM     25  N   UNL     1      52.143   1.569  18.229  0.00  0.00    +0.000 NA
ATOM     26  H   UNL     1      52.655   2.421  18.006  0.00  0.00    +0.000 HD
ATOM     27  H   UNL     1      52.762   0.791  18.008  0.00  0.00    +0.000 HD
ENDBRANCH  24  25
ENDBRANCH  17  24
ENDBRANCH   1  19
TORSDOF 6
ENDMDL
MODEL 8
REMARK VINA RESULT:    -5.865      3.742      5.419
REMARK INTER + INTRA:          -8.178
REMARK INTER:                  -7.609
REMARK INTRA:                  -0.569
REMARK UNBOUND:                -0.428
REMARK  Name = 
REMARK  7 active torsions:
REMARK  status: ('A' for Active; 'I' for Inactive)
REMARK    1  A    between atoms: C_1  and  C_2
REMARK    2  A    between atoms: C_3  and  C_4
REMARK    3  A    between atoms: C_6  and  C_7
REMARK    4  A    between atoms: C_7  and  N_8
REMARK    5  A    between atoms: C_10  and  C_11
REMARK    6  A    between atoms: C_11  and  N_12
REMARK    7  A    between atoms: C_16  and  C_17
REMARK                            x       y       z     vdW  Elec       q    Type
REMARK                         _______ _______ _______ _____ _____    ______ ____
ROOT
ATOM      1  C   UNL     1      45.963   8.603  11.804  0.00  0.00    +0.000 C 
ENDROOT
BRANCH   1   2
ATOM      2  N   UNL     1      45.022   7.886  12.667  0.00  0.00    +0.000 N 
ATOM      3  C   UNL     1      44.746   6.579  12.242  0.00  0.00    +0.000 A 
ATOM      4  C   UNL     1      43.878   5.794  13.000  0.00  0.00    +0.000 A 
ATOM      5  C   UNL     1      43.572   4.498  12.575  0.00  0.00    +0.000 A 
ATOM      6  C   UNL     1      44.139   4.005  11.400  0.00  0.00    +0.000 A 
ATOM      7  C   UNL     1      45.007   4.845  10.724  0.00  0.00    +0.000 A 
ATOM      8  N   UNL     1      45.323   6.102  11.123  0.00  0.00    +0.000 NA
ATOM      9  H   UNL     1      44.149   8.396  12.763  0.00  0.00    +0.000 HD
BRANCH   6  10
ATOM     10  C   UNL     1      43.790   2.642  10.933  0.00  0.00    +0.000 C 
ATOM     11  N   UNL     1      44.462   2.114   9.865  0.00  0.00    +0.000 N 
ATOM     12  O   UNL     1      42.910   1.992  11.485  0.00  0.00    +0.000 OA
ATOM     13  H   UNL     1      45.199   2.555   9.342  0.00  0.00    +0.000 HD
ATOM     14  H   UNL     1      44.185   1.182   9.577  0.00  0.00    +0.000 HD
ENDBRANCH   6  10
ENDBRANCH   1   2
BRANCH   1  19
ATOM     15  C   UNL     1      49.760   8.306  12.126  0.00  0.00    +0.000 A 
ATOM     16  C   UNL     1      49.950   8.574  13.485  0.00  0.00    +0.000 A 
ATOM     17  C   UNL     1      48.859   8.839  14.321  0.00  0.00    +0.000 A 
ATOM     18  C   UNL     1      47.570   8.843  13.768  0.00  0.00    +0.000 A 
ATOM     19  C   UNL     1      47.359   8.622  12.397  0.00  0.00    +0.000 A 
ATOM     20  C   UNL     1      48.471   8.332  11.583  0.00  0.00    +0.000 A 
BRANCH  15  23
ATOM     21  C   UNL     1      52.806   7.141   9.661  0.00  0.00    +0.000 C 
ATOM     22  C   UNL     1      51.791   7.620  10.599  0.00  0.00    +0.000 C 
ATOM     23  C   UNL     1      50.904   7.968  11.330  0.00  0.00    +0.000 C 
ENDBRANCH  15  23
BRANCH  17  24
ATOM     24  C   UNL     1      49.056   9.068  15.796  0.00  0.00    +0.000 C 
BRANCH  24  25
ATOM     25  N   UNL     1      47.798   9.362  16.472  0.00  0.00    +0.000 NA
ATOM     26  H   UNL     1      47.027   9.081  15.867  0.00  0.00    +0.000 HD
ATOM     27  H   UNL     1      47.716  10.368  16.601  0.00  0.00    +0.000 HD
ENDBRANCH  24  25
ENDBRANCH  17  24
ENDBRANCH   1  19
TORSDOF 6
ENDMDL
MODEL 9
REMARK VINA RESULT:    -5.722      4.996      8.242
REMARK INTER + INTRA:          -7.990
REMARK INTER:                  -7.448
REMARK INTRA:                  -0.542
REMARK UNBOUND:                -0.428
REMARK  Name = 
REMARK  7 active torsions:
REMARK  status: ('A' for Active; 'I' for Inactive)
REMARK    1  A    between atoms: C_1  and  C_2
REMARK    2  A    between atoms: C_3  and  C_4
REMARK    3  A    between atoms: C_6  and  C_7
REMARK    4  A    between atoms: C_7  and  N_8
REMARK    5  A    between atoms: C_10  and  C_11
REMARK    6  A    between atoms: C_11  and  N_12
REMARK    7  A    between atoms: C_16  and  C_17
REMARK                            x       y       z     vdW  Elec       q    Type
REMARK                         _______ _______ _______ _____ _____    ______ ____
ROOT
ATOM      1  C   UNL     1      48.759   7.121  13.697  0.00  0.00    +0.000 C 
ENDROOT
BRANCH   1   2
ATOM      2  N   UNL     1      48.733   7.813  14.987  0.00  0.00    +0.000 N 
ATOM      3  C   UNL     1      48.767   6.952  16.093  0.00  0.00    +0.000 A 
ATOM      4  C   UNL     1      48.767   7.502  17.374  0.00  0.00    +0.000 A 
ATOM      5  C   UNL     1      48.775   6.655  18.487  0.00  0.00    +0.000 A 
ATOM      6  C   UNL     1      48.782   5.273  18.302  0.00  0.00    +0.000 A 
ATOM      7  C   UNL     1      48.805   4.816  16.996  0.00  0.00    +0.000 A 
ATOM      8  N   UNL     1      48.807   5.619  15.904  0.00  0.00    +0.000 NA
ATOM      9  H   UNL     1      47.921   8.419  15.063  0.00  0.00    +0.000 HD
BRANCH   6  10
ATOM     10  C   UNL     1      48.759   4.376  19.482  0.00  0.00    +0.000 C 
ATOM     11  N   UNL     1      48.311   3.091  19.332  0.00  0.00    +0.000 N 
ATOM     12  O   UNL     1      49.126   4.771  20.582  0.00  0.00    +0.000 OA
ATOM     13  H   UNL     1      47.990   2.665  18.480  0.00  0.00    +0.000 HD
ATOM     14  H   UNL     1      48.307   2.518  20.167  0.00  0.00    +0.000 HD
ENDBRANCH   6  10
ENDBRANCH   1   2
BRANCH   1  19
ATOM     15  C   UNL     1      45.703   6.193  11.598  0.00  0.00    +0.000 A 
ATOM     16  C   UNL     1      44.990   7.396  11.590  0.00  0.00    +0.000 A 
ATOM     17  C   UNL     1      45.488   8.527  12.246  0.00  0.00    +0.000 A 
ATOM     18  C   UNL     1      46.712   8.430  12.924  0.00  0.00    +0.000 A 
ATOM     19  C   UNL     1      47.423   7.220  12.985  0.00  0.00    +0.000 A 
ATOM     20  C   UNL     1      46.912   6.104  12.294  0.00  0.00    +0.000 A 
BRANCH  15  23
ATOM     21  C   UNL     1      44.555   2.920   9.434  0.00  0.00    +0.000 C 
ATOM     22  C   UNL     1      44.857   4.121  10.213  0.00  0.00    +0.000 C 
ATOM     23  C   UNL     1      45.183   5.087  10.849  0.00  0.00    +0.000 C 
ENDBRANCH  15  23
BRANCH  17  24
ATOM     24  C   UNL     1      44.752   9.839  12.188  0.00  0.00    +0.000 C 
BRANCH  24  25
ATOM     25  N   UNL     1      45.662  10.976  12.270  0.00  0.00    +0.000 NA
ATOM     26  H   UNL     1      45.792  11.222  13.251  0.00  0.00    +0.000 HD
ATOM     27  H   UNL     1      45.230  11.781  11.822  0.00  0.00    +0.000 HD
ENDBRANCH  24  25
ENDBRANCH  17  24
ENDBRANCH   1  19
TORSDOF 6
ENDMDL
