MODEL 1
REMARK VINA RESULT:    -8.611      0.000      0.000
REMARK INTER + INTRA:         -13.278
REMARK INTER:                 -12.135
REMARK INTRA:                  -1.143
REMARK UNBOUND:                -1.143
REMARK  Name = 
REMARK  8 active torsions:
REMARK  status: ('A' for Active; 'I' for Inactive)
REMARK    1  A    between atoms: C_1  and  C_2
REMARK    2  A    between atoms: C_6  and  C_7
REMARK    3  A    between atoms: C_7  and  N_8
REMARK    4  A    between atoms: N_8  and  C_9
REMARK    5  A    between atoms: C_9  and  C_10
REMARK    6  A    between atoms: C_13  and  C_14
REMARK    7  A    between atoms: C_14  and  N_15
REMARK    8  A    between atoms: C_16  and  C_18
REMARK                            x       y       z     vdW  Elec       q    Type
REMARK                         _______ _______ _______ _____ _____    ______ ____
ROOT
ATOM      1  C   UNL     1      44.501   4.049  12.449  0.00  0.00    +0.000 A 
ATOM      2  C   UNL     1      45.813   3.780  12.885  0.00  0.00    +0.000 A 
ATOM      3  C   UNL     1      46.684   4.814  13.243  0.00  0.00    +0.000 A 
ATOM      4  C   UNL     1      46.265   6.146  13.177  0.00  0.00    +0.000 A 
ATOM      5  C   UNL     1      44.969   6.422  12.719  0.00  0.00    +0.000 A 
ATOM      6  C   UNL     1      44.096   5.388  12.366  0.00  0.00    +0.000 A 
ATOM      7 CL   UNL     1      42.510   5.845  11.846  0.00  0.00    +0.000 Cl
ENDROOT
BRANCH   1   8
ATOM      8  C   UNL     1      43.590   2.888  12.109  0.00  0.00    +0.000 C 
BRANCH   8   9
ATOM      9  N   UNL     1      43.817   2.342  10.770  0.00  0.00    +0.000 NA
ATOM     10  H   UNL     1      44.664   1.773  10.787  0.00  0.00    +0.000 HD
BRANCH   9  11
ATOM     11  C   UNL     1      44.003   3.389   9.761  0.00  0.00    +0.000 C 
BRANCH  11  17
ATOM     12  C   UNL     1      46.899  -0.131   7.637  0.00  0.00    +0.000 C 
ATOM     13  C   UNL     1      46.522   1.313   7.775  0.00  0.00    +0.000 A 
ATOM     14  C   UNL     1      47.178   2.309   7.045  0.00  0.00    +0.000 A 
ATOM     15  C   UNL     1      46.814   3.648   7.194  0.00  0.00    +0.000 A 
ATOM     16  C   UNL     1      45.792   4.007   8.075  0.00  0.00    +0.000 A 
ATOM     17  C   UNL     1      45.124   3.025   8.817  0.00  0.00    +0.000 A 
ATOM     18  C   UNL     1      45.493   1.680   8.651  0.00  0.00    +0.000 A 
ENDBRANCH  11  17
ENDBRANCH   9  11
ENDBRANCH   8   9
ENDBRANCH   1   8
BRANCH   4  19
ATOM     19  C   UNL     1      47.194   7.275  13.536  0.00  0.00    +0.000 C 
BRANCH  19  20
ATOM     20  N   UNL     1      47.738   7.088  14.857  0.00  0.00    +0.000 N 
ATOM     21  C   UNL     1      49.085   6.930  15.056  0.00  0.00    +0.000 C 
ATOM     22  O   UNL     1      49.890   6.980  14.131  0.00  0.00    +0.000 OA
ATOM     23  H   UNL     1      47.091   6.812  15.589  0.00  0.00    +0.000 HD
BRANCH  21  24
ATOM     24  C   UNL     1      49.523   6.763  16.448  0.00  0.00    +0.000 A 
ATOM     25  C   UNL     1      50.536   7.570  16.949  0.00  0.00    +0.000 A 
ATOM     26  S   UNL     1      50.888   7.286  18.593  0.00  0.00    +0.000 S 
ATOM     27  C   UNL     1      49.735   6.038  18.681  0.00  0.00    +0.000 A 
ATOM     28  N   UNL     1      49.543   5.343  19.834  0.00  0.00    +0.000 NA
ATOM     29  C   UNL     1      48.661   4.403  19.750  0.00  0.00    +0.000 A 
ATOM     30  N   UNL     1      47.949   4.101  18.617  0.00  0.00    +0.000 N 
ATOM     31  C   UNL     1      48.085   4.796  17.442  0.00  0.00    +0.000 A 
ATOM     32  O   UNL     1      47.398   4.531  16.459  0.00  0.00    +0.000 OA
ATOM     33  C   UNL     1      49.078   5.855  17.476  0.00  0.00    +0.000 A 
ATOM     34  H   UNL     1      47.265   3.357  18.622  0.00  0.00    +0.000 HD
ENDBRANCH  21  24
ENDBRANCH  19  20
ENDBRANCH   4  19
TORSDOF 7
ENDMDL
MODEL 2
REMARK VINA RESULT:    -8.576      1.554      1.846
REMARK INTER + INTRA:         -13.228
REMARK INTER:                 -12.133
REMARK INTRA:                  -1.095
REMARK UNBOUND:                -1.143
REMARK  Name = 
REMARK  8 active torsions:
REMARK  status: ('A' for Active; 'I' for Inactive)
REMARK    1  A    between atoms: C_1  and  C_2
REMARK    2  A    between atoms: C_6  and  C_7
REMARK    3  A    between atoms: C_7  and  N_8
REMARK    4  A    between atoms: N_8  and  C_9
REMARK    5  A    between atoms: C_9  and  C_10
REMARK    6  A    between atoms: C_13  and  C_14
REMARK    7  A    between atoms: C_14  and  N_15
REMARK    8  A    between atoms: C_16  and  C_18
REMARK                            x       y       z     vdW  Elec       q    Type
REMARK                         _______ _______ _______ _____ _____    ______ ____
ROOT
ATOM      1  C   UNL     1      44.530   5.807  11.750  0.00  0.00    +0.000 A 
ATOM      2  C   UNL     1      45.514   6.710  11.302  0.00  0.00    +0.000 A 
ATOM      3  C   UNL     1      46.725   6.860  11.986  0.00  0.00    +0.000 A 
ATOM      4  C   UNL     1      46.984   6.109  13.137  0.00  0.00    +0.000 A 
ATOM      5  C   UNL     1      45.999   5.228  13.602  0.00  0.00    +0.000 A 
ATOM      6  C   UNL     1      44.790   5.074  12.915  0.00  0.00    +0.000 A 
ATOM      7 CL   UNL     1      43.661   3.934  13.563  0.00  0.00    +0.000 Cl
ENDROOT
BRANCH   1   8
ATOM      8  C   UNL     1      43.253   5.660  10.949  0.00  0.00    +0.000 C 
BRANCH   8   9
ATOM      9  N   UNL     1      43.415   4.853   9.738  0.00  0.00    +0.000 NA
ATOM     10  H   UNL     1      42.497   4.695   9.323  0.00  0.00    +0.000 HD
BRANCH   9  11
ATOM     11  C   UNL     1      44.012   3.541  10.012  0.00  0.00    +0.000 C 
BRANCH  11  17
ATOM     12  C   UNL     1      46.819   0.129   7.611  0.00  0.00    +0.000 C 
ATOM     13  C   UNL     1      46.438   1.563   7.822  0.00  0.00    +0.000 A 
ATOM     14  C   UNL     1      47.048   2.591   7.097  0.00  0.00    +0.000 A 
ATOM     15  C   UNL     1      46.682   3.920   7.314  0.00  0.00    +0.000 A 
ATOM     16  C   UNL     1      45.705   4.237   8.259  0.00  0.00    +0.000 A 
ATOM     17  C   UNL     1      45.084   3.222   8.998  0.00  0.00    +0.000 A 
ATOM     18  C   UNL     1      45.454   1.888   8.764  0.00  0.00    +0.000 A 
ENDBRANCH  11  17
ENDBRANCH   9  11
ENDBRANCH   8   9
ENDBRANCH   1   8
BRANCH   4  19
ATOM     19  C   UNL     1      48.272   6.272  13.901  0.00  0.00    +0.000 C 
BRANCH  19  20
ATOM     20  N   UNL     1      48.010   6.534  15.292  0.00  0.00    +0.000 N 
ATOM     21  C   UNL     1      49.004   6.447  16.232  0.00  0.00    +0.000 C 
ATOM     22  O   UNL     1      50.164   6.183  15.930  0.00  0.00    +0.000 OA
ATOM     23  H   UNL     1      47.040   6.521  15.591  0.00  0.00    +0.000 HD
BRANCH  21  24
ATOM     24  C   UNL     1      48.620   6.753  17.617  0.00  0.00    +0.000 A 
ATOM     25  C   UNL     1      48.260   8.050  17.957  0.00  0.00    +0.000 A 
ATOM     26  S   UNL     1      47.792   8.224  19.588  0.00  0.00    +0.000 S 
ATOM     27  C   UNL     1      48.105   6.583  19.911  0.00  0.00    +0.000 A 
ATOM     28  N   UNL     1      47.928   6.070  21.157  0.00  0.00    +0.000 NA
ATOM     29  C   UNL     1      48.234   4.820  21.268  0.00  0.00    +0.000 A 
ATOM     30  N   UNL     1      48.694   4.036  20.240  0.00  0.00    +0.000 N 
ATOM     31  C   UNL     1      48.856   4.502  18.960  0.00  0.00    +0.000 A 
ATOM     32  O   UNL     1      49.225   3.762  18.052  0.00  0.00    +0.000 OA
ATOM     33  C   UNL     1      48.542   5.909  18.783  0.00  0.00    +0.000 A 
ATOM     34  H   UNL     1      48.907   3.060  20.393  0.00  0.00    +0.000 HD
ENDBRANCH  21  24
ENDBRANCH  19  20
ENDBRANCH   4  19
TORSDOF 7
ENDMDL
MODEL 3
REMARK VINA RESULT:    -8.032      2.001      2.446
REMARK INTER + INTRA:         -12.462
REMARK INTER:                 -11.286
REMARK INTRA:                  -1.176
REMARK UNBOUND:                -1.143
REMARK  Name = 
REMARK  8 active torsions:
REMARK  status: ('A' for Active; 'I' for Inactive)
REMARK    1  A    between atoms: C_1  and  C_2
REMARK    2  A    between atoms: C_6  and  C_7
REMARK    3  A    between atoms: C_7  and  N_8
REMARK    4  A    between atoms: N_8  and  C_9
REMARK    5  A    between atoms: C_9  and  C_10
REMARK    6  A    between atoms: C_13  and  C_14
REMARK    7  A    between atoms: C_14  and  N_15
REMARK    8  A    between atoms: C_16  and  C_18
REMARK                            x       y       z     vdW  Elec       q    Type
REMARK                         _______ _______ _______ _____ _____    ______ ____
ROOT
ATOM      1  C   UNL     1      44.797   5.924  11.829  0.00  0.00    +0.000 A 
ATOM      2  C   UNL     1      44.975   7.321  11.841  0.00  0.00    +0.000 A 
ATOM      3  C   UNL     1      46.030   7.911  12.545  0.00  0.00    +0.000 A 
ATOM      4  C   UNL     1      46.937   7.118  13.255  0.00  0.00    +0.000 A 
ATOM      5  C   UNL     1      46.750   5.729  13.268  0.00  0.00    +0.000 A 
ATOM      6  C   UNL     1      45.698   5.138  12.560  0.00  0.00    +0.000 A 
ATOM      7 CL   UNL     1      45.584   3.413  12.621  0.00  0.00    +0.000 Cl
ENDROOT
BRANCH   1   8
ATOM      8  C   UNL     1      43.659   5.338  11.020  0.00  0.00    +0.000 C 
BRANCH   8   9
ATOM      9  N   UNL     1      44.057   4.912   9.677  0.00  0.00    +0.000 NA
ATOM     10  H   UNL     1      43.391   5.288   9.002  0.00  0.00    +0.000 HD
BRANCH   9  11
ATOM     11  C   UNL     1      44.066   3.453   9.530  0.00  0.00    +0.000 C 
BRANCH  11  17
ATOM     12  C   UNL     1      46.899  -0.247   7.639  0.00  0.00    +0.000 C 
ATOM     13  C   UNL     1      46.579   1.215   7.720  0.00  0.00    +0.000 A 
ATOM     14  C   UNL     1      47.310   2.161   6.995  0.00  0.00    +0.000 A 
ATOM     15  C   UNL     1      46.999   3.518   7.091  0.00  0.00    +0.000 A 
ATOM     16  C   UNL     1      45.955   3.945   7.913  0.00  0.00    +0.000 A 
ATOM     17  C   UNL     1      45.211   3.014   8.649  0.00  0.00    +0.000 A 
ATOM     18  C   UNL     1      45.528   1.651   8.537  0.00  0.00    +0.000 A 
ENDBRANCH  11  17
ENDBRANCH   9  11
ENDBRANCH   8   9
ENDBRANCH   1   8
BRANCH   4  19
ATOM     19  C   UNL     1      48.066   7.735  14.038  0.00  0.00    +0.000 C 
BRANCH  19  20
ATOM     20  N   UNL     1      48.007   7.335  15.420  0.00  0.00    +0.000 N 
ATOM     21  C   UNL     1      49.072   6.728  16.031  0.00  0.00    +0.000 C 
ATOM     22  O   UNL     1      50.134   6.533  15.446  0.00  0.00    +0.000 OA
ATOM     23  H   UNL     1      47.087   7.271  15.844  0.00  0.00    +0.000 HD
BRANCH  21  24
ATOM     24  C   UNL     1      48.900   6.381  17.448  0.00  0.00    +0.000 A 
ATOM     25  C   UNL     1      49.265   5.116  17.892  0.00  0.00    +0.000 A 
ATOM     26  S   UNL     1      49.051   4.893  19.570  0.00  0.00    +0.000 S 
ATOM     27  C   UNL     1      48.416   6.460  19.754  0.00  0.00    +0.000 A 
ATOM     28  N   UNL     1      48.001   6.909  20.969  0.00  0.00    +0.000 NA
ATOM     29  C   UNL     1      47.511   8.103  20.958  0.00  0.00    +0.000 A 
ATOM     30  N   UNL     1      47.404   8.892  19.840  0.00  0.00    +0.000 N 
ATOM     31  C   UNL     1      47.839   8.495  18.601  0.00  0.00    +0.000 A 
ATOM     32  O   UNL     1      47.772   9.243  17.629  0.00  0.00    +0.000 OA
ATOM     33  C   UNL     1      48.385   7.150  18.553  0.00  0.00    +0.000 A 
ATOM     34  H   UNL     1      47.018   9.824  19.903  0.00  0.00    +0.000 HD
ENDBRANCH  21  24
ENDBRANCH  19  20
ENDBRANCH   4  19
TORSDOF 7
ENDMDL
MODEL 4
REMARK VINA RESULT:    -8.018      3.387      5.181
REMARK INTER + INTRA:         -12.442
REMARK INTER:                 -11.465
REMARK INTRA:                  -0.977
REMARK UNBOUND:                -1.143
REMARK  Name = 
REMARK  8 active torsions:
REMARK  status: ('A' for Active; 'I' for Inactive)
REMARK    1  A    between atoms: C_1  and  C_2
REMARK    2  A    between atoms: C_6  and  C_7
REMARK    3  A    between atoms: C_7  and  N_8
REMARK    4  A    between atoms: N_8  and  C_9
REMARK    5  A    between atoms: C_9  and  C_10
REMARK    6  A    between atoms: C_13  and  C_14
REMARK    7  A    between atoms: C_14  and  N_15
REMARK    8  A    between atoms: C_16  and  C_18
REMARK                            x       y       z     vdW  Elec       q    Type
REMARK                         _______ _______ _______ _____ _____    ______ ____
ROOT
ATOM      1  C   UNL     1      44.707   4.012  12.438  0.00  0.00    +0.000 A 
ATOM      2  C   UNL     1      45.873   3.461  13.004  0.00  0.00    +0.000 A 
ATOM      3  C   UNL     1      46.899   4.277  13.491  0.00  0.00    +0.000 A 
ATOM      4  C   UNL     1      46.784   5.669  13.427  0.00  0.00    +0.000 A 
ATOM      5  C   UNL     1      45.638   6.224  12.841  0.00  0.00    +0.000 A 
ATOM      6  C   UNL     1      44.610   5.408  12.359  0.00  0.00    +0.000 A 
ATOM      7 CL   UNL     1      43.227   6.203  11.688  0.00  0.00    +0.000 Cl
ENDROOT
BRANCH   1   8
ATOM      8  C   UNL     1      43.614   3.080  11.960  0.00  0.00    +0.000 C 
BRANCH   8   9
ATOM      9  N   UNL     1      43.922   2.424  10.688  0.00  0.00    +0.000 NA
ATOM     10  H   UNL     1      44.813   1.934  10.778  0.00  0.00    +0.000 HD
BRANCH   9  11
ATOM     11  C   UNL     1      44.048   3.377   9.581  0.00  0.00    +0.000 C 
BRANCH  11  17
ATOM     12  C   UNL     1      46.973  -0.183   7.565  0.00  0.00    +0.000 C 
ATOM     13  C   UNL     1      46.611   1.266   7.691  0.00  0.00    +0.000 A 
ATOM     14  C   UNL     1      47.310   2.253   6.989  0.00  0.00    +0.000 A 
ATOM     15  C   UNL     1      46.959   3.597   7.126  0.00  0.00    +0.000 A 
ATOM     16  C   UNL     1      45.910   3.970   7.967  0.00  0.00    +0.000 A 
ATOM     17  C   UNL     1      45.199   2.997   8.681  0.00  0.00    +0.000 A 
ATOM     18  C   UNL     1      45.555   1.647   8.527  0.00  0.00    +0.000 A 
ENDBRANCH  11  17
ENDBRANCH   9  11
ENDBRANCH   8   9
ENDBRANCH   1   8
BRANCH   4  19
ATOM     19  C   UNL     1      47.887   6.567  13.925  0.00  0.00    +0.000 C 
BRANCH  19  20
ATOM     20  N   UNL     1      47.746   7.895  13.388  0.00  0.00    +0.000 N 
ATOM     21  C   UNL     1      48.367   8.262  12.222  0.00  0.00    +0.000 C 
ATOM     22  O   UNL     1      49.035   7.470  11.564  0.00  0.00    +0.000 OA
ATOM     23  H   UNL     1      47.404   8.615  14.017  0.00  0.00    +0.000 HD
BRANCH  21  24
ATOM     24  C   UNL     1      48.136   9.639  11.765  0.00  0.00    +0.000 A 
ATOM     25  C   UNL     1      49.193  10.374  11.246  0.00  0.00    +0.000 A 
ATOM     26  S   UNL     1      48.747  11.931  10.713  0.00  0.00    +0.000 S 
ATOM     27  C   UNL     1      47.135  11.698  11.205  0.00  0.00    +0.000 A 
ATOM     28  N   UNL     1      46.208  12.681  11.052  0.00  0.00    +0.000 NA
ATOM     29  C   UNL     1      45.034  12.381  11.498  0.00  0.00    +0.000 A 
ATOM     30  N   UNL     1      44.702  11.182  12.077  0.00  0.00    +0.000 N 
ATOM     31  C   UNL     1      45.595  10.150  12.221  0.00  0.00    +0.000 A 
ATOM     32  O   UNL     1      45.255   9.072  12.701  0.00  0.00    +0.000 OA
ATOM     33  C   UNL     1      46.938  10.440  11.751  0.00  0.00    +0.000 A 
ATOM     34  H   UNL     1      43.760  11.007  12.397  0.00  0.00    +0.000 HD
ENDBRANCH  21  24
ENDBRANCH  19  20
ENDBRANCH   4  19
TORSDOF 7
ENDMDL
MODEL 5
REMARK VINA RESULT:    -7.616      3.351      8.619
REMARK INTER + INTRA:         -11.876
REMARK INTER:                 -10.036
REMARK INTRA:                  -1.840
REMARK UNBOUND:                -1.143
REMARK  Name = 
REMARK  8 active torsions:
REMARK  status: ('A' for Active; 'I' for Inactive)
REMARK    1  A    between atoms: C_1  and  C_2
REMARK    2  A    between atoms: C_6  and  C_7
REMARK    3  A    between atoms: C_7  and  N_8
REMARK    4  A    between atoms: N_8  and  C_9
REMARK    5  A    between atoms: C_9  and  C_10
REMARK    6  A    between atoms: C_13  and  C_14
REMARK    7  A    between atoms: C_14  and  N_15
REMARK    8  A    between atoms: C_16  and  C_18
REMARK                            x       y       z     vdW  Elec       q    Type
REMARK                         _______ _______ _______ _____ _____    ______ ____
ROOT
ATOM      1  C   UNL     1      49.013   7.864  16.429  0.00  0.00    +0.000 A 
ATOM      2  C   UNL     1      49.063   6.683  15.664  0.00  0.00    +0.000 A 
ATOM      3  C   UNL     1      48.625   6.661  14.335  0.00  0.00    +0.000 A 
ATOM      4  C   UNL     1      48.128   7.822  13.736  0.00  0.00    +0.000 A 
ATOM      5  C   UNL     1      48.052   8.995  14.500  0.00  0.00    +0.000 A 
ATOM      6  C   UNL     1      48.494   9.018  15.827  0.00  0.00    +0.000 A 
ATOM      7 CL   UNL     1      48.383  10.529  16.663  0.00  0.00    +0.000 Cl
ENDROOT
BRANCH   1   8
ATOM      8  C   UNL     1      49.534   7.838  17.851  0.00  0.00    +0.000 C 
BRANCH   8   9
ATOM      9  N   UNL     1      48.541   7.387  18.827  0.00  0.00    +0.000 NA
ATOM     10  H   UNL     1      48.434   8.105  19.543  0.00  0.00    +0.000 HD
BRANCH   9  11
ATOM     11  C   UNL     1      48.938   6.145  19.499  0.00  0.00    +0.000 C 
BRANCH  11  17
ATOM     12  C   UNL     1      50.669   2.035  17.173  0.00  0.00    +0.000 C 
ATOM     13  C   UNL     1      49.523   2.950  17.487  0.00  0.00    +0.000 A 
ATOM     14  C   UNL     1      48.243   2.712  16.978  0.00  0.00    +0.000 A 
ATOM     15  C   UNL     1      47.192   3.580  17.278  0.00  0.00    +0.000 A 
ATOM     16  C   UNL     1      47.410   4.696  18.088  0.00  0.00    +0.000 A 
ATOM     17  C   UNL     1      48.685   4.953  18.605  0.00  0.00    +0.000 A 
ATOM     18  C   UNL     1      49.732   4.068  18.304  0.00  0.00    +0.000 A 
ENDBRANCH  11  17
ENDBRANCH   9  11
ENDBRANCH   8   9
ENDBRANCH   1   8
BRANCH   4  19
ATOM     19  C   UNL     1      47.631   7.814  12.314  0.00  0.00    +0.000 C 
BRANCH  19  20
ATOM     20  N   UNL     1      46.933   6.589  12.024  0.00  0.00    +0.000 N 
ATOM     21  C   UNL     1      45.568   6.510  12.112  0.00  0.00    +0.000 C 
ATOM     22  O   UNL     1      44.877   7.482  12.402  0.00  0.00    +0.000 OA
ATOM     23  H   UNL     1      47.482   5.735  12.015  0.00  0.00    +0.000 HD
BRANCH  21  24
ATOM     24  C   UNL     1      44.966   5.212  11.777  0.00  0.00    +0.000 A 
ATOM     25  C   UNL     1      44.258   4.515  12.746  0.00  0.00    +0.000 A 
ATOM     26  S   UNL     1      43.581   3.055  12.181  0.00  0.00    +0.000 S 
ATOM     27  C   UNL     1      44.253   3.277  10.634  0.00  0.00    +0.000 A 
ATOM     28  N   UNL     1      44.070   2.355   9.652  0.00  0.00    +0.000 NA
ATOM     29  C   UNL     1      44.663   2.635   8.540  0.00  0.00    +0.000 A 
ATOM     30  N   UNL     1      45.417   3.759   8.319  0.00  0.00    +0.000 N 
ATOM     31  C   UNL     1      45.602   4.733   9.268  0.00  0.00    +0.000 A 
ATOM     32  O   UNL     1      46.243   5.751   9.024  0.00  0.00    +0.000 OA
ATOM     33  C   UNL     1      44.969   4.460  10.547  0.00  0.00    +0.000 A 
ATOM     34  H   UNL     1      45.847   3.923   7.419  0.00  0.00    +0.000 HD
ENDBRANCH  21  24
ENDBRANCH  19  20
ENDBRANCH   4  19
TORSDOF 7
ENDMDL
MODEL 6
REMARK VINA RESULT:    -7.504      3.294      4.938
REMARK INTER + INTRA:         -11.718
REMARK INTER:                 -10.165
REMARK INTRA:                  -1.554
REMARK UNBOUND:                -1.143
REMARK  Name = 
REMARK  8 active torsions:
REMARK  status: ('A' for Active; 'I' for Inactive)
REMARK    1  A    between atoms: C_1  and  C_2
REMARK    2  A    between atoms: C_6  and  C_7
REMARK    3  A    between atoms: C_7  and  N_8
REMARK    4  A    between atoms: N_8  and  C_9
REMARK    5  A    between atoms: C_9  and  C_10
REMARK    6  A    between atoms: C_13  and  C_14
REMARK    7  A    between atoms: C_14  and  N_15
REMARK    8  A    between atoms: C_16  and  C_18
REMARK                            x       y       z     vdW  Elec       q    Type
REMARK                         _______ _______ _______ _____ _____    ______ ____
ROOT
ATOM      1  C   UNL     1      47.395   5.872  13.736  0.00  0.00    +0.000 A 
ATOM      2  C   UNL     1      46.833   4.581  13.716  0.00  0.00    +0.000 A 
ATOM      3  C   UNL     1      46.913   3.737  14.829  0.00  0.00    +0.000 A 
ATOM      4  C   UNL     1      47.556   4.165  15.995  0.00  0.00    +0.000 A 
ATOM      5  C   UNL     1      48.140   5.439  16.012  0.00  0.00    +0.000 A 
ATOM      6  C   UNL     1      48.056   6.284  14.901  0.00  0.00    +0.000 A 
ATOM      7 CL   UNL     1      48.785   7.847  15.048  0.00  0.00    +0.000 Cl
ENDROOT
BRANCH   1   8
ATOM      8  C   UNL     1      47.246   6.754  12.515  0.00  0.00    +0.000 C 
BRANCH   8   9
ATOM      9  N   UNL     1      45.924   7.373  12.400  0.00  0.00    +0.000 NA
ATOM     10  H   UNL     1      45.342   7.050  13.173  0.00  0.00    +0.000 HD
BRANCH   9  11
ATOM     11  C   UNL     1      45.244   7.017  11.151  0.00  0.00    +0.000 C 
BRANCH  11  17
ATOM     12  C   UNL     1      44.703   2.343   9.376  0.00  0.00    +0.000 C 
ATOM     13  C   UNL     1      44.358   3.376  10.406  0.00  0.00    +0.000 A 
ATOM     14  C   UNL     1      43.480   3.091  11.456  0.00  0.00    +0.000 A 
ATOM     15  C   UNL     1      43.168   4.070  12.400  0.00  0.00    +0.000 A 
ATOM     16  C   UNL     1      43.730   5.344  12.306  0.00  0.00    +0.000 A 
ATOM     17  C   UNL     1      44.610   5.651  11.261  0.00  0.00    +0.000 A 
ATOM     18  C   UNL     1      44.923   4.654  10.322  0.00  0.00    +0.000 A 
ENDBRANCH  11  17
ENDBRANCH   9  11
ENDBRANCH   8   9
ENDBRANCH   1   8
BRANCH   4  19
ATOM     19  C   UNL     1      47.673   3.265  17.196  0.00  0.00    +0.000 C 
BRANCH  19  20
ATOM     20  N   UNL     1      49.050   3.118  17.592  0.00  0.00    +0.000 N 
ATOM     21  C   UNL     1      49.889   2.251  16.942  0.00  0.00    +0.000 C 
ATOM     22  O   UNL     1      49.521   1.594  15.973  0.00  0.00    +0.000 OA
ATOM     23  H   UNL     1      49.306   3.462  18.513  0.00  0.00    +0.000 HD
BRANCH  21  24
ATOM     24  C   UNL     1      51.275   2.199  17.425  0.00  0.00    +0.000 A 
ATOM     25  C   UNL     1      51.876   0.967  17.649  0.00  0.00    +0.000 A 
ATOM     26  S   UNL     1      53.500   1.081  18.156  0.00  0.00    +0.000 S 
ATOM     27  C   UNL     1      53.443   2.781  18.146  0.00  0.00    +0.000 A 
ATOM     28  N   UNL     1      54.524   3.520  18.510  0.00  0.00    +0.000 NA
ATOM     29  C   UNL     1      54.330   4.797  18.487  0.00  0.00    +0.000 A 
ATOM     30  N   UNL     1      53.153   5.401  18.126  0.00  0.00    +0.000 N 
ATOM     31  C   UNL     1      52.047   4.698  17.719  0.00  0.00    +0.000 A 
ATOM     32  O   UNL     1      51.023   5.270  17.355  0.00  0.00    +0.000 OA
ATOM     33  C   UNL     1      52.205   3.254  17.741  0.00  0.00    +0.000 A 
ATOM     34  H   UNL     1      53.071   6.408  18.120  0.00  0.00    +0.000 HD
ENDBRANCH  21  24
ENDBRANCH  19  20
ENDBRANCH   4  19
TORSDOF 7
ENDMDL
MODEL 7
REMARK VINA RESULT:    -7.393      3.652      8.206
REMARK INTER + INTRA:         -11.562
REMARK INTER:                  -9.833
REMARK INTRA:                  -1.729
REMARK UNBOUND:                -1.143
REMARK  Name = 
REMARK  8 active torsions:
REMARK  status: ('A' for Active; 'I' for Inactive)
REMARK    1  A    between atoms: C_1  and  C_2
REMARK    2  A    between atoms: C_6  and  C_7
REMARK    3  A    between atoms: C_7  and  N_8
REMARK    4  A    between atoms: N_8  and  C_9
REMARK    5  A    between atoms: C_9  and  C_10
REMARK    6  A    between atoms: C_13  and  C_14
REMARK    7  A    between atoms: C_14  and  N_15
REMARK    8  A    between atoms: C_16  and  C_18
REMARK                            x       y       z     vdW  Elec       q    Type
REMARK                         _______ _______ _______ _____ _____    ______ ____
ROOT
ATOM      1  C   UNL     1      48.987   7.614  16.574  0.00  0.00    +0.000 A 
ATOM      2  C   UNL     1      49.163   6.613  15.598  0.00  0.00    +0.000 A 
ATOM      3  C   UNL     1      48.810   6.832  14.263  0.00  0.00    +0.000 A 
ATOM      4  C   UNL     1      48.272   8.061  13.866  0.00  0.00    +0.000 A 
ATOM      5  C   UNL     1      48.070   9.052  14.837  0.00  0.00    +0.000 A 
ATOM      6  C   UNL     1      48.427   8.835  16.171  0.00  0.00    +0.000 A 
ATOM      7 CL   UNL     1      48.163  10.141  17.275  0.00  0.00    +0.000 Cl
ENDROOT
BRANCH   1   8
ATOM      8  C   UNL     1      49.421   7.334  17.997  0.00  0.00    +0.000 C 
BRANCH   8   9
ATOM      9  N   UNL     1      48.307   7.024  18.896  0.00  0.00    +0.000 NA
ATOM     10  H   UNL     1      48.269   7.734  19.628  0.00  0.00    +0.000 HD
BRANCH   9  11
ATOM     11  C   UNL     1      48.457   5.719  19.548  0.00  0.00    +0.000 C 
BRANCH  11  17
ATOM     12  C   UNL     1      50.758   1.907  17.210  0.00  0.00    +0.000 C 
ATOM     13  C   UNL     1      49.531   2.747  17.401  0.00  0.00    +0.000 A 
ATOM     14  C   UNL     1      48.367   2.510  16.665  0.00  0.00    +0.000 A 
ATOM     15  C   UNL     1      47.238   3.308  16.855  0.00  0.00    +0.000 A 
ATOM     16  C   UNL     1      47.261   4.352  17.781  0.00  0.00    +0.000 A 
ATOM     17  C   UNL     1      48.418   4.607  18.527  0.00  0.00    +0.000 A 
ATOM     18  C   UNL     1      49.544   3.792  18.334  0.00  0.00    +0.000 A 
ENDBRANCH  11  17
ENDBRANCH   9  11
ENDBRANCH   8   9
ENDBRANCH   1   8
BRANCH   4  19
ATOM     19  C   UNL     1      47.864   8.309  12.438  0.00  0.00    +0.000 C 
BRANCH  19  20
ATOM     20  N   UNL     1      47.264   7.132  11.866  0.00  0.00    +0.000 N 
ATOM     21  C   UNL     1      45.970   7.139  11.416  0.00  0.00    +0.000 C 
ATOM     22  O   UNL     1      45.278   8.153  11.442  0.00  0.00    +0.000 OA
ATOM     23  H   UNL     1      47.723   6.244  12.047  0.00  0.00    +0.000 HD
BRANCH  21  24
ATOM     24  C   UNL     1      45.473   5.883  10.838  0.00  0.00    +0.000 A 
ATOM     25  C   UNL     1      45.718   5.601   9.500  0.00  0.00    +0.000 A 
ATOM     26  S   UNL     1      45.122   4.084   9.001  0.00  0.00    +0.000 S 
ATOM     27  C   UNL     1      44.469   3.771  10.541  0.00  0.00    +0.000 A 
ATOM     28  N   UNL     1      43.788   2.621  10.792  0.00  0.00    +0.000 NA
ATOM     29  C   UNL     1      43.321   2.530  11.992  0.00  0.00    +0.000 A 
ATOM     30  N   UNL     1      43.479   3.483  12.966  0.00  0.00    +0.000 N 
ATOM     31  C   UNL     1      44.186   4.642  12.769  0.00  0.00    +0.000 A 
ATOM     32  O   UNL     1      44.350   5.454  13.676  0.00  0.00    +0.000 OA
ATOM     33  C   UNL     1      44.721   4.805  11.428  0.00  0.00    +0.000 A 
ATOM     34  H   UNL     1      43.095   3.344  13.890  0.00  0.00    +0.000 HD
ENDBRANCH  21  24
ENDBRANCH  19  20
ENDBRANCH   4  19
TORSDOF 7
ENDMDL
MODEL 8
REMARK VINA RESULT:    -7.223      1.948      2.594
REMARK INTER + INTRA:         -11.322
REMARK INTER:                 -10.771
REMARK INTRA:                  -0.552
REMARK UNBOUND:                -1.143
REMARK  Name = 
REMARK  8 active torsions:
REMARK  status: ('A' for Active; 'I' for Inactive)
REMARK    1  A    between atoms: C_1  and  C_2
REMARK    2  A    between atoms: C_6  and  C_7
REMARK    3  A    between atoms: C_7  and  N_8
REMARK    4  A    between atoms: N_8  and  C_9
REMARK    5  A    between atoms: C_9  and  C_10
REMARK    6  A    between atoms: C_13  and  C_14
REMARK    7  A    between atoms: C_14  and  N_15
REMARK    8  A    between atoms: C_16  and  C_18
REMARK                            x       y       z     vdW  Elec       q    Type
REMARK                         _______ _______ _______ _____ _____    ______ ____
ROOT
ATOM      1  C   UNL     1      44.840   5.149  11.128  0.00  0.00    +0.000 A 
ATOM      2  C   UNL     1      45.693   6.167  10.659  0.00  0.00    +0.000 A 
ATOM      3  C   UNL     1      46.571   6.832  11.521  0.00  0.00    +0.000 A 
ATOM      4  C   UNL     1      46.622   6.493  12.876  0.00  0.00    +0.000 A 
ATOM      5  C   UNL     1      45.757   5.499  13.355  0.00  0.00    +0.000 A 
ATOM      6  C   UNL     1      44.882   4.831  12.492  0.00  0.00    +0.000 A 
ATOM      7 CL   UNL     1      43.886   3.598  13.186  0.00  0.00    +0.000 Cl
ENDROOT
BRANCH   1   8
ATOM      8  C   UNL     1      43.936   4.440  10.141  0.00  0.00    +0.000 C 
BRANCH   8   9
ATOM      9  N   UNL     1      44.636   3.458   9.311  0.00  0.00    +0.000 NA
ATOM     10  H   UNL     1      45.308   2.956   9.891  0.00  0.00    +0.000 HD
BRANCH   9  11
ATOM     11  C   UNL     1      45.377   4.082   8.209  0.00  0.00    +0.000 C 
BRANCH  11  17
ATOM     12  C   UNL     1      46.931  -0.674   7.699  0.00  0.00    +0.000 C 
ATOM     13  C   UNL     1      46.878   0.726   7.167  0.00  0.00    +0.000 A 
ATOM     14  C   UNL     1      47.503   1.071   5.964  0.00  0.00    +0.000 A 
ATOM     15  C   UNL     1      47.446   2.383   5.491  0.00  0.00    +0.000 A 
ATOM     16  C   UNL     1      46.765   3.364   6.214  0.00  0.00    +0.000 A 
ATOM     17  C   UNL     1      46.135   3.040   7.421  0.00  0.00    +0.000 A 
ATOM     18  C   UNL     1      46.192   1.715   7.883  0.00  0.00    +0.000 A 
ENDBRANCH  11  17
ENDBRANCH   9  11
ENDBRANCH   8   9
ENDBRANCH   1   8
BRANCH   4  19
ATOM     19  C   UNL     1      47.544   7.211  13.826  0.00  0.00    +0.000 C 
BRANCH  19  20
ATOM     20  N   UNL     1      48.076   6.301  14.807  0.00  0.00    +0.000 N 
ATOM     21  C   UNL     1      48.818   6.752  15.868  0.00  0.00    +0.000 C 
ATOM     22  O   UNL     1      49.030   7.947  16.052  0.00  0.00    +0.000 OA
ATOM     23  H   UNL     1      48.115   5.319  14.554  0.00  0.00    +0.000 HD
BRANCH  21  24
ATOM     24  C   UNL     1      49.293   5.732  16.812  0.00  0.00    +0.000 A 
ATOM     25  C   UNL     1      48.371   4.947  17.493  0.00  0.00    +0.000 A 
ATOM     26  S   UNL     1      49.086   3.778  18.508  0.00  0.00    +0.000 S 
ATOM     27  C   UNL     1      50.652   4.312  18.114  0.00  0.00    +0.000 A 
ATOM     28  N   UNL     1      51.749   3.736  18.673  0.00  0.00    +0.000 NA
ATOM     29  C   UNL     1      52.872   4.261  18.309  0.00  0.00    +0.000 A 
ATOM     30  N   UNL     1      52.995   5.309  17.432  0.00  0.00    +0.000 N 
ATOM     31  C   UNL     1      51.919   5.900  16.819  0.00  0.00    +0.000 A 
ATOM     32  O   UNL     1      52.066   6.804  16.001  0.00  0.00    +0.000 OA
ATOM     33  C   UNL     1      50.628   5.357  17.205  0.00  0.00    +0.000 A 
ATOM     34  H   UNL     1      53.906   5.667  17.182  0.00  0.00    +0.000 HD
ENDBRANCH  21  24
ENDBRANCH  19  20
ENDBRANCH   4  19
TORSDOF 7
ENDMDL
MODEL 9
REMARK VINA RESULT:    -6.976      4.297      6.780
REMARK INTER + INTRA:         -10.973
REMARK INTER:                  -9.942
REMARK INTRA:                  -1.032
REMARK UNBOUND:                -1.143
REMARK  Name = 
REMARK  8 active torsions:
REMARK  status: ('A' for Active; 'I' for Inactive)
REMARK    1  A    between atoms: C_1  and  C_2
REMARK    2  A    between atoms: C_6  and  C_7
REMARK    3  A    between atoms: C_7  and  N_8
REMARK    4  A    between atoms: N_8  and  C_9
REMARK    5  A    between atoms: C_9  and  C_10
REMARK    6  A    between atoms: C_13  and  C_14
REMARK    7  A    between atoms: C_14  and  N_15
REMARK    8  A    between atoms: C_16  and  C_18
REMARK                            x       y       z     vdW  Elec       q    Type
REMARK                         _______ _______ _______ _____ _____    ______ ____
ROOT
ATOM      1  C   UNL     1      44.512   8.064  11.496  0.00  0.00    +0.000 A 
ATOM      2  C   UNL     1      43.805   6.849  11.407  0.00  0.00    +0.000 A 
ATOM      3  C   UNL     1      44.255   5.698  12.064  0.00  0.00    +0.000 A 
ATOM      4  C   UNL     1      45.425   5.734  12.829  0.00  0.00    +0.000 A 
ATOM      5  C   UNL     1      46.147   6.933  12.900  0.00  0.00    +0.000 A 
ATOM      6  C   UNL     1      45.695   8.085  12.248  0.00  0.00    +0.000 A 
ATOM      7 CL   UNL     1      46.649   9.516  12.433  0.00  0.00    +0.000 Cl
ENDROOT
BRANCH   1   8
ATOM      8  C   UNL     1      43.959   9.286  10.793  0.00  0.00    +0.000 C 
BRANCH   8   9
ATOM      9  N   UNL     1      42.506   9.420  10.915  0.00  0.00    +0.000 NA
ATOM     10  H   UNL     1      42.063   8.901  10.156  0.00  0.00    +0.000 HD
BRANCH   9  11
ATOM     11  C   UNL     1      42.060  10.814  10.821  0.00  0.00    +0.000 C 
BRANCH  11  17
ATOM     12  C   UNL     1      37.266   9.456  11.501  0.00  0.00    +0.000 C 
ATOM     13  C   UNL     1      38.421  10.333  11.880  0.00  0.00    +0.000 A 
ATOM     14  C   UNL     1      38.300  11.300  12.882  0.00  0.00    +0.000 A 
ATOM     15  C   UNL     1      39.387  12.111  13.214  0.00  0.00    +0.000 A 
ATOM     16  C   UNL     1      40.605  11.964  12.549  0.00  0.00    +0.000 A 
ATOM     17  C   UNL     1      40.746  11.002  11.541  0.00  0.00    +0.000 A 
ATOM     18  C   UNL     1      39.648  10.187  11.221  0.00  0.00    +0.000 A 
ENDBRANCH  11  17
ENDBRANCH   9  11
ENDBRANCH   8   9
ENDBRANCH   1   8
BRANCH   4  19
ATOM     19  C   UNL     1      45.939   4.502  13.526  0.00  0.00    +0.000 C 
BRANCH  19  20
ATOM     20  N   UNL     1      46.594   4.849  14.761  0.00  0.00    +0.000 N 
ATOM     21  C   UNL     1      47.438   3.972  15.390  0.00  0.00    +0.000 C 
ATOM     22  O   UNL     1      47.705   2.872  14.915  0.00  0.00    +0.000 OA
ATOM     23  H   UNL     1      46.215   5.635  15.280  0.00  0.00    +0.000 HD
BRANCH  21  24
ATOM     24  C   UNL     1      48.060   4.444  16.634  0.00  0.00    +0.000 A 
ATOM     25  C   UNL     1      47.803   3.776  17.824  0.00  0.00    +0.000 A 
ATOM     26  S   UNL     1      48.643   4.417  19.163  0.00  0.00    +0.000 S 
ATOM     27  C   UNL     1      49.339   5.642  18.211  0.00  0.00    +0.000 A 
ATOM     28  N   UNL     1      50.167   6.570  18.760  0.00  0.00    +0.000 NA
ATOM     29  C   UNL     1      50.598   7.460  17.929  0.00  0.00    +0.000 A 
ATOM     30  N   UNL     1      50.280   7.500  16.595  0.00  0.00    +0.000 N 
ATOM     31  C   UNL     1      49.476   6.566  15.990  0.00  0.00    +0.000 A 
ATOM     32  O   UNL     1      49.249   6.602  14.784  0.00  0.00    +0.000 OA
ATOM     33  C   UNL     1      48.950   5.549  16.884  0.00  0.00    +0.000 A 
ATOM     34  H   UNL     1      50.660   8.220  15.996  0.00  0.00    +0.000 HD
ENDBRANCH  21  24
ENDBRANCH  19  20
ENDBRANCH   4  19
TORSDOF 7
ENDMDL
