MODEL 1
REMARK VINA RESULT:    -8.601      0.000      0.000
REMARK INTER + INTRA:         -11.669
REMARK INTER:                 -10.863
REMARK INTRA:                  -0.806
REMARK UNBOUND:                -0.806
REMARK  Name = 
REMARK  6 active torsions:
REMARK  status: ('A' for Active; 'I' for Inactive)
REMARK    1  A    between atoms: C_1  and  O_2
REMARK    2  A    between atoms: O_2  and  C_3
REMARK    3  A    between atoms: C_6  and  C_7
REMARK    4  A    between atoms: C_7  and  O_8
REMARK    5  A    between atoms: N_11  and  C_12
REMARK    6  A    between atoms: C_16  and  C_17
REMARK                            x       y       z     vdW  Elec       q    Type
REMARK                         _______ _______ _______ _____ _____    ______ ____
ROOT
ATOM      1  C   UNL     1      45.098   4.006   9.527  0.00  0.00    +0.000 C 
ATOM      2  C   UNL     1      45.847   5.346   9.698  0.00  0.00    +0.000 C 
ATOM      3  C   UNL     1      45.311   6.158  10.870  0.00  0.00    +0.000 C 
ATOM      4  N   UNL     1      45.336   5.358  12.094  0.00  0.00    +0.000 N 
ATOM      5  C   UNL     1      44.528   4.135  12.022  0.00  0.00    +0.000 C 
ATOM      6  C   UNL     1      45.041   3.258  10.881  0.00  0.00    +0.000 C 
ENDROOT
BRANCH   1  10
ATOM      7  C   UNL     1      47.147   1.821   6.331  0.00  0.00    +0.000 A 
ATOM      8  C   UNL     1      46.854   3.174   6.193  0.00  0.00    +0.000 A 
ATOM      9  C   UNL     1      46.168   3.854   7.208  0.00  0.00    +0.000 A 
ATOM     10  C   UNL     1      45.757   3.204   8.389  0.00  0.00    +0.000 A 
ATOM     11  C   UNL     1      46.024   1.830   8.486  0.00  0.00    +0.000 A 
ATOM     12  C   UNL     1      46.717   1.153   7.474  0.00  0.00    +0.000 A 
BRANCH   7  14
ATOM     13  C   UNL     1      47.081   0.454   4.389  0.00  0.00    +0.000 C 
ATOM     14  O   UNL     1      47.835   1.047   5.439  0.00  0.00    +0.000 OA
ENDBRANCH   7  14
ENDBRANCH   1  10
BRANCH   4  15
ATOM     15  C   UNL     1      46.274   5.550  13.093  0.00  0.00    +0.000 A 
ATOM     16  C   UNL     1      47.099   6.678  13.093  0.00  0.00    +0.000 A 
ATOM     17  C   UNL     1      48.067   6.829  14.076  0.00  0.00    +0.000 A 
ATOM     18  N   UNL     1      48.272   5.948  15.070  0.00  0.00    +0.000 NA
ATOM     19  C   UNL     1      47.479   4.842  15.087  0.00  0.00    +0.000 A 
ATOM     20  C   UNL     1      46.487   4.624  14.122  0.00  0.00    +0.000 A 
BRANCH  19  21
ATOM     21  C   UNL     1      47.668   3.802  16.182  0.00  0.00    +0.000 C 
ATOM     22  F   UNL     1      46.585   3.630  16.993  0.00  0.00    +0.000 F 
ATOM     23  F   UNL     1      47.956   2.564  15.682  0.00  0.00    +0.000 F 
ATOM     24  F   UNL     1      48.708   4.105  17.015  0.00  0.00    +0.000 F 
ENDBRANCH  19  21
ENDBRANCH   4  15
BRANCH   1  25
ATOM     25  O   UNL     1      43.740   4.305   9.161  0.00  0.00    +0.000 OA
ATOM     26  H   UNL     1      43.573   5.250   9.310  0.00  0.00    +0.000 HD
ENDBRANCH   1  25
TORSDOF 5
ENDMDL
MODEL 2
REMARK VINA RESULT:    -8.203      1.862      2.621
REMARK INTER + INTRA:         -11.167
REMARK INTER:                 -10.371
REMARK INTRA:                  -0.797
REMARK UNBOUND:                -0.806
REMARK  Name = 
REMARK  6 active torsions:
REMARK  status: ('A' for Active; 'I' for Inactive)
REMARK    1  A    between atoms: C_1  and  O_2
REMARK    2  A    between atoms: O_2  and  C_3
REMARK    3  A    between atoms: C_6  and  C_7
REMARK    4  A    between atoms: C_7  and  O_8
REMARK    5  A    between atoms: N_11  and  C_12
REMARK    6  A    between atoms: C_16  and  C_17
REMARK                            x       y       z     vdW  Elec       q    Type
REMARK                         _______ _______ _______ _____ _____    ______ ____
ROOT
ATOM      1  C   UNL     1      45.290   3.771   8.877  0.00  0.00    +0.000 C 
ATOM      2  C   UNL     1      46.073   5.071   9.166  0.00  0.00    +0.000 C 
ATOM      3  C   UNL     1      45.456   5.871  10.307  0.00  0.00    +0.000 C 
ATOM      4  N   UNL     1      45.327   5.034  11.500  0.00  0.00    +0.000 N 
ATOM      5  C   UNL     1      44.481   3.850  11.307  0.00  0.00    +0.000 C 
ATOM      6  C   UNL     1      45.068   2.986  10.193  0.00  0.00    +0.000 C 
ENDROOT
BRANCH   1  10
ATOM      7  C   UNL     1      47.216   1.390   5.744  0.00  0.00    +0.000 A 
ATOM      8  C   UNL     1      46.986   0.852   7.006  0.00  0.00    +0.000 A 
ATOM      9  C   UNL     1      46.400   1.635   8.010  0.00  0.00    +0.000 A 
ATOM     10  C   UNL     1      46.026   2.974   7.782  0.00  0.00    +0.000 A 
ATOM     11  C   UNL     1      46.308   3.509   6.516  0.00  0.00    +0.000 A 
ATOM     12  C   UNL     1      46.886   2.723   5.511  0.00  0.00    +0.000 A 
BRANCH   7  14
ATOM     13  C   UNL     1      46.867   0.459   3.587  0.00  0.00    +0.000 C 
ATOM     14  O   UNL     1      47.747   0.734   4.669  0.00  0.00    +0.000 OA
ENDBRANCH   7  14
ENDBRANCH   1  10
BRANCH   4  15
ATOM     15  C   UNL     1      46.168   5.154  12.592  0.00  0.00    +0.000 A 
ATOM     16  C   UNL     1      46.020   4.322  13.704  0.00  0.00    +0.000 A 
ATOM     17  C   UNL     1      46.843   4.489  14.809  0.00  0.00    +0.000 A 
ATOM     18  N   UNL     1      47.812   5.416  14.890  0.00  0.00    +0.000 NA
ATOM     19  C   UNL     1      47.972   6.238  13.817  0.00  0.00    +0.000 A 
ATOM     20  C   UNL     1      47.172   6.127  12.672  0.00  0.00    +0.000 A 
BRANCH  19  21
ATOM     21  C   UNL     1      49.046   7.314  13.851  0.00  0.00    +0.000 C 
ATOM     22  F   UNL     1      49.657   7.544  12.653  0.00  0.00    +0.000 F 
ATOM     23  F   UNL     1      48.560   8.525  14.256  0.00  0.00    +0.000 F 
ATOM     24  F   UNL     1      50.053   7.019  14.726  0.00  0.00    +0.000 F 
ENDBRANCH  19  21
ENDBRANCH   4  15
BRANCH   1  25
ATOM     25  O   UNL     1      43.989   4.140   8.390  0.00  0.00    +0.000 OA
ATOM     26  H   UNL     1      43.399   4.294   9.146  0.00  0.00    +0.000 HD
ENDBRANCH   1  25
TORSDOF 5
ENDMDL
MODEL 3
REMARK VINA RESULT:    -7.430      3.852      4.394
REMARK INTER + INTRA:         -10.191
REMARK INTER:                  -9.391
REMARK INTRA:                  -0.800
REMARK UNBOUND:                -0.806
REMARK  Name = 
REMARK  6 active torsions:
REMARK  status: ('A' for Active; 'I' for Inactive)
REMARK    1  A    between atoms: C_1  and  O_2
REMARK    2  A    between atoms: O_2  and  C_3
REMARK    3  A    between atoms: C_6  and  C_7
REMARK    4  A    between atoms: C_7  and  O_8
REMARK    5  A    between atoms: N_11  and  C_12
REMARK    6  A    between atoms: C_16  and  C_17
REMARK                            x       y       z     vdW  Elec       q    Type
REMARK                         _______ _______ _______ _____ _____    ______ ____
ROOT
ATOM      1  C   UNL     1      44.879   3.115   9.744  0.00  0.00    +0.000 C 
ATOM      2  C   UNL     1      44.131   4.412   9.366  0.00  0.00    +0.000 C 
ATOM      3  C   UNL     1      43.433   5.042  10.564  0.00  0.00    +0.000 C 
ATOM      4  N   UNL     1      44.388   5.259  11.651  0.00  0.00    +0.000 N 
ATOM      5  C   UNL     1      45.030   4.031  12.133  0.00  0.00    +0.000 C 
ATOM      6  C   UNL     1      45.779   3.367  10.979  0.00  0.00    +0.000 C 
ENDROOT
BRANCH   1  10
ATOM      7  C   UNL     1      47.190   1.743   6.284  0.00  0.00    +0.000 A 
ATOM      8  C   UNL     1      46.703   3.045   6.344  0.00  0.00    +0.000 A 
ATOM      9  C   UNL     1      45.937   3.462   7.440  0.00  0.00    +0.000 A 
ATOM     10  C   UNL     1      45.636   2.592   8.508  0.00  0.00    +0.000 A 
ATOM     11  C   UNL     1      46.100   1.272   8.405  0.00  0.00    +0.000 A 
ATOM     12  C   UNL     1      46.873   0.859   7.312  0.00  0.00    +0.000 A 
BRANCH   7  14
ATOM     13  C   UNL     1      47.304   0.709   4.149  0.00  0.00    +0.000 C 
ATOM     14  O   UNL     1      47.973   1.216   5.296  0.00  0.00    +0.000 OA
ENDBRANCH   7  14
ENDBRANCH   1  10
BRANCH   4  15
ATOM     15  C   UNL     1      44.885   6.511  11.969  0.00  0.00    +0.000 A 
ATOM     16  C   UNL     1      45.917   6.655  12.900  0.00  0.00    +0.000 A 
ATOM     17  C   UNL     1      46.370   7.921  13.242  0.00  0.00    +0.000 A 
ATOM     18  N   UNL     1      45.883   9.060  12.721  0.00  0.00    +0.000 NA
ATOM     19  C   UNL     1      44.877   8.941  11.812  0.00  0.00    +0.000 A 
ATOM     20  C   UNL     1      44.368   7.694  11.426  0.00  0.00    +0.000 A 
BRANCH  19  21
ATOM     21  C   UNL     1      44.276  10.193  11.191  0.00  0.00    +0.000 C 
ATOM     22  F   UNL     1      43.104  10.600  11.756  0.00  0.00    +0.000 F 
ATOM     23  F   UNL     1      45.116  11.268  11.267  0.00  0.00    +0.000 F 
ATOM     24  F   UNL     1      44.009  10.038   9.860  0.00  0.00    +0.000 F 
ENDBRANCH  19  21
ENDBRANCH   4  15
BRANCH   1  25
ATOM     25  O   UNL     1      43.899   2.140  10.137  0.00  0.00    +0.000 OA
ATOM     26  H   UNL     1      43.589   1.667   9.348  0.00  0.00    +0.000 HD
ENDBRANCH   1  25
TORSDOF 5
ENDMDL
MODEL 4
REMARK VINA RESULT:    -6.968      4.579      7.280
REMARK INTER + INTRA:          -9.606
REMARK INTER:                  -8.763
REMARK INTRA:                  -0.843
REMARK UNBOUND:                -0.806
REMARK  Name = 
REMARK  6 active torsions:
REMARK  status: ('A' for Active; 'I' for Inactive)
REMARK    1  A    between atoms: C_1  and  O_2
REMARK    2  A    between atoms: O_2  and  C_3
REMARK    3  A    between atoms: C_6  and  C_7
REMARK    4  A    between atoms: C_7  and  O_8
REMARK    5  A    between atoms: N_11  and  C_12
REMARK    6  A    between atoms: C_16  and  C_17
REMARK                            x       y       z     vdW  Elec       q    Type
REMARK                         _______ _______ _______ _____ _____    ______ ____
ROOT
ATOM      1  C   UNL     1      47.261   7.721  12.803  0.00  0.00    +0.000 C 
ATOM      2  C   UNL     1      47.570   6.234  13.084  0.00  0.00    +0.000 C 
ATOM      3  C   UNL     1      46.368   5.498  13.662  0.00  0.00    +0.000 C 
ATOM      4  N   UNL     1      45.207   5.658  12.786  0.00  0.00    +0.000 N 
ATOM      5  C   UNL     1      44.796   7.053  12.593  0.00  0.00    +0.000 C 
ATOM      6  C   UNL     1      45.953   7.841  11.983  0.00  0.00    +0.000 C 
ENDROOT
BRANCH   1  10
ATOM      7  C   UNL     1      50.782   9.674  11.077  0.00  0.00    +0.000 A 
ATOM      8  C   UNL     1      49.614  10.391  11.309  0.00  0.00    +0.000 A 
ATOM      9  C   UNL     1      48.483   9.748  11.830  0.00  0.00    +0.000 A 
ATOM     10  C   UNL     1      48.488   8.372  12.135  0.00  0.00    +0.000 A 
ATOM     11  C   UNL     1      49.663   7.660  11.851  0.00  0.00    +0.000 A 
ATOM     12  C   UNL     1      50.795   8.306  11.339  0.00  0.00    +0.000 A 
BRANCH   7  14
ATOM     13  C   UNL     1      52.777   9.299   9.843  0.00  0.00    +0.000 C 
ATOM     14  O   UNL     1      51.962  10.178  10.606  0.00  0.00    +0.000 OA
ENDBRANCH   7  14
ENDBRANCH   1  10
BRANCH   4  15
ATOM     15  C   UNL     1      44.748   4.646  11.961  0.00  0.00    +0.000 A 
ATOM     16  C   UNL     1      43.781   3.742  12.409  0.00  0.00    +0.000 A 
ATOM     17  C   UNL     1      43.367   2.705  11.585  0.00  0.00    +0.000 A 
ATOM     18  N   UNL     1      43.833   2.502  10.342  0.00  0.00    +0.000 NA
ATOM     19  C   UNL     1      44.776   3.372   9.887  0.00  0.00    +0.000 A 
ATOM     20  C   UNL     1      45.243   4.437  10.668  0.00  0.00    +0.000 A 
BRANCH  19  21
ATOM     21  C   UNL     1      45.350   3.191   8.489  0.00  0.00    +0.000 C 
ATOM     22  F   UNL     1      46.194   4.185   8.090  0.00  0.00    +0.000 F 
ATOM     23  F   UNL     1      46.060   2.030   8.363  0.00  0.00    +0.000 F 
ATOM     24  F   UNL     1      44.378   3.125   7.531  0.00  0.00    +0.000 F 
ENDBRANCH  19  21
ENDBRANCH   4  15
BRANCH   1  25
ATOM     25  O   UNL     1      47.020   8.367  14.065  0.00  0.00    +0.000 OA
ATOM     26  H   UNL     1      46.277   8.985  13.967  0.00  0.00    +0.000 HD
ENDBRANCH   1  25
TORSDOF 5
ENDMDL
MODEL 5
REMARK VINA RESULT:    -6.362      5.303      8.873
REMARK INTER + INTRA:          -8.841
REMARK INTER:                  -8.064
REMARK INTRA:                  -0.777
REMARK UNBOUND:                -0.806
REMARK  Name = 
REMARK  6 active torsions:
REMARK  status: ('A' for Active; 'I' for Inactive)
REMARK    1  A    between atoms: C_1  and  O_2
REMARK    2  A    between atoms: O_2  and  C_3
REMARK    3  A    between atoms: C_6  and  C_7
REMARK    4  A    between atoms: C_7  and  O_8
REMARK    5  A    between atoms: N_11  and  C_12
REMARK    6  A    between atoms: C_16  and  C_17
REMARK                            x       y       z     vdW  Elec       q    Type
REMARK                         _______ _______ _______ _____ _____    ______ ____
ROOT
ATOM      1  C   UNL     1      49.734   3.573  17.711  0.00  0.00    +0.000 C 
ATOM      2  C   UNL     1      48.757   2.792  16.804  0.00  0.00    +0.000 C 
ATOM      3  C   UNL     1      47.429   3.517  16.633  0.00  0.00    +0.000 C 
ATOM      4  N   UNL     1      47.654   4.879  16.148  0.00  0.00    +0.000 N 
ATOM      5  C   UNL     1      48.472   5.702  17.047  0.00  0.00    +0.000 C 
ATOM      6  C   UNL     1      49.837   5.042  17.233  0.00  0.00    +0.000 C 
ENDROOT
BRANCH   1  10
ATOM      7  C   UNL     1      53.554   1.456  18.047  0.00  0.00    +0.000 A 
ATOM      8  C   UNL     1      53.453   2.800  18.392  0.00  0.00    +0.000 A 
ATOM      9  C   UNL     1      52.234   3.475  18.248  0.00  0.00    +0.000 A 
ATOM     10  C   UNL     1      51.082   2.828  17.758  0.00  0.00    +0.000 A 
ATOM     11  C   UNL     1      51.219   1.485  17.375  0.00  0.00    +0.000 A 
ATOM     12  C   UNL     1      52.436   0.809  17.528  0.00  0.00    +0.000 A 
BRANCH   7  14
ATOM     13  C   UNL     1      54.455  -0.700  18.473  0.00  0.00    +0.000 C 
ATOM     14  O   UNL     1      54.667   0.671  18.167  0.00  0.00    +0.000 OA
ENDBRANCH   7  14
ENDBRANCH   1  10
BRANCH   4  15
ATOM     15  C   UNL     1      47.409   5.257  14.840  0.00  0.00    +0.000 A 
ATOM     16  C   UNL     1      48.081   6.342  14.271  0.00  0.00    +0.000 A 
ATOM     17  C   UNL     1      47.788   6.735  12.973  0.00  0.00    +0.000 A 
ATOM     18  N   UNL     1      46.883   6.125  12.189  0.00  0.00    +0.000 NA
ATOM     19  C   UNL     1      46.217   5.066  12.725  0.00  0.00    +0.000 A 
ATOM     20  C   UNL     1      46.460   4.620  14.031  0.00  0.00    +0.000 A 
BRANCH  19  21
ATOM     21  C   UNL     1      45.174   4.337  11.892  0.00  0.00    +0.000 C 
ATOM     22  F   UNL     1      45.093   4.752  10.595  0.00  0.00    +0.000 F 
ATOM     23  F   UNL     1      45.398   2.990  11.835  0.00  0.00    +0.000 F 
ATOM     24  F   UNL     1      43.913   4.471  12.401  0.00  0.00    +0.000 F 
ENDBRANCH  19  21
ENDBRANCH   4  15
BRANCH   1  25
ATOM     25  O   UNL     1      49.173   3.607  19.034  0.00  0.00    +0.000 OA
ATOM     26  H   UNL     1      48.691   4.441  19.153  0.00  0.00    +0.000 HD
ENDBRANCH   1  25
TORSDOF 5
ENDMDL
MODEL 6
REMARK VINA RESULT:    -6.008      4.445      5.751
REMARK INTER + INTRA:          -8.394
REMARK INTER:                  -7.586
REMARK INTRA:                  -0.809
REMARK UNBOUND:                -0.806
REMARK  Name = 
REMARK  6 active torsions:
REMARK  status: ('A' for Active; 'I' for Inactive)
REMARK    1  A    between atoms: C_1  and  O_2
REMARK    2  A    between atoms: O_2  and  C_3
REMARK    3  A    between atoms: C_6  and  C_7
REMARK    4  A    between atoms: C_7  and  O_8
REMARK    5  A    between atoms: N_11  and  C_12
REMARK    6  A    between atoms: C_16  and  C_17
REMARK                            x       y       z     vdW  Elec       q    Type
REMARK                         _______ _______ _______ _____ _____    ______ ____
ROOT
ATOM      1  C   UNL     1      45.263   6.614  12.181  0.00  0.00    +0.000 C 
ATOM      2  C   UNL     1      44.878   7.906  11.427  0.00  0.00    +0.000 C 
ATOM      3  C   UNL     1      45.187   9.158  12.239  0.00  0.00    +0.000 C 
ATOM      4  N   UNL     1      46.592   9.162  12.647  0.00  0.00    +0.000 N 
ATOM      5  C   UNL     1      46.973   8.014  13.479  0.00  0.00    +0.000 C 
ATOM      6  C   UNL     1      46.716   6.723  12.704  0.00  0.00    +0.000 C 
ENDROOT
BRANCH   1  10
ATOM      7  C   UNL     1      44.747   3.135   9.570  0.00  0.00    +0.000 A 
ATOM      8  C   UNL     1      45.313   4.310   9.086  0.00  0.00    +0.000 A 
ATOM      9  C   UNL     1      45.442   5.427   9.922  0.00  0.00    +0.000 A 
ATOM     10  C   UNL     1      45.011   5.402  11.264  0.00  0.00    +0.000 A 
ATOM     11  C   UNL     1      44.402   4.222  11.716  0.00  0.00    +0.000 A 
ATOM     12  C   UNL     1      44.282   3.103  10.882  0.00  0.00    +0.000 A 
BRANCH   7  14
ATOM     13  C   UNL     1      45.771   1.363   8.363  0.00  0.00    +0.000 C 
ATOM     14  O   UNL     1      44.591   1.966   8.878  0.00  0.00    +0.000 OA
ENDBRANCH   7  14
ENDBRANCH   1  10
BRANCH   4  15
ATOM     15  C   UNL     1      47.542   9.971  12.049  0.00  0.00    +0.000 A 
ATOM     16  C   UNL     1      47.213  11.258  11.613  0.00  0.00    +0.000 A 
ATOM     17  C   UNL     1      48.167  12.037  10.974  0.00  0.00    +0.000 A 
ATOM     18  N   UNL     1      49.429  11.640  10.742  0.00  0.00    +0.000 NA
ATOM     19  C   UNL     1      49.769  10.390  11.158  0.00  0.00    +0.000 A 
ATOM     20  C   UNL     1      48.854   9.549  11.805  0.00  0.00    +0.000 A 
BRANCH  19  21
ATOM     21  C   UNL     1      51.181   9.878  10.918  0.00  0.00    +0.000 C 
ATOM     22  F   UNL     1      51.753  10.314   9.759  0.00  0.00    +0.000 F 
ATOM     23  F   UNL     1      52.044  10.239  11.914  0.00  0.00    +0.000 F 
ATOM     24  F   UNL     1      51.240   8.513  10.867  0.00  0.00    +0.000 F 
ENDBRANCH  19  21
ENDBRANCH   4  15
BRANCH   1  25
ATOM     25  O   UNL     1      44.414   6.509  13.336  0.00  0.00    +0.000 OA
ATOM     26  H   UNL     1      44.189   5.575  13.480  0.00  0.00    +0.000 HD
ENDBRANCH   1  25
TORSDOF 5
ENDMDL
MODEL 7
REMARK VINA RESULT:    -5.888      5.511      9.562
REMARK INTER + INTRA:          -8.242
REMARK INTER:                  -7.432
REMARK INTRA:                  -0.811
REMARK UNBOUND:                -0.806
REMARK  Name = 
REMARK  6 active torsions:
REMARK  status: ('A' for Active; 'I' for Inactive)
REMARK    1  A    between atoms: C_1  and  O_2
REMARK    2  A    between atoms: O_2  and  C_3
REMARK    3  A    between atoms: C_6  and  C_7
REMARK    4  A    between atoms: C_7  and  O_8
REMARK    5  A    between atoms: N_11  and  C_12
REMARK    6  A    between atoms: C_16  and  C_17
REMARK                            x       y       z     vdW  Elec       q    Type
REMARK                         _______ _______ _______ _____ _____    ______ ____
ROOT
ATOM      1  C   UNL     1      48.429   5.756  16.703  0.00  0.00    +0.000 C 
ATOM      2  C   UNL     1      48.544   6.954  15.735  0.00  0.00    +0.000 C 
ATOM      3  C   UNL     1      48.655   6.509  14.282  0.00  0.00    +0.000 C 
ATOM      4  N   UNL     1      47.537   5.632  13.935  0.00  0.00    +0.000 N 
ATOM      5  C   UNL     1      47.464   4.411  14.746  0.00  0.00    +0.000 C 
ATOM      6  C   UNL     1      47.318   4.792  16.219  0.00  0.00    +0.000 C 
ENDROOT
BRANCH   1  10
ATOM      7  C   UNL     1      47.703   7.384  20.705  0.00  0.00    +0.000 A 
ATOM      8  C   UNL     1      48.318   8.155  19.724  0.00  0.00    +0.000 A 
ATOM      9  C   UNL     1      48.575   7.612  18.459  0.00  0.00    +0.000 A 
ATOM     10  C   UNL     1      48.225   6.285  18.136  0.00  0.00    +0.000 A 
ATOM     11  C   UNL     1      47.646   5.513  19.155  0.00  0.00    +0.000 A 
ATOM     12  C   UNL     1      47.382   6.060  20.416  0.00  0.00    +0.000 A 
BRANCH   7  14
ATOM     13  C   UNL     1      46.839   9.109  22.091  0.00  0.00    +0.000 C 
ATOM     14  O   UNL     1      47.365   7.794  21.964  0.00  0.00    +0.000 OA
ENDBRANCH   7  14
ENDBRANCH   1  10
BRANCH   4  15
ATOM     15  C   UNL     1      46.471   6.052  13.159  0.00  0.00    +0.000 A 
ATOM     16  C   UNL     1      46.535   7.250  12.443  0.00  0.00    +0.000 A 
ATOM     17  C   UNL     1      45.438   7.678  11.708  0.00  0.00    +0.000 A 
ATOM     18  N   UNL     1      44.282   7.000  11.621  0.00  0.00    +0.000 NA
ATOM     19  C   UNL     1      44.199   5.830  12.312  0.00  0.00    +0.000 A 
ATOM     20  C   UNL     1      45.266   5.343  13.078  0.00  0.00    +0.000 A 
BRANCH  19  21
ATOM     21  C   UNL     1      42.912   5.020  12.261  0.00  0.00    +0.000 C 
ATOM     22  F   UNL     1      42.988   3.882  11.512  0.00  0.00    +0.000 F 
ATOM     23  F   UNL     1      42.497   4.620  13.500  0.00  0.00    +0.000 F 
ATOM     24  F   UNL     1      41.867   5.732  11.744  0.00  0.00    +0.000 F 
ENDBRANCH  19  21
ENDBRANCH   4  15
BRANCH   1  25
ATOM     25  O   UNL     1      49.665   5.024  16.648  0.00  0.00    +0.000 OA
ATOM     26  H   UNL     1      49.570   4.288  16.021  0.00  0.00    +0.000 HD
ENDBRANCH   1  25
TORSDOF 5
ENDMDL
MODEL 8
REMARK VINA RESULT:    -5.766      3.801      6.090
REMARK INTER + INTRA:          -8.089
REMARK INTER:                  -7.299
REMARK INTRA:                  -0.790
REMARK UNBOUND:                -0.806
REMARK  Name = 
REMARK  6 active torsions:
REMARK  status: ('A' for Active; 'I' for Inactive)
REMARK    1  A    between atoms: C_1  and  O_2
REMARK    2  A    between atoms: O_2  and  C_3
REMARK    3  A    between atoms: C_6  and  C_7
REMARK    4  A    between atoms: C_7  and  O_8
REMARK    5  A    between atoms: N_11  and  C_12
REMARK    6  A    between atoms: C_16  and  C_17
REMARK                            x       y       z     vdW  Elec       q    Type
REMARK                         _______ _______ _______ _____ _____    ______ ____
ROOT
ATOM      1  C   UNL     1      48.040   6.657  13.750  0.00  0.00    +0.000 C 
ATOM      2  C   UNL     1      48.172   5.907  15.094  0.00  0.00    +0.000 C 
ATOM      3  C   UNL     1      49.221   6.536  16.001  0.00  0.00    +0.000 C 
ATOM      4  N   UNL     1      48.937   7.958  16.195  0.00  0.00    +0.000 N 
ATOM      5  C   UNL     1      48.930   8.738  14.952  0.00  0.00    +0.000 C 
ATOM      6  C   UNL     1      47.870   8.174  14.008  0.00  0.00    +0.000 C 
ENDROOT
BRANCH   1  10
ATOM      7  C   UNL     1      44.936   4.770  11.302  0.00  0.00    +0.000 A 
ATOM      8  C   UNL     1      45.687   5.830  10.804  0.00  0.00    +0.000 A 
ATOM      9  C   UNL     1      46.654   6.448  11.609  0.00  0.00    +0.000 A 
ATOM     10  C   UNL     1      46.898   6.024  12.931  0.00  0.00    +0.000 A 
ATOM     11  C   UNL     1      46.098   4.982  13.425  0.00  0.00    +0.000 A 
ATOM     12  C   UNL     1      45.138   4.361  12.617  0.00  0.00    +0.000 A 
BRANCH   7  14
ATOM     13  C   UNL     1      44.430   2.897   9.930  0.00  0.00    +0.000 C 
ATOM     14  O   UNL     1      43.988   4.060  10.619  0.00  0.00    +0.000 OA
ENDBRANCH   7  14
ENDBRANCH   1  10
BRANCH   4  15
ATOM     15  C   UNL     1      48.404   8.460  17.369  0.00  0.00    +0.000 A 
ATOM     16  C   UNL     1      48.046   9.807  17.474  0.00  0.00    +0.000 A 
ATOM     17  C   UNL     1      47.558  10.303  18.674  0.00  0.00    +0.000 A 
ATOM     18  N   UNL     1      47.387   9.560  19.780  0.00  0.00    +0.000 NA
ATOM     19  C   UNL     1      47.731   8.245  19.699  0.00  0.00    +0.000 A 
ATOM     20  C   UNL     1      48.235   7.681  18.520  0.00  0.00    +0.000 A 
BRANCH  19  21
ATOM     21  C   UNL     1      47.569   7.352  20.920  0.00  0.00    +0.000 C 
ATOM     22  F   UNL     1      46.922   6.175  20.680  0.00  0.00    +0.000 F 
ATOM     23  F   UNL     1      48.768   7.008  21.478  0.00  0.00    +0.000 F 
ATOM     24  F   UNL     1      46.867   7.960  21.923  0.00  0.00    +0.000 F 
ENDBRANCH  19  21
ENDBRANCH   4  15
BRANCH   1  25
ATOM     25  O   UNL     1      49.274   6.494  13.032  0.00  0.00    +0.000 OA
ATOM     26  H   UNL     1      50.014   6.545  13.659  0.00  0.00    +0.000 HD
ENDBRANCH   1  25
TORSDOF 5
ENDMDL
MODEL 9
REMARK VINA RESULT:    -5.704      4.704      6.467
REMARK INTER + INTRA:          -8.010
REMARK INTER:                  -7.217
REMARK INTRA:                  -0.793
REMARK UNBOUND:                -0.806
REMARK  Name = 
REMARK  6 active torsions:
REMARK  status: ('A' for Active; 'I' for Inactive)
REMARK    1  A    between atoms: C_1  and  O_2
REMARK    2  A    between atoms: O_2  and  C_3
REMARK    3  A    between atoms: C_6  and  C_7
REMARK    4  A    between atoms: C_7  and  O_8
REMARK    5  A    between atoms: N_11  and  C_12
REMARK    6  A    between atoms: C_16  and  C_17
REMARK                            x       y       z     vdW  Elec       q    Type
REMARK                         _______ _______ _______ _____ _____    ______ ____
ROOT
ATOM      1  C   UNL     1      46.980   6.870  12.736  0.00  0.00    +0.000 C 
ATOM      2  C   UNL     1      47.548   7.811  11.650  0.00  0.00    +0.000 C 
ATOM      3  C   UNL     1      48.387   8.934  12.246  0.00  0.00    +0.000 C 
ATOM      4  N   UNL     1      49.441   8.382  13.097  0.00  0.00    +0.000 N 
ATOM      5  C   UNL     1      48.941   7.585  14.223  0.00  0.00    +0.000 C 
ATOM      6  C   UNL     1      48.115   6.417  13.686  0.00  0.00    +0.000 C 
ENDROOT
BRANCH   1  10
ATOM      7  C   UNL     1      44.678   3.620  10.912  0.00  0.00    +0.000 A 
ATOM      8  C   UNL     1      45.134   3.520  12.222  0.00  0.00    +0.000 A 
ATOM      9  C   UNL     1      45.899   4.551  12.783  0.00  0.00    +0.000 A 
ATOM     10  C   UNL     1      46.227   5.712  12.054  0.00  0.00    +0.000 A 
ATOM     11  C   UNL     1      45.794   5.770  10.720  0.00  0.00    +0.000 A 
ATOM     12  C   UNL     1      45.023   4.742  10.163  0.00  0.00    +0.000 A 
BRANCH   7  14
ATOM     13  C   UNL     1      44.488   2.051   9.139  0.00  0.00    +0.000 C 
ATOM     14  O   UNL     1      43.901   2.708  10.254  0.00  0.00    +0.000 OA
ENDBRANCH   7  14
ENDBRANCH   1  10
BRANCH   4  15
ATOM     15  C   UNL     1      50.767   8.331  12.705  0.00  0.00    +0.000 A 
ATOM     16  C   UNL     1      51.795   8.542  13.628  0.00  0.00    +0.000 A 
ATOM     17  C   UNL     1      53.117   8.534  13.207  0.00  0.00    +0.000 A 
ATOM     18  N   UNL     1      53.500   8.322  11.937  0.00  0.00    +0.000 NA
ATOM     19  C   UNL     1      52.514   8.115  11.022  0.00  0.00    +0.000 A 
ATOM     20  C   UNL     1      51.159   8.116  11.378  0.00  0.00    +0.000 A 
BRANCH  19  21
ATOM     21  C   UNL     1      52.882   7.877   9.565  0.00  0.00    +0.000 C 
ATOM     22  F   UNL     1      52.776   8.977   8.766  0.00  0.00    +0.000 F 
ATOM     23  F   UNL     1      54.166   7.434   9.416  0.00  0.00    +0.000 F 
ATOM     24  F   UNL     1      52.101   6.920   8.980  0.00  0.00    +0.000 F 
ENDBRANCH  19  21
ENDBRANCH   4  15
BRANCH   1  25
ATOM     25  O   UNL     1      46.050   7.626  13.531  0.00  0.00    +0.000 OA
ATOM     26  H   UNL     1      46.232   7.464  14.471  0.00  0.00    +0.000 HD
ENDBRANCH   1  25
TORSDOF 5
ENDMDL
