MODEL 1
REMARK VINA RESULT:    -7.285      0.000      0.000
REMARK INTER + INTRA:         -10.131
REMARK INTER:                  -8.988
REMARK INTRA:                  -1.142
REMARK UNBOUND:                -1.142
REMARK  Name = 
REMARK  4 active torsions:
REMARK  status: ('A' for Active; 'I' for Inactive)
REMARK    1  A    between atoms: C_4  and  C_5
REMARK    2  A    between atoms: C_9  and  C_10
REMARK    3  A    between atoms: C_10  and  N_11
REMARK    4  A    between atoms: N_11  and  C_12
REMARK                            x       y       z     vdW  Elec       q    Type
REMARK                         _______ _______ _______ _____ _____    ______ ____
ROOT
ATOM      1  C   UNL     1      47.194   6.541  12.442  0.00  0.00    +0.000 A 
ATOM      2  C   UNL     1      47.589   5.580  13.386  0.00  0.00    +0.000 A 
ATOM      3  C   UNL     1      46.769   4.491  13.695  0.00  0.00    +0.000 A 
ATOM      4  C   UNL     1      45.548   4.323  13.042  0.00  0.00    +0.000 A 
ATOM      5  C   UNL     1      45.109   5.240  12.077  0.00  0.00    +0.000 A 
ATOM      6  C   UNL     1      45.941   6.350  11.825  0.00  0.00    +0.000 A 
ENDROOT
BRANCH   1  10
ATOM      7  C   UNL     1      49.661   9.957  11.517  0.00  0.00    +0.000 A 
ATOM      8  C   UNL     1      48.316  10.128  11.817  0.00  0.00    +0.000 A 
ATOM      9  C   UNL     1      47.514   9.015  12.091  0.00  0.00    +0.000 A 
ATOM     10  C   UNL     1      48.040   7.707  12.095  0.00  0.00    +0.000 A 
ATOM     11  C   UNL     1      49.402   7.564  11.778  0.00  0.00    +0.000 A 
ATOM     12  C   UNL     1      50.204   8.675  11.488  0.00  0.00    +0.000 A 
ENDBRANCH   1  10
BRANCH   5  13
ATOM     13  C   UNL     1      43.806   5.055  11.301  0.00  0.00    +0.000 C 
ATOM     14  C   UNL     1      42.932   6.269  11.062  0.00  0.00    +0.000 C 
ATOM     15  C   UNL     1      42.505   5.265  12.079  0.00  0.00    +0.000 C 
BRANCH  13  16
ATOM     16  N   UNL     1      43.772   3.861  10.439  0.00  0.00    +0.000 N 
ATOM     17  H   UNL     1      43.285   3.063  10.837  0.00  0.00    +0.000 HD
BRANCH  16  18
ATOM     18  C   UNL     1      44.735   3.481   9.488  0.00  0.00    +0.000 A 
ATOM     19  C   UNL     1      45.324   4.348   8.575  0.00  0.00    +0.000 A 
ATOM     20  C   UNL     1      46.203   3.830   7.631  0.00  0.00    +0.000 A 
ATOM     21  N   UNL     1      46.508   2.519   7.513  0.00  0.00    +0.000 NA
ATOM     22  C   UNL     1      45.903   1.688   8.381  0.00  0.00    +0.000 A 
ATOM     23  C   UNL     1      45.022   2.117   9.363  0.00  0.00    +0.000 A 
ENDBRANCH  16  18
ENDBRANCH  13  16
ENDBRANCH   5  13
TORSDOF 4
ENDMDL
MODEL 2
REMARK VINA RESULT:    -7.082      2.820      6.575
REMARK INTER + INTRA:          -9.881
REMARK INTER:                  -8.787
REMARK INTRA:                  -1.094
REMARK UNBOUND:                -1.142
REMARK  Name = 
REMARK  4 active torsions:
REMARK  status: ('A' for Active; 'I' for Inactive)
REMARK    1  A    between atoms: C_4  and  C_5
REMARK    2  A    between atoms: C_9  and  C_10
REMARK    3  A    between atoms: C_10  and  N_11
REMARK    4  A    between atoms: N_11  and  C_12
REMARK                            x       y       z     vdW  Elec       q    Type
REMARK                         _______ _______ _______ _____ _____    ______ ____
ROOT
ATOM      1  C   UNL     1      44.856   4.448   9.998  0.00  0.00    +0.000 A 
ATOM      2  C   UNL     1      43.537   4.224  10.422  0.00  0.00    +0.000 A 
ATOM      3  C   UNL     1      42.952   5.017  11.413  0.00  0.00    +0.000 A 
ATOM      4  C   UNL     1      43.667   6.073  11.980  0.00  0.00    +0.000 A 
ATOM      5  C   UNL     1      44.981   6.356  11.584  0.00  0.00    +0.000 A 
ATOM      6  C   UNL     1      45.553   5.506  10.615  0.00  0.00    +0.000 A 
ENDROOT
BRANCH   1  10
ATOM      7  C   UNL     1      46.820   2.069   6.982  0.00  0.00    +0.000 A 
ATOM      8  C   UNL     1      46.784   3.452   6.866  0.00  0.00    +0.000 A 
ATOM      9  C   UNL     1      46.125   4.217   7.834  0.00  0.00    +0.000 A 
ATOM     10  C   UNL     1      45.504   3.622   8.951  0.00  0.00    +0.000 A 
ATOM     11  C   UNL     1      45.546   2.220   9.035  0.00  0.00    +0.000 A 
ATOM     12  C   UNL     1      46.193   1.450   8.060  0.00  0.00    +0.000 A 
ENDBRANCH   1  10
BRANCH   5  13
ATOM     13  C   UNL     1      45.770   7.539  12.142  0.00  0.00    +0.000 C 
ATOM     14  C   UNL     1      47.259   7.604  11.868  0.00  0.00    +0.000 C 
ATOM     15  C   UNL     1      46.796   7.230  13.235  0.00  0.00    +0.000 C 
BRANCH  13  16
ATOM     16  N   UNL     1      44.957   8.730  12.439  0.00  0.00    +0.000 N 
ATOM     17  H   UNL     1      44.290   8.612  13.196  0.00  0.00    +0.000 HD
BRANCH  16  18
ATOM     18  C   UNL     1      44.566   9.731  11.532  0.00  0.00    +0.000 A 
ATOM     19  C   UNL     1      43.481   9.629  10.668  0.00  0.00    +0.000 A 
ATOM     20  C   UNL     1      43.249  10.656   9.761  0.00  0.00    +0.000 A 
ATOM     21  N   UNL     1      44.032  11.750   9.632  0.00  0.00    +0.000 NA
ATOM     22  C   UNL     1      45.098  11.817  10.451  0.00  0.00    +0.000 A 
ATOM     23  C   UNL     1      45.400  10.846  11.395  0.00  0.00    +0.000 A 
ENDBRANCH  16  18
ENDBRANCH  13  16
ENDBRANCH   5  13
TORSDOF 4
ENDMDL
MODEL 3
REMARK VINA RESULT:    -6.930      2.520      6.435
REMARK INTER + INTRA:          -9.692
REMARK INTER:                  -8.619
REMARK INTRA:                  -1.074
REMARK UNBOUND:                -1.142
REMARK  Name = 
REMARK  4 active torsions:
REMARK  status: ('A' for Active; 'I' for Inactive)
REMARK    1  A    between atoms: C_4  and  C_5
REMARK    2  A    between atoms: C_9  and  C_10
REMARK    3  A    between atoms: C_10  and  N_11
REMARK    4  A    between atoms: N_11  and  C_12
REMARK                            x       y       z     vdW  Elec       q    Type
REMARK                         _______ _______ _______ _____ _____    ______ ____
ROOT
ATOM      1  C   UNL     1      45.003   4.581   9.976  0.00  0.00    +0.000 A 
ATOM      2  C   UNL     1      43.624   4.575  10.239  0.00  0.00    +0.000 A 
ATOM      3  C   UNL     1      43.071   5.410  11.213  0.00  0.00    +0.000 A 
ATOM      4  C   UNL     1      43.883   6.293  11.925  0.00  0.00    +0.000 A 
ATOM      5  C   UNL     1      45.264   6.357  11.693  0.00  0.00    +0.000 A 
ATOM      6  C   UNL     1      45.792   5.468  10.735  0.00  0.00    +0.000 A 
ENDROOT
BRANCH   1  10
ATOM      7  C   UNL     1      46.714   2.012   6.962  0.00  0.00    +0.000 A 
ATOM      8  C   UNL     1      46.128   1.465   8.095  0.00  0.00    +0.000 A 
ATOM      9  C   UNL     1      45.597   2.302   9.081  0.00  0.00    +0.000 A 
ATOM     10  C   UNL     1      45.619   3.706   8.950  0.00  0.00    +0.000 A 
ATOM     11  C   UNL     1      46.228   4.231   7.799  0.00  0.00    +0.000 A 
ATOM     12  C   UNL     1      46.774   3.396   6.816  0.00  0.00    +0.000 A 
ENDBRANCH   1  10
BRANCH   5  13
ATOM     13  C   UNL     1      46.173   7.354  12.412  0.00  0.00    +0.000 C 
ATOM     14  C   UNL     1      45.542   8.583  13.034  0.00  0.00    +0.000 C 
ATOM     15  C   UNL     1      46.322   8.736  11.772  0.00  0.00    +0.000 C 
BRANCH  13  16
ATOM     16  N   UNL     1      47.454   6.792  12.869  0.00  0.00    +0.000 N 
ATOM     17  H   UNL     1      48.094   6.530  12.124  0.00  0.00    +0.000 HD
BRANCH  16  18
ATOM     18  C   UNL     1      47.681   6.063  14.050  0.00  0.00    +0.000 A 
ATOM     19  C   UNL     1      47.037   4.876  14.378  0.00  0.00    +0.000 A 
ATOM     20  C   UNL     1      47.291   4.297  15.616  0.00  0.00    +0.000 A 
ATOM     21  N   UNL     1      48.107   4.827  16.553  0.00  0.00    +0.000 NA
ATOM     22  C   UNL     1      48.695   5.995  16.234  0.00  0.00    +0.000 A 
ATOM     23  C   UNL     1      48.511   6.639  15.019  0.00  0.00    +0.000 A 
ENDBRANCH  16  18
ENDBRANCH  13  16
ENDBRANCH   5  13
TORSDOF 4
ENDMDL
MODEL 4
REMARK VINA RESULT:    -6.622      1.791      3.877
REMARK INTER + INTRA:          -9.313
REMARK INTER:                  -8.607
REMARK INTRA:                  -0.706
REMARK UNBOUND:                -1.142
REMARK  Name = 
REMARK  4 active torsions:
REMARK  status: ('A' for Active; 'I' for Inactive)
REMARK    1  A    between atoms: C_4  and  C_5
REMARK    2  A    between atoms: C_9  and  C_10
REMARK    3  A    between atoms: C_10  and  N_11
REMARK    4  A    between atoms: N_11  and  C_12
REMARK                            x       y       z     vdW  Elec       q    Type
REMARK                         _______ _______ _______ _____ _____    ______ ____
ROOT
ATOM      1  C   UNL     1      47.114   5.494  13.938  0.00  0.00    +0.000 A 
ATOM      2  C   UNL     1      47.743   6.577  13.304  0.00  0.00    +0.000 A 
ATOM      3  C   UNL     1      47.271   7.072  12.085  0.00  0.00    +0.000 A 
ATOM      4  C   UNL     1      46.140   6.514  11.490  0.00  0.00    +0.000 A 
ATOM      5  C   UNL     1      45.459   5.444  12.087  0.00  0.00    +0.000 A 
ATOM      6  C   UNL     1      45.990   4.942  13.292  0.00  0.00    +0.000 A 
ENDROOT
BRANCH   1  10
ATOM      7  C   UNL     1      48.564   3.848  17.654  0.00  0.00    +0.000 A 
ATOM      8  C   UNL     1      47.741   3.093  16.830  0.00  0.00    +0.000 A 
ATOM      9  C   UNL     1      47.253   3.639  15.638  0.00  0.00    +0.000 A 
ATOM     10  C   UNL     1      47.592   4.946  15.230  0.00  0.00    +0.000 A 
ATOM     11  C   UNL     1      48.417   5.691  16.090  0.00  0.00    +0.000 A 
ATOM     12  C   UNL     1      48.895   5.151  17.291  0.00  0.00    +0.000 A 
ENDBRANCH   1  10
BRANCH   5  13
ATOM     13  C   UNL     1      44.183   4.848  11.493  0.00  0.00    +0.000 C 
ATOM     14  C   UNL     1      43.048   5.787  11.140  0.00  0.00    +0.000 C 
ATOM     15  C   UNL     1      42.920   4.929  12.353  0.00  0.00    +0.000 C 
BRANCH  13  16
ATOM     16  N   UNL     1      44.361   3.532  10.858  0.00  0.00    +0.000 N 
ATOM     17  H   UNL     1      44.430   2.752  11.507  0.00  0.00    +0.000 HD
BRANCH  16  18
ATOM     18  C   UNL     1      44.999   3.266   9.634  0.00  0.00    +0.000 A 
ATOM     19  C   UNL     1      45.340   1.996   9.183  0.00  0.00    +0.000 A 
ATOM     20  C   UNL     1      46.042   1.875   7.990  0.00  0.00    +0.000 A 
ATOM     21  N   UNL     1      46.455   2.919   7.239  0.00  0.00    +0.000 NA
ATOM     22  C   UNL     1      46.149   4.144   7.707  0.00  0.00    +0.000 A 
ATOM     23  C   UNL     1      45.440   4.360   8.880  0.00  0.00    +0.000 A 
ENDBRANCH  16  18
ENDBRANCH  13  16
ENDBRANCH   5  13
TORSDOF 4
ENDMDL
MODEL 5
REMARK VINA RESULT:    -6.232      1.796      2.568
REMARK INTER + INTRA:          -8.832
REMARK INTER:                  -7.887
REMARK INTRA:                  -0.945
REMARK UNBOUND:                -1.142
REMARK  Name = 
REMARK  4 active torsions:
REMARK  status: ('A' for Active; 'I' for Inactive)
REMARK    1  A    between atoms: C_4  and  C_5
REMARK    2  A    between atoms: C_9  and  C_10
REMARK    3  A    between atoms: C_10  and  N_11
REMARK    4  A    between atoms: N_11  and  C_12
REMARK                            x       y       z     vdW  Elec       q    Type
REMARK                         _______ _______ _______ _____ _____    ______ ____
ROOT
ATOM      1  C   UNL     1      45.911   8.204  12.225  0.00  0.00    +0.000 A 
ATOM      2  C   UNL     1      47.140   7.735  12.715  0.00  0.00    +0.000 A 
ATOM      3  C   UNL     1      47.333   6.382  13.005  0.00  0.00    +0.000 A 
ATOM      4  C   UNL     1      46.308   5.462  12.780  0.00  0.00    +0.000 A 
ATOM      5  C   UNL     1      45.067   5.869  12.273  0.00  0.00    +0.000 A 
ATOM      6  C   UNL     1      44.894   7.247  12.037  0.00  0.00    +0.000 A 
ENDROOT
BRANCH   1  10
ATOM      7  C   UNL     1      45.260  12.351  11.229  0.00  0.00    +0.000 A 
ATOM      8  C   UNL     1      46.540  11.894  11.513  0.00  0.00    +0.000 A 
ATOM      9  C   UNL     1      46.743  10.554  11.859  0.00  0.00    +0.000 A 
ATOM     10  C   UNL     1      45.676   9.634  11.910  0.00  0.00    +0.000 A 
ATOM     11  C   UNL     1      44.391  10.127  11.629  0.00  0.00    +0.000 A 
ATOM     12  C   UNL     1      44.182  11.471  11.296  0.00  0.00    +0.000 A 
ENDBRANCH   1  10
BRANCH   5  13
ATOM     13  C   UNL     1      43.944   4.880  11.960  0.00  0.00    +0.000 C 
ATOM     14  C   UNL     1      42.529   5.410  11.853  0.00  0.00    +0.000 C 
ATOM     15  C   UNL     1      42.915   4.632  13.065  0.00  0.00    +0.000 C 
BRANCH  13  16
ATOM     16  N   UNL     1      44.388   3.641  11.301  0.00  0.00    +0.000 N 
ATOM     17  H   UNL     1      44.661   2.895  11.936  0.00  0.00    +0.000 HD
BRANCH  16  18
ATOM     18  C   UNL     1      45.012   3.530  10.046  0.00  0.00    +0.000 A 
ATOM     19  C   UNL     1      45.334   4.609   9.230  0.00  0.00    +0.000 A 
ATOM     20  C   UNL     1      45.876   4.360   7.974  0.00  0.00    +0.000 A 
ATOM     21  N   UNL     1      46.086   3.126   7.466  0.00  0.00    +0.000 NA
ATOM     22  C   UNL     1      45.737   2.092   8.254  0.00  0.00    +0.000 A 
ATOM     23  C   UNL     1      45.202   2.245   9.525  0.00  0.00    +0.000 A 
ENDBRANCH  16  18
ENDBRANCH  13  16
ENDBRANCH   5  13
TORSDOF 4
ENDMDL
MODEL 6
REMARK VINA RESULT:    -5.913      3.025      6.847
REMARK INTER + INTRA:          -8.438
REMARK INTER:                  -7.360
REMARK INTRA:                  -1.078
REMARK UNBOUND:                -1.142
REMARK  Name = 
REMARK  4 active torsions:
REMARK  status: ('A' for Active; 'I' for Inactive)
REMARK    1  A    between atoms: C_4  and  C_5
REMARK    2  A    between atoms: C_9  and  C_10
REMARK    3  A    between atoms: C_10  and  N_11
REMARK    4  A    between atoms: N_11  and  C_12
REMARK                            x       y       z     vdW  Elec       q    Type
REMARK                         _______ _______ _______ _____ _____    ______ ____
ROOT
ATOM      1  C   UNL     1      45.443   6.307  11.349  0.00  0.00    +0.000 A 
ATOM      2  C   UNL     1      44.556   7.394  11.302  0.00  0.00    +0.000 A 
ATOM      3  C   UNL     1      44.773   8.536  12.078  0.00  0.00    +0.000 A 
ATOM      4  C   UNL     1      45.900   8.627  12.895  0.00  0.00    +0.000 A 
ATOM      5  C   UNL     1      46.830   7.581  12.968  0.00  0.00    +0.000 A 
ATOM      6  C   UNL     1      46.554   6.427  12.206  0.00  0.00    +0.000 A 
ENDROOT
BRANCH   1  10
ATOM      7  C   UNL     1      44.762   2.760   8.988  0.00  0.00    +0.000 A 
ATOM      8  C   UNL     1      44.401   2.786  10.329  0.00  0.00    +0.000 A 
ATOM      9  C   UNL     1      44.647   3.929  11.097  0.00  0.00    +0.000 A 
ATOM     10  C   UNL     1      45.238   5.082  10.539  0.00  0.00    +0.000 A 
ATOM     11  C   UNL     1      45.603   5.022   9.183  0.00  0.00    +0.000 A 
ATOM     12  C   UNL     1      45.372   3.873   8.416  0.00  0.00    +0.000 A 
ENDBRANCH   1  10
BRANCH   5  13
ATOM     13  C   UNL     1      48.105   7.672  13.806  0.00  0.00    +0.000 C 
ATOM     14  C   UNL     1      48.471   9.010  14.415  0.00  0.00    +0.000 C 
ATOM     15  C   UNL     1      49.244   8.521  13.237  0.00  0.00    +0.000 C 
BRANCH  13  16
ATOM     16  N   UNL     1      48.566   6.387  14.357  0.00  0.00    +0.000 N 
ATOM     17  H   UNL     1      48.833   5.697  13.661  0.00  0.00    +0.000 HD
BRANCH  16  18
ATOM     18  C   UNL     1      48.166   5.798  15.569  0.00  0.00    +0.000 A 
ATOM     19  C   UNL     1      48.608   6.202  16.824  0.00  0.00    +0.000 A 
ATOM     20  C   UNL     1      48.200   5.482  17.941  0.00  0.00    +0.000 A 
ATOM     21  N   UNL     1      47.420   4.380  17.894  0.00  0.00    +0.000 NA
ATOM     22  C   UNL     1      47.030   3.980  16.669  0.00  0.00    +0.000 A 
ATOM     23  C   UNL     1      47.378   4.644  15.501  0.00  0.00    +0.000 A 
ENDBRANCH  16  18
ENDBRANCH  13  16
ENDBRANCH   5  13
TORSDOF 4
ENDMDL
MODEL 7
REMARK VINA RESULT:    -5.901      3.212      7.190
REMARK INTER + INTRA:          -8.423
REMARK INTER:                  -7.414
REMARK INTRA:                  -1.010
REMARK UNBOUND:                -1.142
REMARK  Name = 
REMARK  4 active torsions:
REMARK  status: ('A' for Active; 'I' for Inactive)
REMARK    1  A    between atoms: C_4  and  C_5
REMARK    2  A    between atoms: C_9  and  C_10
REMARK    3  A    between atoms: C_10  and  N_11
REMARK    4  A    between atoms: N_11  and  C_12
REMARK                            x       y       z     vdW  Elec       q    Type
REMARK                         _______ _______ _______ _____ _____    ______ ____
ROOT
ATOM      1  C   UNL     1      45.648   6.364  11.220  0.00  0.00    +0.000 A 
ATOM      2  C   UNL     1      44.759   7.411  11.506  0.00  0.00    +0.000 A 
ATOM      3  C   UNL     1      45.182   8.551  12.195  0.00  0.00    +0.000 A 
ATOM      4  C   UNL     1      46.515   8.681  12.585  0.00  0.00    +0.000 A 
ATOM      5  C   UNL     1      47.453   7.677  12.310  0.00  0.00    +0.000 A 
ATOM      6  C   UNL     1      46.979   6.522  11.654  0.00  0.00    +0.000 A 
ENDROOT
BRANCH   1  10
ATOM      7  C   UNL     1      44.508   2.779   9.107  0.00  0.00    +0.000 A 
ATOM      8  C   UNL     1      45.194   3.790   8.447  0.00  0.00    +0.000 A 
ATOM      9  C   UNL     1      45.540   4.961   9.129  0.00  0.00    +0.000 A 
ATOM     10  C   UNL     1      45.228   5.142  10.492  0.00  0.00    +0.000 A 
ATOM     11  C   UNL     1      44.524   4.107  11.131  0.00  0.00    +0.000 A 
ATOM     12  C   UNL     1      44.164   2.940  10.446  0.00  0.00    +0.000 A 
ENDBRANCH   1  10
BRANCH   5  13
ATOM     13  C   UNL     1      48.932   7.813  12.671  0.00  0.00    +0.000 C 
ATOM     14  C   UNL     1      49.641   9.106  12.323  0.00  0.00    +0.000 C 
ATOM     15  C   UNL     1      49.921   7.890  11.505  0.00  0.00    +0.000 C 
BRANCH  13  16
ATOM     16  N   UNL     1      49.384   6.915  13.747  0.00  0.00    +0.000 N 
ATOM     17  H   UNL     1      49.571   5.960  13.455  0.00  0.00    +0.000 HD
BRANCH  16  18
ATOM     18  C   UNL     1      49.052   7.002  15.110  0.00  0.00    +0.000 A 
ATOM     19  C   UNL     1      49.274   8.121  15.906  0.00  0.00    +0.000 A 
ATOM     20  C   UNL     1      48.975   8.048  17.261  0.00  0.00    +0.000 A 
ATOM     21  N   UNL     1      48.508   6.943  17.881  0.00  0.00    +0.000 NA
ATOM     22  C   UNL     1      48.332   5.857  17.105  0.00  0.00    +0.000 A 
ATOM     23  C   UNL     1      48.591   5.841  15.742  0.00  0.00    +0.000 A 
ENDBRANCH  16  18
ENDBRANCH  13  16
ENDBRANCH   5  13
TORSDOF 4
ENDMDL
MODEL 8
REMARK VINA RESULT:    -5.812      4.801      7.686
REMARK INTER + INTRA:          -8.314
REMARK INTER:                  -7.605
REMARK INTRA:                  -0.709
REMARK UNBOUND:                -1.142
REMARK  Name = 
REMARK  4 active torsions:
REMARK  status: ('A' for Active; 'I' for Inactive)
REMARK    1  A    between atoms: C_4  and  C_5
REMARK    2  A    between atoms: C_9  and  C_10
REMARK    3  A    between atoms: C_10  and  N_11
REMARK    4  A    between atoms: N_11  and  C_12
REMARK                            x       y       z     vdW  Elec       q    Type
REMARK                         _______ _______ _______ _____ _____    ______ ____
ROOT
ATOM      1  C   UNL     1      47.062   5.539  13.502  0.00  0.00    +0.000 A 
ATOM      2  C   UNL     1      47.825   6.697  13.285  0.00  0.00    +0.000 A 
ATOM      3  C   UNL     1      48.683   7.192  14.271  0.00  0.00    +0.000 A 
ATOM      4  C   UNL     1      48.820   6.519  15.485  0.00  0.00    +0.000 A 
ATOM      5  C   UNL     1      48.098   5.348  15.751  0.00  0.00    +0.000 A 
ATOM      6  C   UNL     1      47.209   4.904  14.752  0.00  0.00    +0.000 A 
ENDROOT
BRANCH   1  10
ATOM      7  C   UNL     1      44.455   3.919  10.470  0.00  0.00    +0.000 A 
ATOM      8  C   UNL     1      45.114   5.123  10.254  0.00  0.00    +0.000 A 
ATOM      9  C   UNL     1      45.938   5.656  11.250  0.00  0.00    +0.000 A 
ATOM     10  C   UNL     1      46.142   4.991  12.477  0.00  0.00    +0.000 A 
ATOM     11  C   UNL     1      45.454   3.782  12.671  0.00  0.00    +0.000 A 
ATOM     12  C   UNL     1      44.616   3.252  11.681  0.00  0.00    +0.000 A 
ENDBRANCH   1  10
BRANCH   5  13
ATOM     13  C   UNL     1      48.268   4.554  17.047  0.00  0.00    +0.000 C 
ATOM     14  C   UNL     1      47.287   3.439  17.340  0.00  0.00    +0.000 C 
ATOM     15  C   UNL     1      47.172   4.716  18.103  0.00  0.00    +0.000 C 
BRANCH  13  16
ATOM     16  N   UNL     1      49.625   4.599  17.617  0.00  0.00    +0.000 N 
ATOM     17  H   UNL     1      50.049   5.523  17.635  0.00  0.00    +0.000 HD
BRANCH  16  18
ATOM     18  C   UNL     1      50.584   3.572  17.593  0.00  0.00    +0.000 A 
ATOM     19  C   UNL     1      50.321   2.258  17.219  0.00  0.00    +0.000 A 
ATOM     20  C   UNL     1      51.339   1.318  17.318  0.00  0.00    +0.000 A 
ATOM     21  N   UNL     1      52.577   1.581  17.789  0.00  0.00    +0.000 NA
ATOM     22  C   UNL     1      52.806   2.849  18.180  0.00  0.00    +0.000 A 
ATOM     23  C   UNL     1      51.855   3.856  18.106  0.00  0.00    +0.000 A 
ENDBRANCH  16  18
ENDBRANCH  13  16
ENDBRANCH   5  13
TORSDOF 4
ENDMDL
MODEL 9
REMARK VINA RESULT:    -5.745      4.997      8.401
REMARK INTER + INTRA:          -8.231
REMARK INTER:                  -7.463
REMARK INTRA:                  -0.768
REMARK UNBOUND:                -1.142
REMARK  Name = 
REMARK  4 active torsions:
REMARK  status: ('A' for Active; 'I' for Inactive)
REMARK    1  A    between atoms: C_4  and  C_5
REMARK    2  A    between atoms: C_9  and  C_10
REMARK    3  A    between atoms: C_10  and  N_11
REMARK    4  A    between atoms: N_11  and  C_12
REMARK                            x       y       z     vdW  Elec       q    Type
REMARK                         _______ _______ _______ _____ _____    ______ ____
ROOT
ATOM      1  C   UNL     1      47.082   5.459  13.692  0.00  0.00    +0.000 A 
ATOM      2  C   UNL     1      48.052   6.454  13.493  0.00  0.00    +0.000 A 
ATOM      3  C   UNL     1      48.884   6.870  14.536  0.00  0.00    +0.000 A 
ATOM      4  C   UNL     1      48.785   6.276  15.794  0.00  0.00    +0.000 A 
ATOM      5  C   UNL     1      47.849   5.264  16.047  0.00  0.00    +0.000 A 
ATOM      6  C   UNL     1      46.996   4.903  14.984  0.00  0.00    +0.000 A 
ENDROOT
BRANCH   1  10
ATOM      7  C   UNL     1      44.539   4.098  10.484  0.00  0.00    +0.000 A 
ATOM      8  C   UNL     1      45.175   5.329  10.396  0.00  0.00    +0.000 A 
ATOM      9  C   UNL     1      45.979   5.777  11.450  0.00  0.00    +0.000 A 
ATOM     10  C   UNL     1      46.184   4.998  12.607  0.00  0.00    +0.000 A 
ATOM     11  C   UNL     1      45.518   3.762  12.672  0.00  0.00    +0.000 A 
ATOM     12  C   UNL     1      44.701   3.317  11.625  0.00  0.00    +0.000 A 
ENDBRANCH   1  10
BRANCH   5  13
ATOM     13  C   UNL     1      47.754   4.551  17.396  0.00  0.00    +0.000 C 
ATOM     14  C   UNL     1      48.878   3.619  17.797  0.00  0.00    +0.000 C 
ATOM     15  C   UNL     1      47.579   3.031  17.361  0.00  0.00    +0.000 C 
BRANCH  13  16
ATOM     16  N   UNL     1      46.870   5.208  18.373  0.00  0.00    +0.000 N 
ATOM     17  H   UNL     1      45.906   5.317  18.069  0.00  0.00    +0.000 HD
BRANCH  16  18
ATOM     18  C   UNL     1      47.239   6.167  19.332  0.00  0.00    +0.000 A 
ATOM     19  C   UNL     1      47.335   5.918  20.697  0.00  0.00    +0.000 A 
ATOM     20  C   UNL     1      47.631   6.975  21.550  0.00  0.00    +0.000 A 
ATOM     21  N   UNL     1      47.803   8.253  21.150  0.00  0.00    +0.000 NA
ATOM     22  C   UNL     1      47.672   8.485  19.831  0.00  0.00    +0.000 A 
ATOM     23  C   UNL     1      47.391   7.491  18.904  0.00  0.00    +0.000 A 
ENDBRANCH  16  18
ENDBRANCH  13  16
ENDBRANCH   5  13
TORSDOF 4
ENDMDL
