MODEL 1
REMARK VINA RESULT:    -7.762      0.000      0.000
REMARK INTER + INTRA:         -11.256
REMARK INTER:                 -10.031
REMARK INTRA:                  -1.226
REMARK UNBOUND:                -1.226
REMARK  Name = 
REMARK  5 active torsions:
REMARK  status: ('A' for Active; 'I' for Inactive)
REMARK    1  A    between atoms: C_2  and  C_4
REMARK    2  A    between atoms: C_9  and  O_10
REMARK    3  A    between atoms: O_10  and  C_11
REMARK    4  A    between atoms: C_11  and  C_12
REMARK    5  A    between atoms: C_16  and  C_17
REMARK                            x       y       z     vdW  Elec       q    Type
REMARK                         _______ _______ _______ _____ _____    ______ ____
ROOT
ATOM      1  O   UNL     1      44.826   6.985  12.535  0.00  0.00    +0.000 OA
ENDROOT
BRANCH   1   7
ATOM      2  C   UNL     1      48.302   7.950  12.182  0.00  0.00    +0.000 A 
ATOM      3  C   UNL     1      48.954   6.860  12.732  0.00  0.00    +0.000 A 
ATOM      4  N   UNL     1      48.311   5.797  13.259  0.00  0.00    +0.000 NA
ATOM      5  C   UNL     1      46.955   5.802  13.218  0.00  0.00    +0.000 A 
ATOM      6 CL   UNL     1      46.370   4.357  13.949  0.00  0.00    +0.000 Cl
ATOM      7  C   UNL     1      46.187   6.838  12.665  0.00  0.00    +0.000 A 
ATOM      8  C   UNL     1      46.906   7.932  12.145  0.00  0.00    +0.000 A 
BRANCH   2  10
ATOM      9  N   UNL     1      50.440   8.782  11.367  0.00  0.00    +0.000 N 
ATOM     10  C   UNL     1      49.133   9.054  11.655  0.00  0.00    +0.000 C 
ATOM     11  O   UNL     1      48.659  10.162  11.449  0.00  0.00    +0.000 OA
ATOM     12  H   UNL     1      50.953   9.522  10.902  0.00  0.00    +0.000 HD
ATOM     13  H   UNL     1      50.802   7.843  11.293  0.00  0.00    +0.000 HD
ENDBRANCH   2  10
ENDBRANCH   1   7
BRANCH   1  14
ATOM     14  C   UNL     1      44.227   6.612  11.298  0.00  0.00    +0.000 C 
BRANCH  14  15
ATOM     15  C   UNL     1      44.278   5.120  11.050  0.00  0.00    +0.000 A 
ATOM     16  C   UNL     1      43.428   4.248  11.738  0.00  0.00    +0.000 A 
ATOM     17  C   UNL     1      43.371   2.902  11.381  0.00  0.00    +0.000 A 
ATOM     18  C   UNL     1      44.152   2.421  10.326  0.00  0.00    +0.000 A 
ATOM     19  C   UNL     1      45.008   3.267   9.600  0.00  0.00    +0.000 A 
ATOM     20  C   UNL     1      45.085   4.611  10.014  0.00  0.00    +0.000 A 
BRANCH  19  21
ATOM     21  C   UNL     1      45.704   2.805   8.374  0.00  0.00    +0.000 A 
ATOM     22  C   UNL     1      45.915   3.683   7.294  0.00  0.00    +0.000 A 
ATOM     23  C   UNL     1      46.651   3.302   6.169  0.00  0.00    +0.000 A 
ATOM     24  C   UNL     1      47.203   2.027   6.100  0.00  0.00    +0.000 A 
ATOM     25  C   UNL     1      47.001   1.131   7.147  0.00  0.00    +0.000 A 
ATOM     26  C   UNL     1      46.252   1.513   8.266  0.00  0.00    +0.000 A 
ENDBRANCH  19  21
ENDBRANCH  14  15
ENDBRANCH   1  14
TORSDOF 5
ENDMDL
MODEL 2
REMARK VINA RESULT:    -7.497      1.969      3.053
REMARK INTER + INTRA:         -10.914
REMARK INTER:                 -10.335
REMARK INTRA:                  -0.579
REMARK UNBOUND:                -1.226
REMARK  Name = 
REMARK  5 active torsions:
REMARK  status: ('A' for Active; 'I' for Inactive)
REMARK    1  A    between atoms: C_2  and  C_4
REMARK    2  A    between atoms: C_9  and  O_10
REMARK    3  A    between atoms: O_10  and  C_11
REMARK    4  A    between atoms: C_11  and  C_12
REMARK    5  A    between atoms: C_16  and  C_17
REMARK                            x       y       z     vdW  Elec       q    Type
REMARK                         _______ _______ _______ _____ _____    ______ ____
ROOT
ATOM      1  O   UNL     1      46.021   6.794  11.080  0.00  0.00    +0.000 OA
ENDROOT
BRANCH   1   7
ATOM      2  C   UNL     1      47.357   5.408  14.151  0.00  0.00    +0.000 A 
ATOM      3  C   UNL     1      48.236   6.400  14.549  0.00  0.00    +0.000 A 
ATOM      4  N   UNL     1      48.454   7.527  13.840  0.00  0.00    +0.000 NA
ATOM      5  C   UNL     1      47.750   7.692  12.693  0.00  0.00    +0.000 A 
ATOM      6 CL   UNL     1      48.204   9.188  11.970  0.00  0.00    +0.000 Cl
ATOM      7  C   UNL     1      46.815   6.768  12.202  0.00  0.00    +0.000 A 
ATOM      8  C   UNL     1      46.638   5.601  12.969  0.00  0.00    +0.000 A 
BRANCH   2  10
ATOM      9  N   UNL     1      46.739   4.401  16.280  0.00  0.00    +0.000 N 
ATOM     10  C   UNL     1      47.227   4.216  15.017  0.00  0.00    +0.000 C 
ATOM     11  O   UNL     1      47.510   3.100  14.608  0.00  0.00    +0.000 OA
ATOM     12  H   UNL     1      46.554   3.557  16.809  0.00  0.00    +0.000 HD
ATOM     13  H   UNL     1      46.274   5.247  16.571  0.00  0.00    +0.000 HD
ENDBRANCH   2  10
ENDBRANCH   1   7
BRANCH   1  14
ATOM     14  C   UNL     1      44.699   6.274  11.183  0.00  0.00    +0.000 C 
BRANCH  14  15
ATOM     15  C   UNL     1      44.621   4.803  10.834  0.00  0.00    +0.000 A 
ATOM     16  C   UNL     1      43.665   3.974  11.430  0.00  0.00    +0.000 A 
ATOM     17  C   UNL     1      43.497   2.666  10.979  0.00  0.00    +0.000 A 
ATOM     18  C   UNL     1      44.272   2.182   9.921  0.00  0.00    +0.000 A 
ATOM     19  C   UNL     1      45.232   2.988   9.285  0.00  0.00    +0.000 A 
ATOM     20  C   UNL     1      45.417   4.288   9.794  0.00  0.00    +0.000 A 
BRANCH  19  21
ATOM     21  C   UNL     1      45.931   2.542   8.055  0.00  0.00    +0.000 A 
ATOM     22  C   UNL     1      46.116   3.426   6.974  0.00  0.00    +0.000 A 
ATOM     23  C   UNL     1      46.854   3.062   5.845  0.00  0.00    +0.000 A 
ATOM     24  C   UNL     1      47.433   1.800   5.772  0.00  0.00    +0.000 A 
ATOM     25  C   UNL     1      47.258   0.899   6.818  0.00  0.00    +0.000 A 
ATOM     26  C   UNL     1      46.507   1.264   7.943  0.00  0.00    +0.000 A 
ENDBRANCH  19  21
ENDBRANCH  14  15
ENDBRANCH   1  14
TORSDOF 5
ENDMDL
MODEL 3
REMARK VINA RESULT:    -7.106      3.100      6.565
REMARK INTER + INTRA:         -10.409
REMARK INTER:                  -9.580
REMARK INTRA:                  -0.829
REMARK UNBOUND:                -1.226
REMARK  Name = 
REMARK  5 active torsions:
REMARK  status: ('A' for Active; 'I' for Inactive)
REMARK    1  A    between atoms: C_2  and  C_4
REMARK    2  A    between atoms: C_9  and  O_10
REMARK    3  A    between atoms: O_10  and  C_11
REMARK    4  A    between atoms: C_11  and  C_12
REMARK    5  A    between atoms: C_16  and  C_17
REMARK                            x       y       z     vdW  Elec       q    Type
REMARK                         _______ _______ _______ _____ _____    ______ ____
ROOT
ATOM      1  O   UNL     1      44.696   5.262   9.557  0.00  0.00    +0.000 OA
ENDROOT
BRANCH   1   7
ATOM      2  C   UNL     1      46.411   2.776   7.555  0.00  0.00    +0.000 A 
ATOM      3  C   UNL     1      45.981   1.597   8.139  0.00  0.00    +0.000 A 
ATOM      4  N   UNL     1      45.156   1.555   9.206  0.00  0.00    +0.000 NA
ATOM      5  C   UNL     1      44.715   2.737   9.704  0.00  0.00    +0.000 A 
ATOM      6 CL   UNL     1      43.690   2.426  11.053  0.00  0.00    +0.000 Cl
ATOM      7  C   UNL     1      45.063   3.992   9.181  0.00  0.00    +0.000 A 
ATOM      8  C   UNL     1      45.941   3.982   8.081  0.00  0.00    +0.000 A 
BRANCH   2  10
ATOM      9  N   UNL     1      48.552   2.104   6.610  0.00  0.00    +0.000 N 
ATOM     10  C   UNL     1      47.329   2.675   6.400  0.00  0.00    +0.000 C 
ATOM     11  O   UNL     1      46.994   3.056   5.287  0.00  0.00    +0.000 OA
ATOM     12  H   UNL     1      49.113   1.944   5.781  0.00  0.00    +0.000 HD
ATOM     13  H   UNL     1      48.773   1.568   7.435  0.00  0.00    +0.000 HD
ENDBRANCH   2  10
ENDBRANCH   1   7
BRANCH   1  14
ATOM     14  C   UNL     1      44.294   5.471  10.907  0.00  0.00    +0.000 C 
BRANCH  14  15
ATOM     15  C   UNL     1      45.465   5.707  11.836  0.00  0.00    +0.000 A 
ATOM     16  C   UNL     1      45.760   4.805  12.863  0.00  0.00    +0.000 A 
ATOM     17  C   UNL     1      46.933   4.947  13.602  0.00  0.00    +0.000 A 
ATOM     18  C   UNL     1      47.827   5.982  13.311  0.00  0.00    +0.000 A 
ATOM     19  C   UNL     1      47.575   6.901  12.277  0.00  0.00    +0.000 A 
ATOM     20  C   UNL     1      46.358   6.765  11.580  0.00  0.00    +0.000 A 
BRANCH  19  21
ATOM     21  C   UNL     1      48.594   7.890  11.849  0.00  0.00    +0.000 A 
ATOM     22  C   UNL     1      48.271   9.257  11.751  0.00  0.00    +0.000 A 
ATOM     23  C   UNL     1      49.235  10.220  11.444  0.00  0.00    +0.000 A 
ATOM     24  C   UNL     1      50.555   9.837  11.232  0.00  0.00    +0.000 A 
ATOM     25  C   UNL     1      50.904   8.492  11.309  0.00  0.00    +0.000 A 
ATOM     26  C   UNL     1      49.931   7.528  11.605  0.00  0.00    +0.000 A 
ENDBRANCH  19  21
ENDBRANCH  14  15
ENDBRANCH   1  14
TORSDOF 5
ENDMDL
MODEL 4
REMARK VINA RESULT:    -7.020      3.620      7.191
REMARK INTER + INTRA:         -10.297
REMARK INTER:                  -9.405
REMARK INTRA:                  -0.893
REMARK UNBOUND:                -1.226
REMARK  Name = 
REMARK  5 active torsions:
REMARK  status: ('A' for Active; 'I' for Inactive)
REMARK    1  A    between atoms: C_2  and  C_4
REMARK    2  A    between atoms: C_9  and  O_10
REMARK    3  A    between atoms: O_10  and  C_11
REMARK    4  A    between atoms: C_11  and  C_12
REMARK    5  A    between atoms: C_16  and  C_17
REMARK                            x       y       z     vdW  Elec       q    Type
REMARK                         _______ _______ _______ _____ _____    ______ ____
ROOT
ATOM      1  O   UNL     1      44.723   5.465  10.208  0.00  0.00    +0.000 OA
ENDROOT
BRANCH   1   7
ATOM      2  C   UNL     1      46.224   2.986   8.032  0.00  0.00    +0.000 A 
ATOM      3  C   UNL     1      45.620   1.821   8.472  0.00  0.00    +0.000 A 
ATOM      4  N   UNL     1      44.739   1.781   9.494  0.00  0.00    +0.000 NA
ATOM      5  C   UNL     1      44.422   2.956  10.094  0.00  0.00    +0.000 A 
ATOM      6 CL   UNL     1      43.296   2.649  11.360  0.00  0.00    +0.000 Cl
ATOM      7  C   UNL     1      44.951   4.200   9.718  0.00  0.00    +0.000 A 
ATOM      8  C   UNL     1      45.878   4.185   8.660  0.00  0.00    +0.000 A 
BRANCH   2  10
ATOM      9  N   UNL     1      47.022   3.735   5.857  0.00  0.00    +0.000 N 
ATOM     10  C   UNL     1      47.183   2.881   6.911  0.00  0.00    +0.000 C 
ATOM     11  O   UNL     1      48.109   2.084   6.940  0.00  0.00    +0.000 OA
ATOM     12  H   UNL     1      47.757   3.719   5.160  0.00  0.00    +0.000 HD
ATOM     13  H   UNL     1      46.434   4.553   5.898  0.00  0.00    +0.000 HD
ENDBRANCH   2  10
ENDBRANCH   1   7
BRANCH   1  14
ATOM     14  C   UNL     1      44.669   5.636  11.621  0.00  0.00    +0.000 C 
BRANCH  14  15
ATOM     15  C   UNL     1      46.031   5.879  12.234  0.00  0.00    +0.000 A 
ATOM     16  C   UNL     1      46.897   6.839  11.701  0.00  0.00    +0.000 A 
ATOM     17  C   UNL     1      48.073   7.167  12.372  0.00  0.00    +0.000 A 
ATOM     18  C   UNL     1      48.386   6.550  13.587  0.00  0.00    +0.000 A 
ATOM     19  C   UNL     1      47.535   5.591  14.164  0.00  0.00    +0.000 A 
ATOM     20  C   UNL     1      46.379   5.241  13.439  0.00  0.00    +0.000 A 
BRANCH  19  21
ATOM     21  C   UNL     1      47.770   5.062  15.529  0.00  0.00    +0.000 A 
ATOM     22  C   UNL     1      48.514   5.802  16.468  0.00  0.00    +0.000 A 
ATOM     23  C   UNL     1      48.668   5.371  17.788  0.00  0.00    +0.000 A 
ATOM     24  C   UNL     1      48.074   4.186  18.205  0.00  0.00    +0.000 A 
ATOM     25  C   UNL     1      47.343   3.424  17.297  0.00  0.00    +0.000 A 
ATOM     26  C   UNL     1      47.201   3.853  15.972  0.00  0.00    +0.000 A 
ENDBRANCH  19  21
ENDBRANCH  14  15
ENDBRANCH   1  14
TORSDOF 5
ENDMDL
MODEL 5
REMARK VINA RESULT:    -6.903      1.792      2.099
REMARK INTER + INTRA:         -10.146
REMARK INTER:                  -9.315
REMARK INTRA:                  -0.831
REMARK UNBOUND:                -1.226
REMARK  Name = 
REMARK  5 active torsions:
REMARK  status: ('A' for Active; 'I' for Inactive)
REMARK    1  A    between atoms: C_2  and  C_4
REMARK    2  A    between atoms: C_9  and  O_10
REMARK    3  A    between atoms: O_10  and  C_11
REMARK    4  A    between atoms: C_11  and  C_12
REMARK    5  A    between atoms: C_16  and  C_17
REMARK                            x       y       z     vdW  Elec       q    Type
REMARK                         _______ _______ _______ _____ _____    ______ ____
ROOT
ATOM      1  O   UNL     1      45.312   6.945  12.589  0.00  0.00    +0.000 OA
ENDROOT
BRANCH   1   7
ATOM      2  C   UNL     1      48.656   8.326  12.374  0.00  0.00    +0.000 A 
ATOM      3  C   UNL     1      48.394   9.670  12.174  0.00  0.00    +0.000 A 
ATOM      4  N   UNL     1      47.147  10.176  12.071  0.00  0.00    +0.000 NA
ATOM      5  C   UNL     1      46.108   9.314  12.197  0.00  0.00    +0.000 A 
ATOM      6 CL   UNL     1      44.634  10.187  12.024  0.00  0.00    +0.000 Cl
ATOM      7  C   UNL     1      46.251   7.937  12.426  0.00  0.00    +0.000 A 
ATOM      8  C   UNL     1      47.571   7.456  12.506  0.00  0.00    +0.000 A 
BRANCH   2  10
ATOM      9  N   UNL     1      50.630   7.350  11.335  0.00  0.00    +0.000 N 
ATOM     10  C   UNL     1      50.072   7.906  12.451  0.00  0.00    +0.000 C 
ATOM     11  O   UNL     1      50.732   8.082  13.465  0.00  0.00    +0.000 OA
ATOM     12  H   UNL     1      51.628   7.178  11.379  0.00  0.00    +0.000 HD
ATOM     13  H   UNL     1      50.205   7.407  10.422  0.00  0.00    +0.000 HD
ENDBRANCH   2  10
ENDBRANCH   1   7
BRANCH   1  14
ATOM     14  C   UNL     1      44.456   6.646  11.491  0.00  0.00    +0.000 C 
BRANCH  14  15
ATOM     15  C   UNL     1      44.388   5.165  11.189  0.00  0.00    +0.000 A 
ATOM     16  C   UNL     1      43.451   4.344  11.825  0.00  0.00    +0.000 A 
ATOM     17  C   UNL     1      43.290   3.021  11.417  0.00  0.00    +0.000 A 
ATOM     18  C   UNL     1      44.054   2.513  10.362  0.00  0.00    +0.000 A 
ATOM     19  C   UNL     1      44.996   3.309   9.687  0.00  0.00    +0.000 A 
ATOM     20  C   UNL     1      45.174   4.626  10.153  0.00  0.00    +0.000 A 
BRANCH  19  21
ATOM     21  C   UNL     1      45.681   2.833   8.460  0.00  0.00    +0.000 A 
ATOM     22  C   UNL     1      45.871   3.696   7.363  0.00  0.00    +0.000 A 
ATOM     23  C   UNL     1      46.597   3.303   6.236  0.00  0.00    +0.000 A 
ATOM     24  C   UNL     1      47.158   2.032   6.181  0.00  0.00    +0.000 A 
ATOM     25  C   UNL     1      46.977   1.151   7.243  0.00  0.00    +0.000 A 
ATOM     26  C   UNL     1      46.238   1.545   8.366  0.00  0.00    +0.000 A 
ENDBRANCH  19  21
ENDBRANCH  14  15
ENDBRANCH   1  14
TORSDOF 5
ENDMDL
MODEL 6
REMARK VINA RESULT:    -6.847      2.049      2.468
REMARK INTER + INTRA:         -10.073
REMARK INTER:                  -9.243
REMARK INTRA:                  -0.831
REMARK UNBOUND:                -1.226
REMARK  Name = 
REMARK  5 active torsions:
REMARK  status: ('A' for Active; 'I' for Inactive)
REMARK    1  A    between atoms: C_2  and  C_4
REMARK    2  A    between atoms: C_9  and  O_10
REMARK    3  A    between atoms: O_10  and  C_11
REMARK    4  A    between atoms: C_11  and  C_12
REMARK    5  A    between atoms: C_16  and  C_17
REMARK                            x       y       z     vdW  Elec       q    Type
REMARK                         _______ _______ _______ _____ _____    ______ ____
ROOT
ATOM      1  O   UNL     1      44.757   7.114  12.618  0.00  0.00    +0.000 OA
ENDROOT
BRANCH   1   7
ATOM      2  C   UNL     1      46.233  10.335  11.856  0.00  0.00    +0.000 A 
ATOM      3  C   UNL     1      47.574  10.096  12.100  0.00  0.00    +0.000 A 
ATOM      4  N   UNL     1      48.049   8.913  12.544  0.00  0.00    +0.000 NA
ATOM      5  C   UNL     1      47.155   7.910  12.731  0.00  0.00    +0.000 A 
ATOM      6 CL   UNL     1      47.993   6.517  13.301  0.00  0.00    +0.000 Cl
ATOM      7  C   UNL     1      45.777   8.027  12.493  0.00  0.00    +0.000 A 
ATOM      8  C   UNL     1      45.331   9.286  12.050  0.00  0.00    +0.000 A 
BRANCH   2  10
ATOM      9  N   UNL     1      45.262  12.526  12.289  0.00  0.00    +0.000 N 
ATOM     10  C   UNL     1      45.850  11.684  11.387  0.00  0.00    +0.000 C 
ATOM     11  O   UNL     1      46.082  12.049  10.244  0.00  0.00    +0.000 OA
ATOM     12  H   UNL     1      45.115  13.477  11.974  0.00  0.00    +0.000 HD
ATOM     13  H   UNL     1      45.272  12.358  13.283  0.00  0.00    +0.000 HD
ENDBRANCH   2  10
ENDBRANCH   1   7
BRANCH   1  14
ATOM     14  C   UNL     1      44.062   6.720  11.439  0.00  0.00    +0.000 C 
BRANCH  14  15
ATOM     15  C   UNL     1      44.154   5.233  11.175  0.00  0.00    +0.000 A 
ATOM     16  C   UNL     1      43.285   4.337  11.805  0.00  0.00    +0.000 A 
ATOM     17  C   UNL     1      43.272   2.995  11.428  0.00  0.00    +0.000 A 
ATOM     18  C   UNL     1      44.117   2.542  10.411  0.00  0.00    +0.000 A 
ATOM     19  C   UNL     1      44.995   3.413   9.743  0.00  0.00    +0.000 A 
ATOM     20  C   UNL     1      45.024   4.753  10.178  0.00  0.00    +0.000 A 
BRANCH  19  21
ATOM     21  C   UNL     1      45.763   2.981   8.550  0.00  0.00    +0.000 A 
ATOM     22  C   UNL     1      46.141   1.634   8.389  0.00  0.00    +0.000 A 
ATOM     23  C   UNL     1      46.780   1.183   7.231  0.00  0.00    +0.000 A 
ATOM     24  C   UNL     1      47.054   2.073   6.198  0.00  0.00    +0.000 A 
ATOM     25  C   UNL     1      46.705   3.414   6.333  0.00  0.00    +0.000 A 
ATOM     26  C   UNL     1      46.075   3.864   7.500  0.00  0.00    +0.000 A 
ENDBRANCH  19  21
ENDBRANCH  14  15
ENDBRANCH   1  14
TORSDOF 5
ENDMDL
MODEL 7
REMARK VINA RESULT:    -6.825      3.516      5.367
REMARK INTER + INTRA:         -10.045
REMARK INTER:                  -9.202
REMARK INTRA:                  -0.843
REMARK UNBOUND:                -1.226
REMARK  Name = 
REMARK  5 active torsions:
REMARK  status: ('A' for Active; 'I' for Inactive)
REMARK    1  A    between atoms: C_2  and  C_4
REMARK    2  A    between atoms: C_9  and  O_10
REMARK    3  A    between atoms: O_10  and  C_11
REMARK    4  A    between atoms: C_11  and  C_12
REMARK    5  A    between atoms: C_16  and  C_17
REMARK                            x       y       z     vdW  Elec       q    Type
REMARK                         _______ _______ _______ _____ _____    ______ ____
ROOT
ATOM      1  O   UNL     1      48.481   7.345  15.027  0.00  0.00    +0.000 OA
ENDROOT
BRANCH   1   7
ATOM      2  C   UNL     1      48.662   4.490  17.251  0.00  0.00    +0.000 A 
ATOM      3  C   UNL     1      50.006   4.476  17.584  0.00  0.00    +0.000 A 
ATOM      4  N   UNL     1      50.902   5.354  17.089  0.00  0.00    +0.000 NA
ATOM      5  C   UNL     1      50.443   6.309  16.242  0.00  0.00    +0.000 A 
ATOM      6 CL   UNL     1      51.764   7.296  15.745  0.00  0.00    +0.000 Cl
ATOM      7  C   UNL     1      49.101   6.437  15.853  0.00  0.00    +0.000 A 
ATOM      8  C   UNL     1      48.209   5.485  16.382  0.00  0.00    +0.000 A 
BRANCH   2  10
ATOM      9  N   UNL     1      48.220   2.867  19.012  0.00  0.00    +0.000 N 
ATOM     10  C   UNL     1      47.794   3.457  17.856  0.00  0.00    +0.000 C 
ATOM     11  O   UNL     1      46.715   3.165  17.361  0.00  0.00    +0.000 OA
ATOM     12  H   UNL     1      47.557   2.249  19.464  0.00  0.00    +0.000 HD
ATOM     13  H   UNL     1      48.970   3.240  19.574  0.00  0.00    +0.000 HD
ENDBRANCH   2  10
ENDBRANCH   1   7
BRANCH   1  14
ATOM     14  C   UNL     1      48.538   7.120  13.622  0.00  0.00    +0.000 C 
BRANCH  14  15
ATOM     15  C   UNL     1      47.174   7.160  12.968  0.00  0.00    +0.000 A 
ATOM     16  C   UNL     1      46.415   8.334  12.962  0.00  0.00    +0.000 A 
ATOM     17  C   UNL     1      45.239   8.402  12.215  0.00  0.00    +0.000 A 
ATOM     18  C   UNL     1      44.822   7.303  11.459  0.00  0.00    +0.000 A 
ATOM     19  C   UNL     1      45.565   6.110  11.426  0.00  0.00    +0.000 A 
ATOM     20  C   UNL     1      46.720   6.051  12.229  0.00  0.00    +0.000 A 
BRANCH  19  21
ATOM     21  C   UNL     1      45.225   5.007  10.494  0.00  0.00    +0.000 A 
ATOM     22  C   UNL     1      45.620   5.060   9.144  0.00  0.00    +0.000 A 
ATOM     23  C   UNL     1      45.397   3.993   8.270  0.00  0.00    +0.000 A 
ATOM     24  C   UNL     1      44.776   2.837   8.730  0.00  0.00    +0.000 A 
ATOM     25  C   UNL     1      44.363   2.758  10.057  0.00  0.00    +0.000 A 
ATOM     26  C   UNL     1      44.577   3.835  10.926  0.00  0.00    +0.000 A 
ENDBRANCH  19  21
ENDBRANCH  14  15
ENDBRANCH   1  14
TORSDOF 5
ENDMDL
MODEL 8
REMARK VINA RESULT:    -6.607      3.318      5.132
REMARK INTER + INTRA:          -9.764
REMARK INTER:                  -8.794
REMARK INTRA:                  -0.970
REMARK UNBOUND:                -1.226
REMARK  Name = 
REMARK  5 active torsions:
REMARK  status: ('A' for Active; 'I' for Inactive)
REMARK    1  A    between atoms: C_2  and  C_4
REMARK    2  A    between atoms: C_9  and  O_10
REMARK    3  A    between atoms: O_10  and  C_11
REMARK    4  A    between atoms: C_11  and  C_12
REMARK    5  A    between atoms: C_16  and  C_17
REMARK                            x       y       z     vdW  Elec       q    Type
REMARK                         _______ _______ _______ _____ _____    ______ ____
ROOT
ATOM      1  O   UNL     1      48.585   6.170  14.230  0.00  0.00    +0.000 OA
ENDROOT
BRANCH   1   7
ATOM      2  C   UNL     1      47.920   5.216  17.662  0.00  0.00    +0.000 A 
ATOM      3  C   UNL     1      47.223   4.032  17.496  0.00  0.00    +0.000 A 
ATOM      4  N   UNL     1      46.916   3.514  16.289  0.00  0.00    +0.000 NA
ATOM      5  C   UNL     1      47.341   4.189  15.191  0.00  0.00    +0.000 A 
ATOM      6 CL   UNL     1      46.826   3.342  13.782  0.00  0.00    +0.000 Cl
ATOM      7  C   UNL     1      48.075   5.384  15.236  0.00  0.00    +0.000 A 
ATOM      8  C   UNL     1      48.354   5.891  16.519  0.00  0.00    +0.000 A 
BRANCH   2  10
ATOM      9  N   UNL     1      48.020   4.768  20.054  0.00  0.00    +0.000 N 
ATOM     10  C   UNL     1      48.174   5.676  19.045  0.00  0.00    +0.000 C 
ATOM     11  O   UNL     1      48.544   6.818  19.277  0.00  0.00    +0.000 OA
ATOM     12  H   UNL     1      48.310   5.077  20.974  0.00  0.00    +0.000 HD
ATOM     13  H   UNL     1      47.955   3.775  19.893  0.00  0.00    +0.000 HD
ENDBRANCH   2  10
ENDBRANCH   1   7
BRANCH   1  14
ATOM     14  C   UNL     1      48.082   7.495  14.095  0.00  0.00    +0.000 C 
BRANCH  14  15
ATOM     15  C   UNL     1      46.851   7.566  13.216  0.00  0.00    +0.000 A 
ATOM     16  C   UNL     1      46.199   8.782  12.992  0.00  0.00    +0.000 A 
ATOM     17  C   UNL     1      45.171   8.860  12.053  0.00  0.00    +0.000 A 
ATOM     18  C   UNL     1      44.798   7.728  11.323  0.00  0.00    +0.000 A 
ATOM     19  C   UNL     1      45.439   6.490  11.509  0.00  0.00    +0.000 A 
ATOM     20  C   UNL     1      46.438   6.427  12.499  0.00  0.00    +0.000 A 
BRANCH  19  21
ATOM     21  C   UNL     1      45.170   5.334  10.620  0.00  0.00    +0.000 A 
ATOM     22  C   UNL     1      45.704   5.289   9.318  0.00  0.00    +0.000 A 
ATOM     23  C   UNL     1      45.546   4.169   8.497  0.00  0.00    +0.000 A 
ATOM     24  C   UNL     1      44.852   3.059   8.963  0.00  0.00    +0.000 A 
ATOM     25  C   UNL     1      44.301   3.077  10.242  0.00  0.00    +0.000 A 
ATOM     26  C   UNL     1      44.451   4.206  11.057  0.00  0.00    +0.000 A 
ENDBRANCH  19  21
ENDBRANCH  14  15
ENDBRANCH   1  14
TORSDOF 5
ENDMDL
MODEL 9
REMARK VINA RESULT:    -6.323      4.912      8.121
REMARK INTER + INTRA:          -9.396
REMARK INTER:                  -8.094
REMARK INTRA:                  -1.303
REMARK UNBOUND:                -1.226
REMARK  Name = 
REMARK  5 active torsions:
REMARK  status: ('A' for Active; 'I' for Inactive)
REMARK    1  A    between atoms: C_2  and  C_4
REMARK    2  A    between atoms: C_9  and  O_10
REMARK    3  A    between atoms: O_10  and  C_11
REMARK    4  A    between atoms: C_11  and  C_12
REMARK    5  A    between atoms: C_16  and  C_17
REMARK                            x       y       z     vdW  Elec       q    Type
REMARK                         _______ _______ _______ _____ _____    ______ ____
ROOT
ATOM      1  O   UNL     1      48.809   6.332  14.238  0.00  0.00    +0.000 OA
ENDROOT
BRANCH   1   7
ATOM      2  C   UNL     1      45.603   6.176  12.556  0.00  0.00    +0.000 A 
ATOM      3  C   UNL     1      45.040   5.047  13.126  0.00  0.00    +0.000 A 
ATOM      4  N   UNL     1      45.673   4.282  14.040  0.00  0.00    +0.000 NA
ATOM      5  C   UNL     1      46.914   4.668  14.428  0.00  0.00    +0.000 A 
ATOM      6 CL   UNL     1      47.512   3.541  15.586  0.00  0.00    +0.000 Cl
ATOM      7  C   UNL     1      47.575   5.805  13.939  0.00  0.00    +0.000 A 
ATOM      8  C   UNL     1      46.880   6.558  12.974  0.00  0.00    +0.000 A 
BRANCH   2  10
ATOM      9  N   UNL     1      43.904   6.197  10.812  0.00  0.00    +0.000 N 
ATOM     10  C   UNL     1      44.803   6.911  11.554  0.00  0.00    +0.000 C 
ATOM     11  O   UNL     1      44.913   8.121  11.416  0.00  0.00    +0.000 OA
ATOM     12  H   UNL     1      43.292   6.742  10.216  0.00  0.00    +0.000 HD
ATOM     13  H   UNL     1      43.613   5.263  11.054  0.00  0.00    +0.000 HD
ENDBRANCH   2  10
ENDBRANCH   1   7
BRANCH   1  14
ATOM     14  C   UNL     1      48.890   7.304  15.275  0.00  0.00    +0.000 C 
BRANCH  14  15
ATOM     15  C   UNL     1      49.180   6.693  16.629  0.00  0.00    +0.000 A 
ATOM     16  C   UNL     1      48.448   7.071  17.759  0.00  0.00    +0.000 A 
ATOM     17  C   UNL     1      48.614   6.383  18.960  0.00  0.00    +0.000 A 
ATOM     18  C   UNL     1      49.500   5.305  19.036  0.00  0.00    +0.000 A 
ATOM     19  C   UNL     1      50.244   4.885  17.920  0.00  0.00    +0.000 A 
ATOM     20  C   UNL     1      50.096   5.629  16.733  0.00  0.00    +0.000 A 
BRANCH  19  21
ATOM     21  C   UNL     1      51.051   3.641  17.945  0.00  0.00    +0.000 A 
ATOM     22  C   UNL     1      50.543   2.444  17.403  0.00  0.00    +0.000 A 
ATOM     23  C   UNL     1      51.319   1.284  17.327  0.00  0.00    +0.000 A 
ATOM     24  C   UNL     1      52.630   1.295  17.789  0.00  0.00    +0.000 A 
ATOM     25  C   UNL     1      53.157   2.458  18.342  0.00  0.00    +0.000 A 
ATOM     26  C   UNL     1      52.372   3.615  18.428  0.00  0.00    +0.000 A 
ENDBRANCH  19  21
ENDBRANCH  14  15
ENDBRANCH   1  14
TORSDOF 5
ENDMDL
