MODEL 1
REMARK VINA RESULT:    -8.732      0.000      0.000
REMARK INTER + INTRA:         -12.983
REMARK INTER:                 -11.795
REMARK INTRA:                  -1.188
REMARK UNBOUND:                -1.188
REMARK  Name = 
REMARK  6 active torsions:
REMARK  status: ('A' for Active; 'I' for Inactive)
REMARK    1  A    between atoms: C_2  and  C_4
REMARK    2  A    between atoms: C_8  and  O_9
REMARK    3  A    between atoms: O_9  and  C_10
REMARK    4  A    between atoms: C_10  and  C_11
REMARK    5  A    between atoms: C_11  and  C_14
REMARK    6  A    between atoms: C_18  and  C_19
REMARK                            x       y       z     vdW  Elec       q    Type
REMARK                         _______ _______ _______ _____ _____    ______ ____
ROOT
ATOM      1  C   UNL     1      43.683   4.416  12.466  0.00  0.00    +0.000 C 
ATOM      2  F   UNL     1      43.013   5.216  11.586  0.00  0.00    +0.000 F 
ATOM      3  F   UNL     1      42.868   4.296  13.553  0.00  0.00    +0.000 F 
ENDROOT
BRANCH   1   4
ATOM      4  C   UNL     1      45.043   4.992  12.827  0.00  0.00    +0.000 A 
ATOM      5  C   UNL     1      45.545   6.118  12.162  0.00  0.00    +0.000 A 
ATOM      6  C   UNL     1      46.750   6.689  12.566  0.00  0.00    +0.000 A 
ATOM      7  C   UNL     1      47.456   6.149  13.644  0.00  0.00    +0.000 A 
ATOM      8  C   UNL     1      46.984   5.023  14.341  0.00  0.00    +0.000 A 
ATOM      9  C   UNL     1      45.775   4.451  13.902  0.00  0.00    +0.000 A 
BRANCH   8  10
ATOM     10  C   UNL     1      47.701   4.508  15.527  0.00  0.00    +0.000 A 
ATOM     11  C   UNL     1      48.332   5.338  16.454  0.00  0.00    +0.000 A 
ATOM     12  C   UNL     1      49.057   4.768  17.500  0.00  0.00    +0.000 A 
ATOM     13  C   UNL     1      49.130   3.385  17.603  0.00  0.00    +0.000 A 
ATOM     14  C   UNL     1      48.460   2.628  16.660  0.00  0.00    +0.000 A 
ATOM     15  N   UNL     1      47.753   3.155  15.636  0.00  0.00    +0.000 NA
ENDBRANCH   8  10
ENDBRANCH   1   4
BRANCH   1  16
ATOM     16  C   UNL     1      43.888   3.030  11.829  0.00  0.00    +0.000 C 
BRANCH  16  17
ATOM     17  O   UNL     1      43.469   2.988  10.456  0.00  0.00    +0.000 OA
BRANCH  17  22
ATOM     18  C   UNL     1      46.128   2.176   8.103  0.00  0.00    +0.000 A 
ATOM     19  C   UNL     1      46.509   3.437   7.633  0.00  0.00    +0.000 A 
ATOM     20  C   UNL     1      45.862   4.579   8.098  0.00  0.00    +0.000 A 
ATOM     21  C   UNL     1      44.839   4.466   9.040  0.00  0.00    +0.000 A 
ATOM     22  C   UNL     1      44.457   3.213   9.529  0.00  0.00    +0.000 A 
ATOM     23  C   UNL     1      45.108   2.066   9.060  0.00  0.00    +0.000 A 
BRANCH  18  25
ATOM     24  N   UNL     1      47.799   1.213   6.614  0.00  0.00    +0.000 N 
ATOM     25  C   UNL     1      46.845   0.989   7.566  0.00  0.00    +0.000 C 
ATOM     26  O   UNL     1      46.627  -0.138   7.990  0.00  0.00    +0.000 OA
ATOM     27  H   UNL     1      48.358   0.413   6.346  0.00  0.00    +0.000 HD
ATOM     28  H   UNL     1      48.173   2.132   6.422  0.00  0.00    +0.000 HD
ENDBRANCH  18  25
ENDBRANCH  17  22
ENDBRANCH  16  17
ENDBRANCH   1  16
TORSDOF 6
ENDMDL
MODEL 2
REMARK VINA RESULT:    -7.636      2.234      7.555
REMARK INTER + INTRA:         -11.503
REMARK INTER:                 -10.614
REMARK INTRA:                  -0.889
REMARK UNBOUND:                -1.188
REMARK  Name = 
REMARK  6 active torsions:
REMARK  status: ('A' for Active; 'I' for Inactive)
REMARK    1  A    between atoms: C_2  and  C_4
REMARK    2  A    between atoms: C_8  and  O_9
REMARK    3  A    between atoms: O_9  and  C_10
REMARK    4  A    between atoms: C_10  and  C_11
REMARK    5  A    between atoms: C_11  and  C_14
REMARK    6  A    between atoms: C_18  and  C_19
REMARK                            x       y       z     vdW  Elec       q    Type
REMARK                         _______ _______ _______ _____ _____    ______ ____
ROOT
ATOM      1  C   UNL     1      44.904   6.224  11.939  0.00  0.00    +0.000 C 
ATOM      2  F   UNL     1      44.158   6.441  13.061  0.00  0.00    +0.000 F 
ATOM      3  F   UNL     1      44.562   7.216  11.069  0.00  0.00    +0.000 F 
ENDROOT
BRANCH   1   4
ATOM      4  C   UNL     1      44.660   4.840  11.359  0.00  0.00    +0.000 A 
ATOM      5  C   UNL     1      43.639   4.022  11.859  0.00  0.00    +0.000 A 
ATOM      6  C   UNL     1      43.368   2.795  11.257  0.00  0.00    +0.000 A 
ATOM      7  C   UNL     1      44.104   2.382  10.144  0.00  0.00    +0.000 A 
ATOM      8  C   UNL     1      45.134   3.174   9.609  0.00  0.00    +0.000 A 
ATOM      9  C   UNL     1      45.404   4.401  10.247  0.00  0.00    +0.000 A 
BRANCH   8  10
ATOM     10  C   UNL     1      45.855   2.760   8.387  0.00  0.00    +0.000 A 
ATOM     11  C   UNL     1      46.030   3.599   7.286  0.00  0.00    +0.000 A 
ATOM     12  C   UNL     1      46.650   3.103   6.140  0.00  0.00    +0.000 A 
ATOM     13  C   UNL     1      47.089   1.786   6.120  0.00  0.00    +0.000 A 
ATOM     14  C   UNL     1      46.902   1.022   7.256  0.00  0.00    +0.000 A 
ATOM     15  N   UNL     1      46.302   1.478   8.378  0.00  0.00    +0.000 NA
ENDBRANCH   8  10
ENDBRANCH   1   4
BRANCH   1  16
ATOM     16  C   UNL     1      46.396   6.353  12.296  0.00  0.00    +0.000 C 
BRANCH  16  17
ATOM     17  O   UNL     1      46.908   5.185  12.955  0.00  0.00    +0.000 OA
BRANCH  17  22
ATOM     18  C   UNL     1      47.782   4.522  16.428  0.00  0.00    +0.000 A 
ATOM     19  C   UNL     1      48.556   5.638  16.761  0.00  0.00    +0.000 A 
ATOM     20  C   UNL     1      48.803   6.624  15.810  0.00  0.00    +0.000 A 
ATOM     21  C   UNL     1      48.270   6.504  14.526  0.00  0.00    +0.000 A 
ATOM     22  C   UNL     1      47.483   5.401  14.183  0.00  0.00    +0.000 A 
ATOM     23  C   UNL     1      47.236   4.410  15.140  0.00  0.00    +0.000 A 
BRANCH  18  25
ATOM     24  N   UNL     1      48.572   3.276  18.367  0.00  0.00    +0.000 N 
ATOM     25  C   UNL     1      47.558   3.494  17.478  0.00  0.00    +0.000 C 
ATOM     26  O   UNL     1      46.492   2.899  17.576  0.00  0.00    +0.000 OA
ATOM     27  H   UNL     1      48.360   2.661  19.143  0.00  0.00    +0.000 HD
ATOM     28  H   UNL     1      49.353   3.908  18.468  0.00  0.00    +0.000 HD
ENDBRANCH  18  25
ENDBRANCH  17  22
ENDBRANCH  16  17
ENDBRANCH   1  16
TORSDOF 6
ENDMDL
MODEL 3
REMARK VINA RESULT:    -7.409      1.636      2.226
REMARK INTER + INTRA:         -11.196
REMARK INTER:                 -10.294
REMARK INTRA:                  -0.902
REMARK UNBOUND:                -1.188
REMARK  Name = 
REMARK  6 active torsions:
REMARK  status: ('A' for Active; 'I' for Inactive)
REMARK    1  A    between atoms: C_2  and  C_4
REMARK    2  A    between atoms: C_8  and  O_9
REMARK    3  A    between atoms: O_9  and  C_10
REMARK    4  A    between atoms: C_10  and  C_11
REMARK    5  A    between atoms: C_11  and  C_14
REMARK    6  A    between atoms: C_18  and  C_19
REMARK                            x       y       z     vdW  Elec       q    Type
REMARK                         _______ _______ _______ _____ _____    ______ ____
ROOT
ATOM      1  C   UNL     1      45.200   6.018  11.616  0.00  0.00    +0.000 C 
ATOM      2  F   UNL     1      44.374   7.105  11.615  0.00  0.00    +0.000 F 
ATOM      3  F   UNL     1      44.451   4.984  12.096  0.00  0.00    +0.000 F 
ENDROOT
BRANCH   1   4
ATOM      4  C   UNL     1      46.448   6.260  12.449  0.00  0.00    +0.000 A 
ATOM      5  C   UNL     1      47.321   7.313  12.146  0.00  0.00    +0.000 A 
ATOM      6  C   UNL     1      48.410   7.579  12.973  0.00  0.00    +0.000 A 
ATOM      7  C   UNL     1      48.629   6.805  14.115  0.00  0.00    +0.000 A 
ATOM      8  C   UNL     1      47.775   5.743  14.457  0.00  0.00    +0.000 A 
ATOM      9  C   UNL     1      46.693   5.480  13.596  0.00  0.00    +0.000 A 
BRANCH   8  10
ATOM     10  C   UNL     1      47.974   4.980  15.708  0.00  0.00    +0.000 A 
ATOM     11  C   UNL     1      47.102   3.978  16.136  0.00  0.00    +0.000 A 
ATOM     12  C   UNL     1      47.317   3.365  17.369  0.00  0.00    +0.000 A 
ATOM     13  C   UNL     1      48.400   3.756  18.144  0.00  0.00    +0.000 A 
ATOM     14  C   UNL     1      49.233   4.740  17.645  0.00  0.00    +0.000 A 
ATOM     15  N   UNL     1      49.046   5.352  16.455  0.00  0.00    +0.000 NA
ENDBRANCH   8  10
ENDBRANCH   1   4
BRANCH   1  16
ATOM     16  C   UNL     1      45.625   5.709  10.169  0.00  0.00    +0.000 C 
BRANCH  16  17
ATOM     17  O   UNL     1      44.645   4.933   9.461  0.00  0.00    +0.000 OA
BRANCH  17  22
ATOM     18  C   UNL     1      46.474   2.666   7.274  0.00  0.00    +0.000 A 
ATOM     19  C   UNL     1      46.114   1.410   7.775  0.00  0.00    +0.000 A 
ATOM     20  C   UNL     1      45.258   1.315   8.867  0.00  0.00    +0.000 A 
ATOM     21  C   UNL     1      44.749   2.472   9.459  0.00  0.00    +0.000 A 
ATOM     22  C   UNL     1      45.089   3.733   8.961  0.00  0.00    +0.000 A 
ATOM     23  C   UNL     1      45.951   3.828   7.861  0.00  0.00    +0.000 A 
BRANCH  18  25
ATOM     24  N   UNL     1      48.737   2.618   6.373  0.00  0.00    +0.000 N 
ATOM     25  C   UNL     1      47.400   2.711   6.112  0.00  0.00    +0.000 C 
ATOM     26  O   UNL     1      46.983   2.780   4.962  0.00  0.00    +0.000 OA
ATOM     27  H   UNL     1      49.343   2.532   5.568  0.00  0.00    +0.000 HD
ATOM     28  H   UNL     1      49.097   2.317   7.268  0.00  0.00    +0.000 HD
ENDBRANCH  18  25
ENDBRANCH  17  22
ENDBRANCH  16  17
ENDBRANCH   1  16
TORSDOF 6
ENDMDL
MODEL 4
REMARK VINA RESULT:    -7.398      2.608      7.292
REMARK INTER + INTRA:         -11.181
REMARK INTER:                 -10.176
REMARK INTRA:                  -1.004
REMARK UNBOUND:                -1.188
REMARK  Name = 
REMARK  6 active torsions:
REMARK  status: ('A' for Active; 'I' for Inactive)
REMARK    1  A    between atoms: C_2  and  C_4
REMARK    2  A    between atoms: C_8  and  O_9
REMARK    3  A    between atoms: O_9  and  C_10
REMARK    4  A    between atoms: C_10  and  C_11
REMARK    5  A    between atoms: C_11  and  C_14
REMARK    6  A    between atoms: C_18  and  C_19
REMARK                            x       y       z     vdW  Elec       q    Type
REMARK                         _______ _______ _______ _____ _____    ______ ____
ROOT
ATOM      1  C   UNL     1      45.701   7.654  12.017  0.00  0.00    +0.000 C 
ATOM      2  F   UNL     1      45.302   8.007  13.273  0.00  0.00    +0.000 F 
ATOM      3  F   UNL     1      45.499   8.756  11.240  0.00  0.00    +0.000 F 
ENDROOT
BRANCH   1   4
ATOM      4  C   UNL     1      44.942   6.441  11.505  0.00  0.00    +0.000 A 
ATOM      5  C   UNL     1      43.604   6.229  11.859  0.00  0.00    +0.000 A 
ATOM      6  C   UNL     1      42.894   5.164  11.309  0.00  0.00    +0.000 A 
ATOM      7  C   UNL     1      43.511   4.310  10.392  0.00  0.00    +0.000 A 
ATOM      8  C   UNL     1      44.850   4.490  10.006  0.00  0.00    +0.000 A 
ATOM      9  C   UNL     1      45.553   5.560  10.591  0.00  0.00    +0.000 A 
BRANCH   8  10
ATOM     10  C   UNL     1      45.468   3.625   8.978  0.00  0.00    +0.000 A 
ATOM     11  C   UNL     1      45.488   2.233   9.067  0.00  0.00    +0.000 A 
ATOM     12  C   UNL     1      46.163   1.495   8.096  0.00  0.00    +0.000 A 
ATOM     13  C   UNL     1      46.796   2.160   7.054  0.00  0.00    +0.000 A 
ATOM     14  C   UNL     1      46.715   3.539   7.021  0.00  0.00    +0.000 A 
ATOM     15  N   UNL     1      46.069   4.278   7.950  0.00  0.00    +0.000 NA
ENDBRANCH   8  10
ENDBRANCH   1   4
BRANCH   1  16
ATOM     16  C   UNL     1      47.204   7.320  12.044  0.00  0.00    +0.000 C 
BRANCH  16  17
ATOM     17  O   UNL     1      47.913   8.052  13.056  0.00  0.00    +0.000 OA
BRANCH  17  22
ATOM     18  C   UNL     1      47.907   5.243  15.375  0.00  0.00    +0.000 A 
ATOM     19  C   UNL     1      48.582   5.767  16.482  0.00  0.00    +0.000 A 
ATOM     20  C   UNL     1      49.060   7.073  16.454  0.00  0.00    +0.000 A 
ATOM     21  C   UNL     1      48.857   7.866  15.323  0.00  0.00    +0.000 A 
ATOM     22  C   UNL     1      48.171   7.361  14.214  0.00  0.00    +0.000 A 
ATOM     23  C   UNL     1      47.691   6.046  14.245  0.00  0.00    +0.000 A 
BRANCH  18  25
ATOM     24  N   UNL     1      46.924   3.416  16.653  0.00  0.00    +0.000 N 
ATOM     25  C   UNL     1      47.426   3.838  15.455  0.00  0.00    +0.000 C 
ATOM     26  O   UNL     1      47.434   3.102  14.477  0.00  0.00    +0.000 OA
ATOM     27  H   UNL     1      46.495   2.500  16.658  0.00  0.00    +0.000 HD
ATOM     28  H   UNL     1      46.678   4.055  17.396  0.00  0.00    +0.000 HD
ENDBRANCH  18  25
ENDBRANCH  17  22
ENDBRANCH  16  17
ENDBRANCH   1  16
TORSDOF 6
ENDMDL
MODEL 5
REMARK VINA RESULT:    -7.169      2.760      7.250
REMARK INTER + INTRA:         -10.872
REMARK INTER:                  -9.813
REMARK INTRA:                  -1.059
REMARK UNBOUND:                -1.188
REMARK  Name = 
REMARK  6 active torsions:
REMARK  status: ('A' for Active; 'I' for Inactive)
REMARK    1  A    between atoms: C_2  and  C_4
REMARK    2  A    between atoms: C_8  and  O_9
REMARK    3  A    between atoms: O_9  and  C_10
REMARK    4  A    between atoms: C_10  and  C_11
REMARK    5  A    between atoms: C_11  and  C_14
REMARK    6  A    between atoms: C_18  and  C_19
REMARK                            x       y       z     vdW  Elec       q    Type
REMARK                         _______ _______ _______ _____ _____    ______ ____
ROOT
ATOM      1  C   UNL     1      44.146   6.257  11.561  0.00  0.00    +0.000 C 
ATOM      2  F   UNL     1      44.083   6.393  12.918  0.00  0.00    +0.000 F 
ATOM      3  F   UNL     1      43.049   6.903  11.072  0.00  0.00    +0.000 F 
ENDROOT
BRANCH   1   4
ATOM      4  C   UNL     1      44.187   4.796  11.143  0.00  0.00    +0.000 A 
ATOM      5  C   UNL     1      43.344   3.853  11.745  0.00  0.00    +0.000 A 
ATOM      6  C   UNL     1      43.328   2.537  11.288  0.00  0.00    +0.000 A 
ATOM      7  C   UNL     1      44.141   2.155  10.219  0.00  0.00    +0.000 A 
ATOM      8  C   UNL     1      44.997   3.071   9.584  0.00  0.00    +0.000 A 
ATOM      9  C   UNL     1      45.012   4.390  10.076  0.00  0.00    +0.000 A 
BRANCH   8  10
ATOM     10  C   UNL     1      45.797   2.674   8.405  0.00  0.00    +0.000 A 
ATOM     11  C   UNL     1      46.035   3.525   7.326  0.00  0.00    +0.000 A 
ATOM     12  C   UNL     1      46.730   3.044   6.217  0.00  0.00    +0.000 A 
ATOM     13  C   UNL     1      47.178   1.731   6.211  0.00  0.00    +0.000 A 
ATOM     14  C   UNL     1      46.924   0.954   7.326  0.00  0.00    +0.000 A 
ATOM     15  N   UNL     1      46.252   1.394   8.413  0.00  0.00    +0.000 NA
ENDBRANCH   8  10
ENDBRANCH   1   4
BRANCH   1  16
ATOM     16  C   UNL     1      45.418   6.953  11.046  0.00  0.00    +0.000 C 
BRANCH  16  17
ATOM     17  O   UNL     1      45.852   8.017  11.908  0.00  0.00    +0.000 OA
BRANCH  17  22
ATOM     18  C   UNL     1      48.429   6.827  14.189  0.00  0.00    +0.000 A 
ATOM     19  C   UNL     1      49.581   7.443  13.688  0.00  0.00    +0.000 A 
ATOM     20  C   UNL     1      49.502   8.259  12.564  0.00  0.00    +0.000 A 
ATOM     21  C   UNL     1      48.272   8.471  11.941  0.00  0.00    +0.000 A 
ATOM     22  C   UNL     1      47.110   7.874  12.438  0.00  0.00    +0.000 A 
ATOM     23  C   UNL     1      47.191   7.053  13.569  0.00  0.00    +0.000 A 
BRANCH  18  25
ATOM     24  N   UNL     1      47.500   5.181  15.726  0.00  0.00    +0.000 N 
ATOM     25  C   UNL     1      48.571   5.958  15.387  0.00  0.00    +0.000 C 
ATOM     26  O   UNL     1      49.619   5.901  16.018  0.00  0.00    +0.000 OA
ATOM     27  H   UNL     1      47.654   4.511  16.469  0.00  0.00    +0.000 HD
ATOM     28  H   UNL     1      46.725   5.019  15.099  0.00  0.00    +0.000 HD
ENDBRANCH  18  25
ENDBRANCH  17  22
ENDBRANCH  16  17
ENDBRANCH   1  16
TORSDOF 6
ENDMDL
MODEL 6
REMARK VINA RESULT:    -6.901      3.680      5.878
REMARK INTER + INTRA:         -10.509
REMARK INTER:                  -9.771
REMARK INTRA:                  -0.738
REMARK UNBOUND:                -1.188
REMARK  Name = 
REMARK  6 active torsions:
REMARK  status: ('A' for Active; 'I' for Inactive)
REMARK    1  A    between atoms: C_2  and  C_4
REMARK    2  A    between atoms: C_8  and  O_9
REMARK    3  A    between atoms: O_9  and  C_10
REMARK    4  A    between atoms: C_10  and  C_11
REMARK    5  A    between atoms: C_11  and  C_14
REMARK    6  A    between atoms: C_18  and  C_19
REMARK                            x       y       z     vdW  Elec       q    Type
REMARK                         _______ _______ _______ _____ _____    ______ ____
ROOT
ATOM      1  C   UNL     1      47.987   3.042  16.974  0.00  0.00    +0.000 C 
ATOM      2  F   UNL     1      47.014   2.372  17.656  0.00  0.00    +0.000 F 
ATOM      3  F   UNL     1      48.765   2.082  16.398  0.00  0.00    +0.000 F 
ENDROOT
BRANCH   1   4
ATOM      4  C   UNL     1      48.786   3.958  17.887  0.00  0.00    +0.000 A 
ATOM      5  C   UNL     1      50.181   3.860  17.961  0.00  0.00    +0.000 A 
ATOM      6  C   UNL     1      50.907   4.766  18.731  0.00  0.00    +0.000 A 
ATOM      7  C   UNL     1      50.247   5.785  19.423  0.00  0.00    +0.000 A 
ATOM      8  C   UNL     1      48.850   5.921  19.372  0.00  0.00    +0.000 A 
ATOM      9  C   UNL     1      48.136   4.982  18.604  0.00  0.00    +0.000 A 
BRANCH   8  10
ATOM     10  C   UNL     1      48.171   7.048  20.047  0.00  0.00    +0.000 A 
ATOM     11  C   UNL     1      47.810   8.224  19.388  0.00  0.00    +0.000 A 
ATOM     12  C   UNL     1      47.248   9.271  20.116  0.00  0.00    +0.000 A 
ATOM     13  C   UNL     1      47.050   9.121  21.482  0.00  0.00    +0.000 A 
ATOM     14  C   UNL     1      47.411   7.919  22.061  0.00  0.00    +0.000 A 
ATOM     15  N   UNL     1      47.960   6.890  21.379  0.00  0.00    +0.000 NA
ENDBRANCH   8  10
ENDBRANCH   1   4
BRANCH   1  16
ATOM     16  C   UNL     1      47.332   3.894  15.872  0.00  0.00    +0.000 C 
BRANCH  16  17
ATOM     17  O   UNL     1      47.392   3.268  14.582  0.00  0.00    +0.000 OA
BRANCH  17  22
ATOM     18  C   UNL     1      45.110   3.782  11.790  0.00  0.00    +0.000 A 
ATOM     19  C   UNL     1      45.355   5.114  11.444  0.00  0.00    +0.000 A 
ATOM     20  C   UNL     1      46.287   5.861  12.159  0.00  0.00    +0.000 A 
ATOM     21  C   UNL     1      46.985   5.277  13.216  0.00  0.00    +0.000 A 
ATOM     22  C   UNL     1      46.761   3.941  13.566  0.00  0.00    +0.000 A 
ATOM     23  C   UNL     1      45.823   3.192  12.845  0.00  0.00    +0.000 A 
BRANCH  18  25
ATOM     24  N   UNL     1      44.548   2.303   9.937  0.00  0.00    +0.000 N 
ATOM     25  C   UNL     1      44.097   3.034  11.000  0.00  0.00    +0.000 C 
ATOM     26  O   UNL     1      42.914   3.030  11.313  0.00  0.00    +0.000 OA
ATOM     27  H   UNL     1      43.866   1.709   9.484  0.00  0.00    +0.000 HD
ATOM     28  H   UNL     1      45.526   2.087   9.800  0.00  0.00    +0.000 HD
ENDBRANCH  18  25
ENDBRANCH  17  22
ENDBRANCH  16  17
ENDBRANCH   1  16
TORSDOF 6
ENDMDL
MODEL 7
REMARK VINA RESULT:    -6.891      3.806      7.565
REMARK INTER + INTRA:         -10.497
REMARK INTER:                  -8.855
REMARK INTRA:                  -1.642
REMARK UNBOUND:                -1.188
REMARK  Name = 
REMARK  6 active torsions:
REMARK  status: ('A' for Active; 'I' for Inactive)
REMARK    1  A    between atoms: C_2  and  C_4
REMARK    2  A    between atoms: C_8  and  O_9
REMARK    3  A    between atoms: O_9  and  C_10
REMARK    4  A    between atoms: C_10  and  C_11
REMARK    5  A    between atoms: C_11  and  C_14
REMARK    6  A    between atoms: C_18  and  C_19
REMARK                            x       y       z     vdW  Elec       q    Type
REMARK                         _______ _______ _______ _____ _____    ______ ____
ROOT
ATOM      1  C   UNL     1      49.253   8.455  12.265  0.00  0.00    +0.000 C 
ATOM      2  F   UNL     1      49.437   9.784  12.515  0.00  0.00    +0.000 F 
ATOM      3  F   UNL     1      49.786   8.232  11.030  0.00  0.00    +0.000 F 
ENDROOT
BRANCH   1   4
ATOM      4  C   UNL     1      47.785   8.067  12.337  0.00  0.00    +0.000 A 
ATOM      5  C   UNL     1      46.841   8.929  12.910  0.00  0.00    +0.000 A 
ATOM      6  C   UNL     1      45.488   8.600  12.886  0.00  0.00    +0.000 A 
ATOM      7  C   UNL     1      45.064   7.416  12.278  0.00  0.00    +0.000 A 
ATOM      8  C   UNL     1      45.978   6.526  11.687  0.00  0.00    +0.000 A 
ATOM      9  C   UNL     1      47.342   6.869  11.742  0.00  0.00    +0.000 A 
BRANCH   8  10
ATOM     10  C   UNL     1      45.510   5.314  10.981  0.00  0.00    +0.000 A 
ATOM     11  C   UNL     1      45.476   5.210   9.590  0.00  0.00    +0.000 A 
ATOM     12  C   UNL     1      44.943   4.063   9.003  0.00  0.00    +0.000 A 
ATOM     13  C   UNL     1      44.465   3.043   9.814  0.00  0.00    +0.000 A 
ATOM     14  C   UNL     1      44.553   3.208  11.184  0.00  0.00    +0.000 A 
ATOM     15  N   UNL     1      45.062   4.310  11.778  0.00  0.00    +0.000 NA
ENDBRANCH   8  10
ENDBRANCH   1   4
BRANCH   1  16
ATOM     16  C   UNL     1      50.031   7.635  13.311  0.00  0.00    +0.000 C 
BRANCH  16  17
ATOM     17  O   UNL     1      49.743   8.044  14.657  0.00  0.00    +0.000 OA
BRANCH  17  22
ATOM     18  C   UNL     1      48.230   5.104  16.184  0.00  0.00    +0.000 A 
ATOM     19  C   UNL     1      49.057   4.881  17.290  0.00  0.00    +0.000 A 
ATOM     20  C   UNL     1      50.145   5.716  17.526  0.00  0.00    +0.000 A 
ATOM     21  C   UNL     1      50.407   6.782  16.665  0.00  0.00    +0.000 A 
ATOM     22  C   UNL     1      49.581   7.026  15.563  0.00  0.00    +0.000 A 
ATOM     23  C   UNL     1      48.487   6.185  15.327  0.00  0.00    +0.000 A 
BRANCH  18  25
ATOM     24  N   UNL     1      46.581   4.087  14.707  0.00  0.00    +0.000 N 
ATOM     25  C   UNL     1      47.088   4.176  15.972  0.00  0.00    +0.000 C 
ATOM     26  O   UNL     1      46.647   3.484  16.881  0.00  0.00    +0.000 OA
ATOM     27  H   UNL     1      45.886   3.367  14.556  0.00  0.00    +0.000 HD
ATOM     28  H   UNL     1      47.068   4.448  13.898  0.00  0.00    +0.000 HD
ENDBRANCH  18  25
ENDBRANCH  17  22
ENDBRANCH  16  17
ENDBRANCH   1  16
TORSDOF 6
ENDMDL
MODEL 8
REMARK VINA RESULT:    -6.703      3.702      5.821
REMARK INTER + INTRA:         -10.243
REMARK INTER:                  -9.449
REMARK INTRA:                  -0.794
REMARK UNBOUND:                -1.188
REMARK  Name = 
REMARK  6 active torsions:
REMARK  status: ('A' for Active; 'I' for Inactive)
REMARK    1  A    between atoms: C_2  and  C_4
REMARK    2  A    between atoms: C_8  and  O_9
REMARK    3  A    between atoms: O_9  and  C_10
REMARK    4  A    between atoms: C_10  and  C_11
REMARK    5  A    between atoms: C_11  and  C_14
REMARK    6  A    between atoms: C_18  and  C_19
REMARK                            x       y       z     vdW  Elec       q    Type
REMARK                         _______ _______ _______ _____ _____    ______ ____
ROOT
ATOM      1  C   UNL     1      48.045   3.122  16.649  0.00  0.00    +0.000 C 
ATOM      2  F   UNL     1      47.255   2.685  17.672  0.00  0.00    +0.000 F 
ATOM      3  F   UNL     1      48.463   1.999  15.998  0.00  0.00    +0.000 F 
ENDROOT
BRANCH   1   4
ATOM      4  C   UNL     1      49.208   3.960  17.155  0.00  0.00    +0.000 A 
ATOM      5  C   UNL     1      49.087   5.349  17.288  0.00  0.00    +0.000 A 
ATOM      6  C   UNL     1      50.129   6.092  17.839  0.00  0.00    +0.000 A 
ATOM      7  C   UNL     1      51.293   5.454  18.274  0.00  0.00    +0.000 A 
ATOM      8  C   UNL     1      51.452   4.062  18.163  0.00  0.00    +0.000 A 
ATOM      9  C   UNL     1      50.395   3.335  17.584  0.00  0.00    +0.000 A 
BRANCH   8  10
ATOM     10  C   UNL     1      52.656   3.390  18.696  0.00  0.00    +0.000 A 
ATOM     11  C   UNL     1      53.299   2.343  18.034  0.00  0.00    +0.000 A 
ATOM     12  C   UNL     1      54.380   1.709  18.645  0.00  0.00    +0.000 A 
ATOM     13  C   UNL     1      54.802   2.137  19.896  0.00  0.00    +0.000 A 
ATOM     14  C   UNL     1      54.130   3.195  20.480  0.00  0.00    +0.000 A 
ATOM     15  N   UNL     1      53.079   3.825  19.911  0.00  0.00    +0.000 NA
ENDBRANCH   8  10
ENDBRANCH   1   4
BRANCH   1  16
ATOM     16  C   UNL     1      47.199   3.980  15.691  0.00  0.00    +0.000 C 
BRANCH  16  17
ATOM     17  O   UNL     1      47.117   3.415  14.373  0.00  0.00    +0.000 OA
BRANCH  17  22
ATOM     18  C   UNL     1      45.021   4.511  11.603  0.00  0.00    +0.000 A 
ATOM     19  C   UNL     1      45.510   5.795  11.346  0.00  0.00    +0.000 A 
ATOM     20  C   UNL     1      46.548   6.313  12.115  0.00  0.00    +0.000 A 
ATOM     21  C   UNL     1      47.108   5.546  13.138  0.00  0.00    +0.000 A 
ATOM     22  C   UNL     1      46.639   4.255  13.398  0.00  0.00    +0.000 A 
ATOM     23  C   UNL     1      45.594   3.736  12.623  0.00  0.00    +0.000 A 
BRANCH  18  25
ATOM     24  N   UNL     1      43.818   4.497   9.485  0.00  0.00    +0.000 N 
ATOM     25  C   UNL     1      43.904   4.011  10.758  0.00  0.00    +0.000 C 
ATOM     26  O   UNL     1      43.121   3.163  11.166  0.00  0.00    +0.000 OA
ATOM     27  H   UNL     1      43.127   4.061   8.887  0.00  0.00    +0.000 HD
ATOM     28  H   UNL     1      44.574   4.999   9.041  0.00  0.00    +0.000 HD
ENDBRANCH  18  25
ENDBRANCH  17  22
ENDBRANCH  16  17
ENDBRANCH   1  16
TORSDOF 6
ENDMDL
MODEL 9
REMARK VINA RESULT:    -6.646      2.417      3.764
REMARK INTER + INTRA:         -10.165
REMARK INTER:                  -9.047
REMARK INTRA:                  -1.118
REMARK UNBOUND:                -1.188
REMARK  Name = 
REMARK  6 active torsions:
REMARK  status: ('A' for Active; 'I' for Inactive)
REMARK    1  A    between atoms: C_2  and  C_4
REMARK    2  A    between atoms: C_8  and  O_9
REMARK    3  A    between atoms: O_9  and  C_10
REMARK    4  A    between atoms: C_10  and  C_11
REMARK    5  A    between atoms: C_11  and  C_14
REMARK    6  A    between atoms: C_18  and  C_19
REMARK                            x       y       z     vdW  Elec       q    Type
REMARK                         _______ _______ _______ _____ _____    ______ ____
ROOT
ATOM      1  C   UNL     1      47.221   7.792  12.292  0.00  0.00    +0.000 C 
ATOM      2  F   UNL     1      47.525   6.958  11.256  0.00  0.00    +0.000 F 
ATOM      3  F   UNL     1      47.262   9.054  11.777  0.00  0.00    +0.000 F 
ENDROOT
BRANCH   1   4
ATOM      4  C   UNL     1      48.181   7.615  13.457  0.00  0.00    +0.000 A 
ATOM      5  C   UNL     1      49.186   8.558  13.709  0.00  0.00    +0.000 A 
ATOM      6  C   UNL     1      49.999   8.430  14.833  0.00  0.00    +0.000 A 
ATOM      7  C   UNL     1      49.807   7.370  15.722  0.00  0.00    +0.000 A 
ATOM      8  C   UNL     1      48.807   6.405  15.508  0.00  0.00    +0.000 A 
ATOM      9  C   UNL     1      48.011   6.543  14.355  0.00  0.00    +0.000 A 
BRANCH   8  10
ATOM     10  C   UNL     1      48.564   5.331  16.495  0.00  0.00    +0.000 A 
ATOM     11  C   UNL     1      49.038   5.381  17.807  0.00  0.00    +0.000 A 
ATOM     12  C   UNL     1      48.835   4.289  18.649  0.00  0.00    +0.000 A 
ATOM     13  C   UNL     1      48.158   3.176  18.170  0.00  0.00    +0.000 A 
ATOM     14  C   UNL     1      47.698   3.208  16.866  0.00  0.00    +0.000 A 
ATOM     15  N   UNL     1      47.883   4.252  16.029  0.00  0.00    +0.000 NA
ENDBRANCH   8  10
ENDBRANCH   1   4
BRANCH   1  16
ATOM     16  C   UNL     1      45.793   7.488  12.779  0.00  0.00    +0.000 C 
BRANCH  16  17
ATOM     17  O   UNL     1      44.916   7.102  11.709  0.00  0.00    +0.000 OA
BRANCH  17  22
ATOM     18  C   UNL     1      44.416   3.735  10.415  0.00  0.00    +0.000 A 
ATOM     19  C   UNL     1      43.795   3.090  11.489  0.00  0.00    +0.000 A 
ATOM     20  C   UNL     1      43.549   3.782  12.671  0.00  0.00    +0.000 A 
ATOM     21  C   UNL     1      43.913   5.125  12.781  0.00  0.00    +0.000 A 
ATOM     22  C   UNL     1      44.522   5.787  11.711  0.00  0.00    +0.000 A 
ATOM     23  C   UNL     1      44.768   5.089  10.523  0.00  0.00    +0.000 A 
BRANCH  18  25
ATOM     24  N   UNL     1      44.347   3.534   7.988  0.00  0.00    +0.000 N 
ATOM     25  C   UNL     1      44.663   2.946   9.179  0.00  0.00    +0.000 C 
ATOM     26  O   UNL     1      45.174   1.834   9.221  0.00  0.00    +0.000 OA
ATOM     27  H   UNL     1      44.631   3.033   7.155  0.00  0.00    +0.000 HD
ATOM     28  H   UNL     1      44.160   4.523   7.901  0.00  0.00    +0.000 HD
ENDBRANCH  18  25
ENDBRANCH  17  22
ENDBRANCH  16  17
ENDBRANCH   1  16
TORSDOF 6
ENDMDL
