MODEL 1
REMARK VINA RESULT:    -7.955      0.000      0.000
REMARK INTER + INTRA:         -12.730
REMARK INTER:                 -11.908
REMARK INTRA:                  -0.821
REMARK UNBOUND:                -0.821
REMARK  Name = 
REMARK  9 active torsions:
REMARK  status: ('A' for Active; 'I' for Inactive)
REMARK    1  A    between atoms: C_2  and  C_22
REMARK    2  A    between atoms: N_3  and  C_4
REMARK    3  A    between atoms: C_4  and  C_5
REMARK    4  A    between atoms: C_8  and  C_9
REMARK    5  A    between atoms: C_9  and  N_10
REMARK    6  A    between atoms: N_10  and  CA_11
REMARK    7  A    between atoms: CA_11  and  C_12
REMARK    8  A    between atoms: CA_11  and  C_14
REMARK    9  A    between atoms: C_12  and  O_13
REMARK                            x       y       z     vdW  Elec       q    Type
REMARK                         _______ _______ _______ _____ _____    ______ ____
ROOT
ATOM      1  C   UNL     1      46.270   7.860  12.988  0.00  0.00    +0.000 A 
ATOM      2  C   UNL     1      45.495   8.534  12.034  0.00  0.00    +0.000 A 
ATOM      3  C   UNL     1      44.438   7.884  11.381  0.00  0.00    +0.000 A 
ATOM      4  C   UNL     1      44.123   6.547  11.670  0.00  0.00    +0.000 A 
ATOM      5  C   UNL     1      44.898   5.877  12.624  0.00  0.00    +0.000 A 
ATOM      6  C   UNL     1      45.952   6.527  13.282  0.00  0.00    +0.000 A 
ENDROOT
BRANCH   1   7
ATOM      7  C   UNL     1      47.410   8.553  13.696  0.00  0.00    +0.000 C 
BRANCH   7  10
ATOM      8  O   UNL     1      49.621   6.827  13.851  0.00  0.00    +0.000 OA
ATOM      9  C   UNL     1      48.940   7.009  14.859  0.00  0.00    +0.000 C 
ATOM     10  N   UNL     1      47.830   7.831  14.876  0.00  0.00    +0.000 N 
ATOM     11  H   UNL     1      47.352   8.039  15.738  0.00  0.00    +0.000 HD
BRANCH   9  12
ATOM     12  C   UNL     1      49.250   6.372  16.131  0.00  0.00    +0.000 A 
ATOM     13  C   UNL     1      50.206   6.730  17.110  0.00  0.00    +0.000 A 
ATOM     14  N   UNL     1      50.217   5.920  18.169  0.00  0.00    +0.000 NA
ATOM     15  N   UNL     1      49.253   5.011  17.900  0.00  0.00    +0.000 N 
ATOM     16  C   UNL     1      48.846   3.934  18.667  0.00  0.00    +0.000 A 
ATOM     17  C   UNL     1      47.864   3.146  18.215  0.00  0.00    +0.000 A 
ATOM     18  N   UNL     1      47.227   3.343  17.008  0.00  0.00    +0.000 NA
ATOM     19  C   UNL     1      47.602   4.354  16.272  0.00  0.00    +0.000 A 
ATOM     20  C   UNL     1      48.648   5.254  16.682  0.00  0.00    +0.000 A 
ENDBRANCH   9  12
ENDBRANCH   7  10
ENDBRANCH   1   7
BRANCH   4  21
ATOM     21  C   UNL     1      42.942   5.860  11.008  0.00  0.00    +0.000 C 
BRANCH  21  22
ATOM     22  N   UNL     1      43.378   4.922   9.978  0.00  0.00    +0.000 NA
ATOM     23  H   UNL     1      43.881   5.457   9.266  0.00  0.00    +0.000 HD
BRANCH  22  24
ATOM     24  CA  UNL     1      44.304   3.865  10.458  0.00  0.00    +0.000 C 
BRANCH  24  25
ATOM     25  C   UNL     1      45.191   3.389   9.301  0.00  0.00    +0.000 A 
ATOM     26  C   UNL     1      45.417   2.016   9.093  0.00  0.00    +0.000 A 
ATOM     27  C   UNL     1      46.201   1.579   8.019  0.00  0.00    +0.000 A 
ATOM     28  C   UNL     1      46.771   2.502   7.144  0.00  0.00    +0.000 A 
ATOM     29  C   UNL     1      46.560   3.862   7.337  0.00  0.00    +0.000 A 
ATOM     30  C   UNL     1      45.770   4.298   8.400  0.00  0.00    +0.000 A 
ENDBRANCH  24  25
BRANCH  24  31
ATOM     31  C   UNL     1      43.576   2.652  11.103  0.00  0.00    +0.000 C 
BRANCH  31  32
ATOM     32  O   UNL     1      43.915   2.479  12.479  0.00  0.00    +0.000 OA
ATOM     33  H   UNL     1      44.890   2.487  12.514  0.00  0.00    +0.000 HD
ENDBRANCH  31  32
ENDBRANCH  24  31
ENDBRANCH  22  24
ENDBRANCH  21  22
ENDBRANCH   4  21
TORSDOF 9
ENDMDL
MODEL 2
REMARK VINA RESULT:    -7.696      1.700      2.479
REMARK INTER + INTRA:         -12.342
REMARK INTER:                 -11.302
REMARK INTRA:                  -1.039
REMARK UNBOUND:                -0.821
REMARK  Name = 
REMARK  9 active torsions:
REMARK  status: ('A' for Active; 'I' for Inactive)
REMARK    1  A    between atoms: C_2  and  C_22
REMARK    2  A    between atoms: N_3  and  C_4
REMARK    3  A    between atoms: C_4  and  C_5
REMARK    4  A    between atoms: C_8  and  C_9
REMARK    5  A    between atoms: C_9  and  N_10
REMARK    6  A    between atoms: N_10  and  CA_11
REMARK    7  A    between atoms: CA_11  and  C_12
REMARK    8  A    between atoms: CA_11  and  C_14
REMARK    9  A    between atoms: C_12  and  O_13
REMARK                            x       y       z     vdW  Elec       q    Type
REMARK                         _______ _______ _______ _____ _____    ______ ____
ROOT
ATOM      1  C   UNL     1      46.859   6.260  13.121  0.00  0.00    +0.000 A 
ATOM      2  C   UNL     1      45.854   5.421  13.624  0.00  0.00    +0.000 A 
ATOM      3  C   UNL     1      44.689   5.176  12.883  0.00  0.00    +0.000 A 
ATOM      4  C   UNL     1      44.500   5.758  11.620  0.00  0.00    +0.000 A 
ATOM      5  C   UNL     1      45.506   6.595  11.120  0.00  0.00    +0.000 A 
ATOM      6  C   UNL     1      46.675   6.835  11.857  0.00  0.00    +0.000 A 
ENDROOT
BRANCH   1   7
ATOM      7  C   UNL     1      48.117   6.528  13.913  0.00  0.00    +0.000 C 
BRANCH   7  10
ATOM      8  O   UNL     1      50.202   6.482  15.795  0.00  0.00    +0.000 OA
ATOM      9  C   UNL     1      49.089   6.080  16.133  0.00  0.00    +0.000 C 
ATOM     10  N   UNL     1      48.008   6.056  15.274  0.00  0.00    +0.000 N 
ATOM     11  H   UNL     1      47.088   5.816  15.607  0.00  0.00    +0.000 HD
BRANCH   9  12
ATOM     12  C   UNL     1      48.815   5.596  17.478  0.00  0.00    +0.000 A 
ATOM     13  C   UNL     1      48.940   4.292  18.011  0.00  0.00    +0.000 A 
ATOM     14  N   UNL     1      48.608   4.206  19.299  0.00  0.00    +0.000 NA
ATOM     15  N   UNL     1      48.261   5.468  19.637  0.00  0.00    +0.000 N 
ATOM     16  C   UNL     1      47.826   5.945  20.861  0.00  0.00    +0.000 A 
ATOM     17  C   UNL     1      47.529   7.243  20.986  0.00  0.00    +0.000 A 
ATOM     18  N   UNL     1      47.626   8.148  19.951  0.00  0.00    +0.000 NA
ATOM     19  C   UNL     1      48.033   7.713  18.789  0.00  0.00    +0.000 A 
ATOM     20  C   UNL     1      48.376   6.332  18.565  0.00  0.00    +0.000 A 
ENDBRANCH   9  12
ENDBRANCH   7  10
ENDBRANCH   1   7
BRANCH   4  21
ATOM     21  C   UNL     1      43.267   5.447  10.790  0.00  0.00    +0.000 C 
BRANCH  21  22
ATOM     22  N   UNL     1      43.578   4.539   9.690  0.00  0.00    +0.000 NA
ATOM     23  H   UNL     1      44.077   5.077   8.977  0.00  0.00    +0.000 HD
BRANCH  22  24
ATOM     24  CA  UNL     1      44.453   3.398  10.061  0.00  0.00    +0.000 C 
BRANCH  24  25
ATOM     25  C   UNL     1      45.384   3.058   8.891  0.00  0.00    +0.000 A 
ATOM     26  C   UNL     1      45.871   4.073   8.047  0.00  0.00    +0.000 A 
ATOM     27  C   UNL     1      46.746   3.767   6.998  0.00  0.00    +0.000 A 
ATOM     28  C   UNL     1      47.142   2.450   6.775  0.00  0.00    +0.000 A 
ATOM     29  C   UNL     1      46.668   1.435   7.598  0.00  0.00    +0.000 A 
ATOM     30  C   UNL     1      45.805   1.739   8.650  0.00  0.00    +0.000 A 
ENDBRANCH  24  25
BRANCH  24  31
ATOM     31  C   UNL     1      43.664   2.131  10.498  0.00  0.00    +0.000 C 
BRANCH  31  32
ATOM     32  O   UNL     1      43.357   2.132  11.892  0.00  0.00    +0.000 OA
ATOM     33  H   UNL     1      42.481   2.553  11.970  0.00  0.00    +0.000 HD
ENDBRANCH  31  32
ENDBRANCH  24  31
ENDBRANCH  22  24
ENDBRANCH  21  22
ENDBRANCH   4  21
TORSDOF 9
ENDMDL
MODEL 3
REMARK VINA RESULT:    -7.231      2.426      8.221
REMARK INTER + INTRA:         -11.645
REMARK INTER:                  -9.765
REMARK INTRA:                  -1.880
REMARK UNBOUND:                -0.821
REMARK  Name = 
REMARK  9 active torsions:
REMARK  status: ('A' for Active; 'I' for Inactive)
REMARK    1  A    between atoms: C_2  and  C_22
REMARK    2  A    between atoms: N_3  and  C_4
REMARK    3  A    between atoms: C_4  and  C_5
REMARK    4  A    between atoms: C_8  and  C_9
REMARK    5  A    between atoms: C_9  and  N_10
REMARK    6  A    between atoms: N_10  and  CA_11
REMARK    7  A    between atoms: CA_11  and  C_12
REMARK    8  A    between atoms: CA_11  and  C_14
REMARK    9  A    between atoms: C_12  and  O_13
REMARK                            x       y       z     vdW  Elec       q    Type
REMARK                         _______ _______ _______ _____ _____    ______ ____
ROOT
ATOM      1  C   UNL     1      48.443   7.882  14.201  0.00  0.00    +0.000 A 
ATOM      2  C   UNL     1      49.293   6.868  14.667  0.00  0.00    +0.000 A 
ATOM      3  C   UNL     1      49.711   6.842  16.005  0.00  0.00    +0.000 A 
ATOM      4  C   UNL     1      49.287   7.824  16.914  0.00  0.00    +0.000 A 
ATOM      5  C   UNL     1      48.438   8.835  16.445  0.00  0.00    +0.000 A 
ATOM      6  C   UNL     1      48.014   8.859  15.109  0.00  0.00    +0.000 A 
ENDROOT
BRANCH   1   7
ATOM      7  C   UNL     1      47.988   7.916  12.762  0.00  0.00    +0.000 C 
BRANCH   7  10
ATOM      8  O   UNL     1      45.196   7.611  12.839  0.00  0.00    +0.000 OA
ATOM      9  C   UNL     1      45.886   6.665  12.459  0.00  0.00    +0.000 C 
ATOM     10  N   UNL     1      47.264   6.719  12.397  0.00  0.00    +0.000 N 
ATOM     11  H   UNL     1      47.794   5.967  11.989  0.00  0.00    +0.000 HD
BRANCH   9  12
ATOM     12  C   UNL     1      45.302   5.401  12.035  0.00  0.00    +0.000 A 
ATOM     13  C   UNL     1      44.640   4.412  12.799  0.00  0.00    +0.000 A 
ATOM     14  N   UNL     1      44.220   3.371  12.079  0.00  0.00    +0.000 NA
ATOM     15  N   UNL     1      44.599   3.669  10.815  0.00  0.00    +0.000 N 
ATOM     16  C   UNL     1      44.416   2.925   9.663  0.00  0.00    +0.000 A 
ATOM     17  C   UNL     1      44.873   3.403   8.500  0.00  0.00    +0.000 A 
ATOM     18  N   UNL     1      45.530   4.609   8.380  0.00  0.00    +0.000 NA
ATOM     19  C   UNL     1      45.712   5.322   9.459  0.00  0.00    +0.000 A 
ATOM     20  C   UNL     1      45.251   4.885  10.752  0.00  0.00    +0.000 A 
ENDBRANCH   9  12
ENDBRANCH   7  10
ENDBRANCH   1   7
BRANCH   4  21
ATOM     21  C   UNL     1      49.690   7.765  18.376  0.00  0.00    +0.000 C 
BRANCH  21  22
ATOM     22  N   UNL     1      48.560   7.403  19.227  0.00  0.00    +0.000 NA
ATOM     23  H   UNL     1      47.724   7.381  18.638  0.00  0.00    +0.000 HD
BRANCH  22  24
ATOM     24  CA  UNL     1      48.673   6.067  19.866  0.00  0.00    +0.000 C 
BRANCH  24  25
ATOM     25  C   UNL     1      48.488   4.971  18.811  0.00  0.00    +0.000 A 
ATOM     26  C   UNL     1      47.295   4.888  18.068  0.00  0.00    +0.000 A 
ATOM     27  C   UNL     1      47.137   3.907  17.083  0.00  0.00    +0.000 A 
ATOM     28  C   UNL     1      48.161   2.995  16.828  0.00  0.00    +0.000 A 
ATOM     29  C   UNL     1      49.344   3.062  17.555  0.00  0.00    +0.000 A 
ATOM     30  C   UNL     1      49.507   4.046  18.529  0.00  0.00    +0.000 A 
ENDBRANCH  24  25
BRANCH  24  31
ATOM     31  C   UNL     1      47.668   5.855  21.035  0.00  0.00    +0.000 C 
BRANCH  31  32
ATOM     32  O   UNL     1      47.787   4.563  21.631  0.00  0.00    +0.000 OA
ATOM     33  H   UNL     1      48.162   4.716  22.519  0.00  0.00    +0.000 HD
ENDBRANCH  31  32
ENDBRANCH  24  31
ENDBRANCH  22  24
ENDBRANCH  21  22
ENDBRANCH   4  21
TORSDOF 9
ENDMDL
MODEL 4
REMARK VINA RESULT:    -7.182      4.903      6.318
REMARK INTER + INTRA:         -11.571
REMARK INTER:                 -10.457
REMARK INTRA:                  -1.114
REMARK UNBOUND:                -0.821
REMARK  Name = 
REMARK  9 active torsions:
REMARK  status: ('A' for Active; 'I' for Inactive)
REMARK    1  A    between atoms: C_2  and  C_22
REMARK    2  A    between atoms: N_3  and  C_4
REMARK    3  A    between atoms: C_4  and  C_5
REMARK    4  A    between atoms: C_8  and  C_9
REMARK    5  A    between atoms: C_9  and  N_10
REMARK    6  A    between atoms: N_10  and  CA_11
REMARK    7  A    between atoms: CA_11  and  C_12
REMARK    8  A    between atoms: CA_11  and  C_14
REMARK    9  A    between atoms: C_12  and  O_13
REMARK                            x       y       z     vdW  Elec       q    Type
REMARK                         _______ _______ _______ _____ _____    ______ ____
ROOT
ATOM      1  C   UNL     1      49.160   8.988  11.691  0.00  0.00    +0.000 A 
ATOM      2  C   UNL     1      48.857   7.619  11.679  0.00  0.00    +0.000 A 
ATOM      3  C   UNL     1      47.549   7.173  11.918  0.00  0.00    +0.000 A 
ATOM      4  C   UNL     1      46.510   8.083  12.169  0.00  0.00    +0.000 A 
ATOM      5  C   UNL     1      46.816   9.450  12.179  0.00  0.00    +0.000 A 
ATOM      6  C   UNL     1      48.122   9.897  11.934  0.00  0.00    +0.000 A 
ENDROOT
BRANCH   1   7
ATOM      7  C   UNL     1      50.566   9.476  11.434  0.00  0.00    +0.000 C 
BRANCH   7  10
ATOM      8  O   UNL     1      52.459   9.534   9.359  0.00  0.00    +0.000 OA
ATOM      9  C   UNL     1      52.363   8.517  10.046  0.00  0.00    +0.000 C 
ATOM     10  N   UNL     1      51.456   8.394  11.080  0.00  0.00    +0.000 N 
ATOM     11  H   UNL     1      51.468   7.591  11.687  0.00  0.00    +0.000 HD
BRANCH   9  12
ATOM     12  C   UNL     1      53.207   7.351   9.829  0.00  0.00    +0.000 A 
ATOM     13  C   UNL     1      54.190   6.779  10.669  0.00  0.00    +0.000 A 
ATOM     14  N   UNL     1      54.772   5.697  10.152  0.00  0.00    +0.000 NA
ATOM     15  N   UNL     1      54.170   5.538   8.952  0.00  0.00    +0.000 N 
ATOM     16  C   UNL     1      54.399   4.566   7.994  0.00  0.00    +0.000 A 
ATOM     17  C   UNL     1      53.688   4.587   6.862  0.00  0.00    +0.000 A 
ATOM     18  N   UNL     1      52.729   5.539   6.584  0.00  0.00    +0.000 NA
ATOM     19  C   UNL     1      52.503   6.463   7.478  0.00  0.00    +0.000 A 
ATOM     20  C   UNL     1      53.220   6.515   8.725  0.00  0.00    +0.000 A 
ENDBRANCH   9  12
ENDBRANCH   7  10
ENDBRANCH   1   7
BRANCH   4  21
ATOM     21  C   UNL     1      45.082   7.606  12.369  0.00  0.00    +0.000 C 
BRANCH  21  22
ATOM     22  N   UNL     1      44.622   6.807  11.236  0.00  0.00    +0.000 NA
ATOM     23  H   UNL     1      45.372   6.798  10.540  0.00  0.00    +0.000 HD
BRANCH  22  24
ATOM     24  CA  UNL     1      44.320   5.391  11.564  0.00  0.00    +0.000 C 
BRANCH  24  25
ATOM     25  C   UNL     1      44.724   4.490  10.392  0.00  0.00    +0.000 A 
ATOM     26  C   UNL     1      44.319   3.143  10.353  0.00  0.00    +0.000 A 
ATOM     27  C   UNL     1      44.661   2.328   9.268  0.00  0.00    +0.000 A 
ATOM     28  C   UNL     1      45.411   2.841   8.212  0.00  0.00    +0.000 A 
ATOM     29  C   UNL     1      45.821   4.169   8.236  0.00  0.00    +0.000 A 
ATOM     30  C   UNL     1      45.472   4.986   9.311  0.00  0.00    +0.000 A 
ENDBRANCH  24  25
BRANCH  24  31
ATOM     31  C   UNL     1      42.828   5.147  11.932  0.00  0.00    +0.000 C 
BRANCH  31  32
ATOM     32  O   UNL     1      42.556   5.399  13.311  0.00  0.00    +0.000 OA
ATOM     33  H   UNL     1      41.611   5.634  13.355  0.00  0.00    +0.000 HD
ENDBRANCH  31  32
ENDBRANCH  24  31
ENDBRANCH  22  24
ENDBRANCH  21  22
ENDBRANCH   4  21
TORSDOF 9
ENDMDL
MODEL 5
REMARK VINA RESULT:    -7.132      4.266      7.268
REMARK INTER + INTRA:         -11.498
REMARK INTER:                 -10.692
REMARK INTRA:                  -0.805
REMARK UNBOUND:                -0.821
REMARK  Name = 
REMARK  9 active torsions:
REMARK  status: ('A' for Active; 'I' for Inactive)
REMARK    1  A    between atoms: C_2  and  C_22
REMARK    2  A    between atoms: N_3  and  C_4
REMARK    3  A    between atoms: C_4  and  C_5
REMARK    4  A    between atoms: C_8  and  C_9
REMARK    5  A    between atoms: C_9  and  N_10
REMARK    6  A    between atoms: N_10  and  CA_11
REMARK    7  A    between atoms: CA_11  and  C_12
REMARK    8  A    between atoms: CA_11  and  C_14
REMARK    9  A    between atoms: C_12  and  O_13
REMARK                            x       y       z     vdW  Elec       q    Type
REMARK                         _______ _______ _______ _____ _____    ______ ____
ROOT
ATOM      1  C   UNL     1      45.492   2.541   8.650  0.00  0.00    +0.000 A 
ATOM      2  C   UNL     1      45.544   3.534   7.661  0.00  0.00    +0.000 A 
ATOM      3  C   UNL     1      46.227   3.311   6.457  0.00  0.00    +0.000 A 
ATOM      4  C   UNL     1      46.870   2.088   6.207  0.00  0.00    +0.000 A 
ATOM      5  C   UNL     1      46.816   1.099   7.197  0.00  0.00    +0.000 A 
ATOM      6  C   UNL     1      46.128   1.318   8.399  0.00  0.00    +0.000 A 
ENDROOT
BRANCH   1   7
ATOM      7  C   UNL     1      44.758   2.774   9.949  0.00  0.00    +0.000 C 
BRANCH   7  10
ATOM      8  O   UNL     1      45.077   3.440  12.659  0.00  0.00    +0.000 OA
ATOM      9  C   UNL     1      45.138   4.335  11.817  0.00  0.00    +0.000 C 
ATOM     10  N   UNL     1      44.984   4.105  10.464  0.00  0.00    +0.000 N 
ATOM     11  H   UNL     1      45.138   4.839   9.793  0.00  0.00    +0.000 HD
BRANCH   9  12
ATOM     12  C   UNL     1      45.385   5.724  12.179  0.00  0.00    +0.000 A 
ATOM     13  C   UNL     1      44.619   6.879  11.898  0.00  0.00    +0.000 A 
ATOM     14  N   UNL     1      45.142   8.001  12.394  0.00  0.00    +0.000 NA
ATOM     15  N   UNL     1      46.268   7.593  13.020  0.00  0.00    +0.000 N 
ATOM     16  C   UNL     1      47.200   8.356  13.702  0.00  0.00    +0.000 A 
ATOM     17  C   UNL     1      48.257   7.752  14.254  0.00  0.00    +0.000 A 
ATOM     18  N   UNL     1      48.482   6.393  14.178  0.00  0.00    +0.000 NA
ATOM     19  C   UNL     1      47.613   5.661  13.535  0.00  0.00    +0.000 A 
ATOM     20  C   UNL     1      46.445   6.228  12.913  0.00  0.00    +0.000 A 
ENDBRANCH   9  12
ENDBRANCH   7  10
ENDBRANCH   1   7
BRANCH   4  21
ATOM     21  C   UNL     1      47.560   1.822   4.881  0.00  0.00    +0.000 C 
BRANCH  21  22
ATOM     22  N   UNL     1      47.709   0.390   4.635  0.00  0.00    +0.000 NA
ATOM     23  H   UNL     1      47.737  -0.078   5.544  0.00  0.00    +0.000 HD
BRANCH  22  24
ATOM     24  CA  UNL     1      46.595  -0.222   3.868  0.00  0.00    +0.000 C 
BRANCH  24  25
ATOM     25  C   UNL     1      46.949  -1.670   3.508  0.00  0.00    +0.000 A 
ATOM     26  C   UNL     1      47.693  -1.957   2.348  0.00  0.00    +0.000 A 
ATOM     27  C   UNL     1      48.043  -3.275   2.036  0.00  0.00    +0.000 A 
ATOM     28  C   UNL     1      47.654  -4.323   2.869  0.00  0.00    +0.000 A 
ATOM     29  C   UNL     1      46.916  -4.056   4.017  0.00  0.00    +0.000 A 
ATOM     30  C   UNL     1      46.576  -2.742   4.336  0.00  0.00    +0.000 A 
ENDBRANCH  24  25
BRANCH  24  31
ATOM     31  C   UNL     1      46.223   0.569   2.581  0.00  0.00    +0.000 C 
BRANCH  31  32
ATOM     32  O   UNL     1      44.812   0.678   2.395  0.00  0.00    +0.000 OA
ATOM     33  H   UNL     1      44.613   1.632   2.434  0.00  0.00    +0.000 HD
ENDBRANCH  31  32
ENDBRANCH  24  31
ENDBRANCH  22  24
ENDBRANCH  21  22
ENDBRANCH   4  21
TORSDOF 9
ENDMDL
MODEL 6
REMARK VINA RESULT:    -7.129      2.547      7.833
REMARK INTER + INTRA:         -11.493
REMARK INTER:                  -9.670
REMARK INTRA:                  -1.823
REMARK UNBOUND:                -0.821
REMARK  Name = 
REMARK  9 active torsions:
REMARK  status: ('A' for Active; 'I' for Inactive)
REMARK    1  A    between atoms: C_2  and  C_22
REMARK    2  A    between atoms: N_3  and  C_4
REMARK    3  A    between atoms: C_4  and  C_5
REMARK    4  A    between atoms: C_8  and  C_9
REMARK    5  A    between atoms: C_9  and  N_10
REMARK    6  A    between atoms: N_10  and  CA_11
REMARK    7  A    between atoms: CA_11  and  C_12
REMARK    8  A    between atoms: CA_11  and  C_14
REMARK    9  A    between atoms: C_12  and  O_13
REMARK                            x       y       z     vdW  Elec       q    Type
REMARK                         _______ _______ _______ _____ _____    ______ ____
ROOT
ATOM      1  C   UNL     1      48.507   8.264  13.939  0.00  0.00    +0.000 A 
ATOM      2  C   UNL     1      48.169   9.225  14.902  0.00  0.00    +0.000 A 
ATOM      3  C   UNL     1      48.456   9.012  16.258  0.00  0.00    +0.000 A 
ATOM      4  C   UNL     1      49.093   7.837  16.686  0.00  0.00    +0.000 A 
ATOM      5  C   UNL     1      49.431   6.879  15.721  0.00  0.00    +0.000 A 
ATOM      6  C   UNL     1      49.151   7.094  14.364  0.00  0.00    +0.000 A 
ENDROOT
BRANCH   1   7
ATOM      7  C   UNL     1      48.203   8.486  12.477  0.00  0.00    +0.000 C 
BRANCH   7  10
ATOM      8  O   UNL     1      45.427   8.151  12.202  0.00  0.00    +0.000 OA
ATOM      9  C   UNL     1      46.176   7.269  11.782  0.00  0.00    +0.000 C 
ATOM     10  N   UNL     1      47.551   7.342  11.881  0.00  0.00    +0.000 N 
ATOM     11  H   UNL     1      48.139   6.654  11.441  0.00  0.00    +0.000 HD
BRANCH   9  12
ATOM     12  C   UNL     1      45.670   6.067  11.135  0.00  0.00    +0.000 A 
ATOM     13  C   UNL     1      45.829   5.625   9.801  0.00  0.00    +0.000 A 
ATOM     14  N   UNL     1      45.231   4.460   9.548  0.00  0.00    +0.000 NA
ATOM     15  N   UNL     1      44.671   4.113  10.729  0.00  0.00    +0.000 N 
ATOM     16  C   UNL     1      43.922   2.989  11.030  0.00  0.00    +0.000 A 
ATOM     17  C   UNL     1      43.452   2.833  12.272  0.00  0.00    +0.000 A 
ATOM     18  N   UNL     1      43.668   3.742  13.286  0.00  0.00    +0.000 NA
ATOM     19  C   UNL     1      44.371   4.809  13.016  0.00  0.00    +0.000 A 
ATOM     20  C   UNL     1      44.917   5.056  11.707  0.00  0.00    +0.000 A 
ENDBRANCH   9  12
ENDBRANCH   7  10
ENDBRANCH   1   7
BRANCH   4  21
ATOM     21  C   UNL     1      49.458   7.629  18.145  0.00  0.00    +0.000 C 
BRANCH  21  22
ATOM     22  N   UNL     1      48.292   7.253  18.939  0.00  0.00    +0.000 NA
ATOM     23  H   UNL     1      47.497   7.171  18.300  0.00  0.00    +0.000 HD
BRANCH  22  24
ATOM     24  CA  UNL     1      48.418   5.952  19.642  0.00  0.00    +0.000 C 
BRANCH  24  25
ATOM     25  C   UNL     1      48.381   4.807  18.623  0.00  0.00    +0.000 A 
ATOM     26  C   UNL     1      47.247   4.606  17.815  0.00  0.00    +0.000 A 
ATOM     27  C   UNL     1      47.224   3.581  16.862  0.00  0.00    +0.000 A 
ATOM     28  C   UNL     1      48.327   2.742  16.706  0.00  0.00    +0.000 A 
ATOM     29  C   UNL     1      49.454   2.925  17.499  0.00  0.00    +0.000 A 
ATOM     30  C   UNL     1      49.482   3.953  18.441  0.00  0.00    +0.000 A 
ENDBRANCH  24  25
BRANCH  24  31
ATOM     31  C   UNL     1      47.329   5.730  20.730  0.00  0.00    +0.000 C 
BRANCH  31  32
ATOM     32  O   UNL     1      47.684   4.703  21.658  0.00  0.00    +0.000 OA
ATOM     33  H   UNL     1      47.358   3.871  21.268  0.00  0.00    +0.000 HD
ENDBRANCH  31  32
ENDBRANCH  24  31
ENDBRANCH  22  24
ENDBRANCH  21  22
ENDBRANCH   4  21
TORSDOF 9
ENDMDL
MODEL 7
REMARK VINA RESULT:    -7.050      4.988      6.644
REMARK INTER + INTRA:         -11.375
REMARK INTER:                 -10.223
REMARK INTRA:                  -1.152
REMARK UNBOUND:                -0.821
REMARK  Name = 
REMARK  9 active torsions:
REMARK  status: ('A' for Active; 'I' for Inactive)
REMARK    1  A    between atoms: C_2  and  C_22
REMARK    2  A    between atoms: N_3  and  C_4
REMARK    3  A    between atoms: C_4  and  C_5
REMARK    4  A    between atoms: C_8  and  C_9
REMARK    5  A    between atoms: C_9  and  N_10
REMARK    6  A    between atoms: N_10  and  CA_11
REMARK    7  A    between atoms: CA_11  and  C_12
REMARK    8  A    between atoms: CA_11  and  C_14
REMARK    9  A    between atoms: C_12  and  O_13
REMARK                            x       y       z     vdW  Elec       q    Type
REMARK                         _______ _______ _______ _____ _____    ______ ____
ROOT
ATOM      1  C   UNL     1      48.910   7.315  12.381  0.00  0.00    +0.000 A 
ATOM      2  C   UNL     1      47.919   7.393  11.392  0.00  0.00    +0.000 A 
ATOM      3  C   UNL     1      46.674   6.775  11.576  0.00  0.00    +0.000 A 
ATOM      4  C   UNL     1      46.384   6.068  12.753  0.00  0.00    +0.000 A 
ATOM      5  C   UNL     1      47.376   5.992  13.739  0.00  0.00    +0.000 A 
ATOM      6  C   UNL     1      48.619   6.616  13.560  0.00  0.00    +0.000 A 
ENDROOT
BRANCH   1   7
ATOM      7  C   UNL     1      50.253   7.979  12.192  0.00  0.00    +0.000 C 
BRANCH   7  10
ATOM      8  O   UNL     1      52.665   8.937  11.117  0.00  0.00    +0.000 OA
ATOM      9  C   UNL     1      52.229   7.855  10.724  0.00  0.00    +0.000 C 
ATOM     10  N   UNL     1      51.048   7.310  11.187  0.00  0.00    +0.000 N 
ATOM     11  H   UNL     1      50.768   6.379  10.922  0.00  0.00    +0.000 HD
BRANCH   9  12
ATOM     12  C   UNL     1      52.929   7.051   9.733  0.00  0.00    +0.000 A 
ATOM     13  C   UNL     1      53.523   5.774   9.863  0.00  0.00    +0.000 A 
ATOM     14  N   UNL     1      54.078   5.325   8.737  0.00  0.00    +0.000 NA
ATOM     15  N   UNL     1      53.849   6.309   7.839  0.00  0.00    +0.000 N 
ATOM     16  C   UNL     1      54.219   6.364   6.507  0.00  0.00    +0.000 A 
ATOM     17  C   UNL     1      53.893   7.441   5.784  0.00  0.00    +0.000 A 
ATOM     18  N   UNL     1      53.204   8.519   6.297  0.00  0.00    +0.000 NA
ATOM     19  C   UNL     1      52.850   8.483   7.553  0.00  0.00    +0.000 A 
ATOM     20  C   UNL     1      53.157   7.363   8.403  0.00  0.00    +0.000 A 
ENDBRANCH   9  12
ENDBRANCH   7  10
ENDBRANCH   1   7
BRANCH   4  21
ATOM     21  C   UNL     1      45.017   5.448  12.980  0.00  0.00    +0.000 C 
BRANCH  21  22
ATOM     22  N   UNL     1      44.916   4.133  12.352  0.00  0.00    +0.000 NA
ATOM     23  H   UNL     1      44.569   3.480  13.059  0.00  0.00    +0.000 HD
BRANCH  22  24
ATOM     24  CA  UNL     1      43.976   4.068  11.205  0.00  0.00    +0.000 C 
BRANCH  24  25
ATOM     25  C   UNL     1      44.732   3.657   9.938  0.00  0.00    +0.000 A 
ATOM     26  C   UNL     1      45.290   4.632   9.090  0.00  0.00    +0.000 A 
ATOM     27  C   UNL     1      46.008   4.257   7.948  0.00  0.00    +0.000 A 
ATOM     28  C   UNL     1      46.176   2.909   7.635  0.00  0.00    +0.000 A 
ATOM     29  C   UNL     1      45.630   1.933   8.461  0.00  0.00    +0.000 A 
ATOM     30  C   UNL     1      44.924   2.305   9.604  0.00  0.00    +0.000 A 
ENDBRANCH  24  25
BRANCH  24  31
ATOM     31  C   UNL     1      43.210   5.399  10.959  0.00  0.00    +0.000 C 
BRANCH  31  32
ATOM     32  O   UNL     1      41.883   5.373  11.485  0.00  0.00    +0.000 OA
ATOM     33  H   UNL     1      41.654   6.302  11.671  0.00  0.00    +0.000 HD
ENDBRANCH  31  32
ENDBRANCH  24  31
ENDBRANCH  22  24
ENDBRANCH  21  22
ENDBRANCH   4  21
TORSDOF 9
ENDMDL
MODEL 8
REMARK VINA RESULT:    -6.889      2.746      3.577
REMARK INTER + INTRA:         -11.133
REMARK INTER:                 -10.448
REMARK INTRA:                  -0.685
REMARK UNBOUND:                -0.821
REMARK  Name = 
REMARK  9 active torsions:
REMARK  status: ('A' for Active; 'I' for Inactive)
REMARK    1  A    between atoms: C_2  and  C_22
REMARK    2  A    between atoms: N_3  and  C_4
REMARK    3  A    between atoms: C_4  and  C_5
REMARK    4  A    between atoms: C_8  and  C_9
REMARK    5  A    between atoms: C_9  and  N_10
REMARK    6  A    between atoms: N_10  and  CA_11
REMARK    7  A    between atoms: CA_11  and  C_12
REMARK    8  A    between atoms: CA_11  and  C_14
REMARK    9  A    between atoms: C_12  and  O_13
REMARK                            x       y       z     vdW  Elec       q    Type
REMARK                         _______ _______ _______ _____ _____    ______ ____
ROOT
ATOM      1  C   UNL     1      48.114   5.839  15.323  0.00  0.00    +0.000 A 
ATOM      2  C   UNL     1      47.872   6.260  14.007  0.00  0.00    +0.000 A 
ATOM      3  C   UNL     1      47.105   5.476  13.133  0.00  0.00    +0.000 A 
ATOM      4  C   UNL     1      46.556   4.255  13.552  0.00  0.00    +0.000 A 
ATOM      5  C   UNL     1      46.799   3.837  14.867  0.00  0.00    +0.000 A 
ATOM      6  C   UNL     1      47.559   4.623  15.744  0.00  0.00    +0.000 A 
ENDROOT
BRANCH   1   7
ATOM      7  C   UNL     1      48.938   6.678  16.270  0.00  0.00    +0.000 C 
BRANCH   7  10
ATOM      8  O   UNL     1      49.184   5.439  18.778  0.00  0.00    +0.000 OA
ATOM      9  C   UNL     1      50.130   5.382  17.993  0.00  0.00    +0.000 C 
ATOM     10  N   UNL     1      50.104   5.968  16.743  0.00  0.00    +0.000 N 
ATOM     11  H   UNL     1      50.852   5.820  16.086  0.00  0.00    +0.000 HD
BRANCH   9  12
ATOM     12  C   UNL     1      51.365   4.681  18.316  0.00  0.00    +0.000 A 
ATOM     13  C   UNL     1      52.518   5.148  18.988  0.00  0.00    +0.000 A 
ATOM     14  N   UNL     1      53.471   4.225  19.121  0.00  0.00    +0.000 NA
ATOM     15  N   UNL     1      52.949   3.124  18.536  0.00  0.00    +0.000 N 
ATOM     16  C   UNL     1      53.521   1.873  18.388  0.00  0.00    +0.000 A 
ATOM     17  C   UNL     1      52.830   0.909  17.770  0.00  0.00    +0.000 A 
ATOM     18  N   UNL     1      51.562   1.092  17.260  0.00  0.00    +0.000 NA
ATOM     19  C   UNL     1      51.009   2.267  17.390  0.00  0.00    +0.000 A 
ATOM     20  C   UNL     1      51.681   3.361  18.043  0.00  0.00    +0.000 A 
ENDBRANCH   9  12
ENDBRANCH   7  10
ENDBRANCH   1   7
BRANCH   4  21
ATOM     21  C   UNL     1      45.676   3.433  12.627  0.00  0.00    +0.000 C 
BRANCH  21  22
ATOM     22  N   UNL     1      44.261   3.602  12.946  0.00  0.00    +0.000 NA
ATOM     23  H   UNL     1      44.181   4.398  13.583  0.00  0.00    +0.000 HD
BRANCH  22  24
ATOM     24  CA  UNL     1      43.397   3.897  11.775  0.00  0.00    +0.000 C 
BRANCH  24  25
ATOM     25  C   UNL     1      44.189   3.685  10.480  0.00  0.00    +0.000 A 
ATOM     26  C   UNL     1      44.285   2.405   9.903  0.00  0.00    +0.000 A 
ATOM     27  C   UNL     1      44.982   2.216   8.704  0.00  0.00    +0.000 A 
ATOM     28  C   UNL     1      45.593   3.295   8.068  0.00  0.00    +0.000 A 
ATOM     29  C   UNL     1      45.510   4.566   8.627  0.00  0.00    +0.000 A 
ATOM     30  C   UNL     1      44.807   4.758   9.815  0.00  0.00    +0.000 A 
ENDBRANCH  24  25
BRANCH  24  31
ATOM     31  C   UNL     1      42.792   5.330  11.800  0.00  0.00    +0.000 C 
BRANCH  31  32
ATOM     32  O   UNL     1      43.321   6.129  12.858  0.00  0.00    +0.000 OA
ATOM     33  H   UNL     1      42.548   6.520  13.306  0.00  0.00    +0.000 HD
ENDBRANCH  31  32
ENDBRANCH  24  31
ENDBRANCH  22  24
ENDBRANCH  21  22
ENDBRANCH   4  21
TORSDOF 9
ENDMDL
MODEL 9
REMARK VINA RESULT:    -6.861      1.755      2.422
REMARK INTER + INTRA:         -11.092
REMARK INTER:                 -10.233
REMARK INTRA:                  -0.859
REMARK UNBOUND:                -0.821
REMARK  Name = 
REMARK  9 active torsions:
REMARK  status: ('A' for Active; 'I' for Inactive)
REMARK    1  A    between atoms: C_2  and  C_22
REMARK    2  A    between atoms: N_3  and  C_4
REMARK    3  A    between atoms: C_4  and  C_5
REMARK    4  A    between atoms: C_8  and  C_9
REMARK    5  A    between atoms: C_9  and  N_10
REMARK    6  A    between atoms: N_10  and  CA_11
REMARK    7  A    between atoms: CA_11  and  C_12
REMARK    8  A    between atoms: CA_11  and  C_14
REMARK    9  A    between atoms: C_12  and  O_13
REMARK                            x       y       z     vdW  Elec       q    Type
REMARK                         _______ _______ _______ _____ _____    ______ ____
ROOT
ATOM      1  C   UNL     1      48.779   8.338  12.449  0.00  0.00    +0.000 A 
ATOM      2  C   UNL     1      47.865   9.397  12.550  0.00  0.00    +0.000 A 
ATOM      3  C   UNL     1      46.497   9.187  12.321  0.00  0.00    +0.000 A 
ATOM      4  C   UNL     1      46.008   7.914  11.990  0.00  0.00    +0.000 A 
ATOM      5  C   UNL     1      46.924   6.858  11.890  0.00  0.00    +0.000 A 
ATOM      6  C   UNL     1      48.290   7.066  12.126  0.00  0.00    +0.000 A 
ENDROOT
BRANCH   1   7
ATOM      7  C   UNL     1      50.253   8.557  12.696  0.00  0.00    +0.000 C 
BRANCH   7  10
ATOM      8  O   UNL     1      49.944   8.893  15.468  0.00  0.00    +0.000 OA
ATOM      9  C   UNL     1      50.557   7.909  15.054  0.00  0.00    +0.000 C 
ATOM     10  N   UNL     1      50.767   7.666  13.711  0.00  0.00    +0.000 N 
ATOM     11  H   UNL     1      51.183   6.804  13.399  0.00  0.00    +0.000 HD
BRANCH   9  12
ATOM     12  C   UNL     1      51.114   6.908  15.953  0.00  0.00    +0.000 A 
ATOM     13  C   UNL     1      52.464   6.617  16.254  0.00  0.00    +0.000 A 
ATOM     14  N   UNL     1      52.615   5.630  17.138  0.00  0.00    +0.000 NA
ATOM     15  N   UNL     1      51.350   5.258  17.437  0.00  0.00    +0.000 N 
ATOM     16  C   UNL     1      50.925   4.266  18.303  0.00  0.00    +0.000 A 
ATOM     17  C   UNL     1      49.614   4.054  18.458  0.00  0.00    +0.000 A 
ATOM     18  N   UNL     1      48.644   4.772  17.792  0.00  0.00    +0.000 NA
ATOM     19  C   UNL     1      49.030   5.710  16.969  0.00  0.00    +0.000 A 
ATOM     20  C   UNL     1      50.420   6.008  16.744  0.00  0.00    +0.000 A 
ENDBRANCH   9  12
ENDBRANCH   7  10
ENDBRANCH   1   7
BRANCH   4  21
ATOM     21  C   UNL     1      44.521   7.671  11.799  0.00  0.00    +0.000 C 
BRANCH  21  22
ATOM     22  N   UNL     1      44.272   6.677  10.758  0.00  0.00    +0.000 NA
ATOM     23  H   UNL     1      45.061   6.706  10.108  0.00  0.00    +0.000 HD
BRANCH  22  24
ATOM     24  CA  UNL     1      44.168   5.281  11.251  0.00  0.00    +0.000 C 
BRANCH  24  25
ATOM     25  C   UNL     1      44.639   4.311  10.161  0.00  0.00    +0.000 A 
ATOM     26  C   UNL     1      45.446   4.764   9.101  0.00  0.00    +0.000 A 
ATOM     27  C   UNL     1      45.902   3.874   8.122  0.00  0.00    +0.000 A 
ATOM     28  C   UNL     1      45.557   2.524   8.184  0.00  0.00    +0.000 A 
ATOM     29  C   UNL     1      44.758   2.061   9.223  0.00  0.00    +0.000 A 
ATOM     30  C   UNL     1      44.312   2.945  10.205  0.00  0.00    +0.000 A 
ENDBRANCH  24  25
BRANCH  24  31
ATOM     31  C   UNL     1      42.737   4.897  11.722  0.00  0.00    +0.000 C 
BRANCH  31  32
ATOM     32  O   UNL     1      42.420   5.435  13.006  0.00  0.00    +0.000 OA
ATOM     33  H   UNL     1      42.368   4.670  13.608  0.00  0.00    +0.000 HD
ENDBRANCH  31  32
ENDBRANCH  24  31
ENDBRANCH  22  24
ENDBRANCH  21  22
ENDBRANCH   4  21
TORSDOF 9
ENDMDL
