MODEL 1
REMARK VINA RESULT:    -7.577      0.000      0.000
REMARK INTER + INTRA:         -10.296
REMARK INTER:                  -9.791
REMARK INTRA:                  -0.505
REMARK UNBOUND:                -0.505
REMARK  Name = 
REMARK  5 active torsions:
REMARK  status: ('A' for Active; 'I' for Inactive)
REMARK    1  A    between atoms: C_2  and  C_3
REMARK    2  A    between atoms: C_6  and  C_7
REMARK    3  A    between atoms: C_7  and  C_8
REMARK    4  A    between atoms: C_8  and  N_9
REMARK    5  A    between atoms: C_13  and  C_14
REMARK                            x       y       z     vdW  Elec       q    Type
REMARK                         _______ _______ _______ _____ _____    ______ ____
ROOT
ATOM      1  N   UNL     1      43.841   5.048   9.983  0.00  0.00    +0.000 N 
ATOM      2  C   UNL     1      44.597   4.040   9.348  0.00  0.00    +0.000 A 
ATOM      3  C   UNL     1      45.453   4.369   8.299  0.00  0.00    +0.000 A 
ATOM      4  C   UNL     1      46.213   3.363   7.694  0.00  0.00    +0.000 A 
ATOM      5  C   UNL     1      46.113   2.049   8.148  0.00  0.00    +0.000 A 
ATOM      6  C   UNL     1      45.229   1.808   9.185  0.00  0.00    +0.000 A 
ATOM      7  N   UNL     1      44.477   2.765   9.774  0.00  0.00    +0.000 NA
ATOM      8  H   UNL     1      44.494   5.754  10.316  0.00  0.00    +0.000 HD
ENDROOT
BRANCH   5   9
ATOM      9  C   UNL     1      46.942   0.995   7.522  0.00  0.00    +0.000 C 
ATOM     10  N   UNL     1      47.940   1.352   6.658  0.00  0.00    +0.000 N 
ATOM     11  O   UNL     1      46.745  -0.191   7.763  0.00  0.00    +0.000 OA
ATOM     12  H   UNL     1      48.198   2.293   6.402  0.00  0.00    +0.000 HD
ATOM     13  H   UNL     1      48.478   0.596   6.262  0.00  0.00    +0.000 HD
ENDBRANCH   5   9
BRANCH   1  14
ATOM     14  C   UNL     1      42.992   4.514  11.067  0.00  0.00    +0.000 C 
BRANCH  14  15
ATOM     15  C   UNL     1      43.083   5.377  12.333  0.00  0.00    +0.000 C 
BRANCH  15  19
ATOM     16  C   UNL     1      47.139   6.314  13.569  0.00  0.00    +0.000 A 
ATOM     17  C   UNL     1      46.346   7.298  12.971  0.00  0.00    +0.000 A 
ATOM     18  C   UNL     1      45.038   6.999  12.558  0.00  0.00    +0.000 A 
ATOM     19  C   UNL     1      44.507   5.713  12.739  0.00  0.00    +0.000 A 
ATOM     20  C   UNL     1      45.320   4.729  13.322  0.00  0.00    +0.000 A 
ATOM     21  C   UNL     1      46.624   5.026  13.737  0.00  0.00    +0.000 A 
BRANCH  16  23
ATOM     22  N   UNL     1      49.537   6.889  14.381  0.00  0.00    +0.000 NA
ATOM     23  C   UNL     1      48.469   6.630  14.015  0.00  0.00    +0.000 C 
ENDBRANCH  16  23
ENDBRANCH  15  19
ENDBRANCH  14  15
ENDBRANCH   1  14
TORSDOF 5
ENDMDL
MODEL 2
REMARK VINA RESULT:    -7.116      1.112      1.834
REMARK INTER + INTRA:          -9.701
REMARK INTER:                  -9.174
REMARK INTRA:                  -0.527
REMARK UNBOUND:                -0.505
REMARK  Name = 
REMARK  5 active torsions:
REMARK  status: ('A' for Active; 'I' for Inactive)
REMARK    1  A    between atoms: C_2  and  C_3
REMARK    2  A    between atoms: C_6  and  C_7
REMARK    3  A    between atoms: C_7  and  C_8
REMARK    4  A    between atoms: C_8  and  N_9
REMARK    5  A    between atoms: C_13  and  C_14
REMARK                            x       y       z     vdW  Elec       q    Type
REMARK                         _______ _______ _______ _____ _____    ______ ____
ROOT
ATOM      1  N   UNL     1      43.402   3.524  10.798  0.00  0.00    +0.000 N 
ATOM      2  C   UNL     1      44.389   3.321   9.810  0.00  0.00    +0.000 A 
ATOM      3  C   UNL     1      44.751   2.026   9.445  0.00  0.00    +0.000 A 
ATOM      4  C   UNL     1      45.715   1.839   8.448  0.00  0.00    +0.000 A 
ATOM      5  C   UNL     1      46.297   2.945   7.829  0.00  0.00    +0.000 A 
ATOM      6  C   UNL     1      45.890   4.195   8.262  0.00  0.00    +0.000 A 
ATOM      7  N   UNL     1      44.969   4.394   9.233  0.00  0.00    +0.000 NA
ATOM      8  H   UNL     1      42.563   3.035  10.495  0.00  0.00    +0.000 HD
ENDROOT
BRANCH   5   9
ATOM      9  C   UNL     1      47.294   2.740   6.756  0.00  0.00    +0.000 C 
ATOM     10  N   UNL     1      47.143   3.395   5.566  0.00  0.00    +0.000 N 
ATOM     11  O   UNL     1      48.251   1.989   6.917  0.00  0.00    +0.000 OA
ATOM     12  H   UNL     1      46.407   4.044   5.331  0.00  0.00    +0.000 HD
ATOM     13  H   UNL     1      47.853   3.223   4.869  0.00  0.00    +0.000 HD
ENDBRANCH   5   9
BRANCH   1  14
ATOM     14  C   UNL     1      43.152   4.957  11.055  0.00  0.00    +0.000 C 
BRANCH  14  15
ATOM     15  C   UNL     1      43.305   5.299  12.543  0.00  0.00    +0.000 C 
BRANCH  15  19
ATOM     16  C   UNL     1      47.362   6.444  13.585  0.00  0.00    +0.000 A 
ATOM     17  C   UNL     1      46.912   5.147  13.850  0.00  0.00    +0.000 A 
ATOM     18  C   UNL     1      45.599   4.773  13.527  0.00  0.00    +0.000 A 
ATOM     19  C   UNL     1      44.719   5.691  12.934  0.00  0.00    +0.000 A 
ATOM     20  C   UNL     1      45.177   6.996  12.692  0.00  0.00    +0.000 A 
ATOM     21  C   UNL     1      46.487   7.370  13.011  0.00  0.00    +0.000 A 
BRANCH  16  23
ATOM     22  N   UNL     1      49.805   7.120  14.147  0.00  0.00    +0.000 NA
ATOM     23  C   UNL     1      48.716   6.816  13.893  0.00  0.00    +0.000 C 
ENDBRANCH  16  23
ENDBRANCH  15  19
ENDBRANCH  14  15
ENDBRANCH   1  14
TORSDOF 5
ENDMDL
MODEL 3
REMARK VINA RESULT:    -7.007      3.034      7.172
REMARK INTER + INTRA:          -9.560
REMARK INTER:                  -9.232
REMARK INTRA:                  -0.328
REMARK UNBOUND:                -0.505
REMARK  Name = 
REMARK  5 active torsions:
REMARK  status: ('A' for Active; 'I' for Inactive)
REMARK    1  A    between atoms: C_2  and  C_3
REMARK    2  A    between atoms: C_6  and  C_7
REMARK    3  A    between atoms: C_7  and  C_8
REMARK    4  A    between atoms: C_8  and  N_9
REMARK    5  A    between atoms: C_13  and  C_14
REMARK                            x       y       z     vdW  Elec       q    Type
REMARK                         _______ _______ _______ _____ _____    ______ ____
ROOT
ATOM      1  N   UNL     1      45.672   5.261  11.780  0.00  0.00    +0.000 N 
ATOM      2  C   UNL     1      46.413   5.287  12.980  0.00  0.00    +0.000 A 
ATOM      3  C   UNL     1      47.325   6.315  13.211  0.00  0.00    +0.000 A 
ATOM      4  C   UNL     1      48.037   6.342  14.415  0.00  0.00    +0.000 A 
ATOM      5  C   UNL     1      47.824   5.348  15.370  0.00  0.00    +0.000 A 
ATOM      6  C   UNL     1      46.911   4.357  15.053  0.00  0.00    +0.000 A 
ATOM      7  N   UNL     1      46.223   4.309  13.889  0.00  0.00    +0.000 NA
ATOM      8  H   UNL     1      45.176   6.146  11.709  0.00  0.00    +0.000 HD
ENDROOT
BRANCH   5   9
ATOM      9  C   UNL     1      48.559   5.398  16.652  0.00  0.00    +0.000 C 
ATOM     10  N   UNL     1      47.897   5.764  17.791  0.00  0.00    +0.000 N 
ATOM     11  O   UNL     1      49.753   5.121  16.709  0.00  0.00    +0.000 OA
ATOM     12  H   UNL     1      46.917   5.997  17.863  0.00  0.00    +0.000 HD
ATOM     13  H   UNL     1      48.443   5.779  18.640  0.00  0.00    +0.000 HD
ENDBRANCH   5   9
BRANCH   1  14
ATOM     14  C   UNL     1      44.760   4.101  11.709  0.00  0.00    +0.000 C 
BRANCH  14  15
ATOM     15  C   UNL     1      44.073   4.005  10.340  0.00  0.00    +0.000 C 
BRANCH  15  19
ATOM     16  C   UNL     1      46.665   2.332   7.284  0.00  0.00    +0.000 A 
ATOM     17  C   UNL     1      46.411   3.707   7.310  0.00  0.00    +0.000 A 
ATOM     18  C   UNL     1      45.565   4.254   8.287  0.00  0.00    +0.000 A 
ATOM     19  C   UNL     1      44.962   3.432   9.252  0.00  0.00    +0.000 A 
ATOM     20  C   UNL     1      45.209   2.051   9.203  0.00  0.00    +0.000 A 
ATOM     21  C   UNL     1      46.054   1.505   8.230  0.00  0.00    +0.000 A 
BRANCH  16  23
ATOM     22  N   UNL     1      48.270   1.341   5.501  0.00  0.00    +0.000 NA
ATOM     23  C   UNL     1      47.553   1.779   6.298  0.00  0.00    +0.000 C 
ENDBRANCH  16  23
ENDBRANCH  15  19
ENDBRANCH  14  15
ENDBRANCH   1  14
TORSDOF 5
ENDMDL
MODEL 4
REMARK VINA RESULT:    -6.872      2.786      6.770
REMARK INTER + INTRA:          -9.385
REMARK INTER:                  -9.594
REMARK INTRA:                   0.209
REMARK UNBOUND:                -0.505
REMARK  Name = 
REMARK  5 active torsions:
REMARK  status: ('A' for Active; 'I' for Inactive)
REMARK    1  A    between atoms: C_2  and  C_3
REMARK    2  A    between atoms: C_6  and  C_7
REMARK    3  A    between atoms: C_7  and  C_8
REMARK    4  A    between atoms: C_8  and  N_9
REMARK    5  A    between atoms: C_13  and  C_14
REMARK                            x       y       z     vdW  Elec       q    Type
REMARK                         _______ _______ _______ _____ _____    ______ ____
ROOT
ATOM      1  N   UNL     1      45.201   3.220  12.342  0.00  0.00    +0.000 N 
ATOM      2  C   UNL     1      45.584   4.544  12.642  0.00  0.00    +0.000 A 
ATOM      3  C   UNL     1      46.858   4.802  13.143  0.00  0.00    +0.000 A 
ATOM      4  C   UNL     1      47.234   6.122  13.415  0.00  0.00    +0.000 A 
ATOM      5  C   UNL     1      46.337   7.162  13.176  0.00  0.00    +0.000 A 
ATOM      6  C   UNL     1      45.088   6.816  12.690  0.00  0.00    +0.000 A 
ATOM      7  N   UNL     1      44.703   5.545  12.433  0.00  0.00    +0.000 NA
ATOM      8  H   UNL     1      45.881   2.847  11.685  0.00  0.00    +0.000 HD
ENDROOT
BRANCH   5   9
ATOM      9  C   UNL     1      46.751   8.558  13.438  0.00  0.00    +0.000 C 
ATOM     10  N   UNL     1      47.226   8.895  14.675  0.00  0.00    +0.000 N 
ATOM     11  O   UNL     1      46.672   9.416  12.565  0.00  0.00    +0.000 OA
ATOM     12  H   UNL     1      47.348   8.270  15.458  0.00  0.00    +0.000 HD
ATOM     13  H   UNL     1      47.499   9.859  14.800  0.00  0.00    +0.000 HD
ENDBRANCH   5   9
BRANCH   1  14
ATOM     14  C   UNL     1      43.819   3.140  11.824  0.00  0.00    +0.000 C 
BRANCH  14  15
ATOM     15  C   UNL     1      43.685   3.837  10.463  0.00  0.00    +0.000 C 
BRANCH  15  19
ATOM     16  C   UNL     1      46.518   2.333   7.536  0.00  0.00    +0.000 A 
ATOM     17  C   UNL     1      46.319   3.711   7.673  0.00  0.00    +0.000 A 
ATOM     18  C   UNL     1      45.396   4.204   8.609  0.00  0.00    +0.000 A 
ATOM     19  C   UNL     1      44.662   3.325   9.420  0.00  0.00    +0.000 A 
ATOM     20  C   UNL     1      44.856   1.945   9.258  0.00  0.00    +0.000 A 
ATOM     21  C   UNL     1      45.778   1.451   8.328  0.00  0.00    +0.000 A 
BRANCH  16  23
ATOM     22  N   UNL     1      48.267   1.430   5.843  0.00  0.00    +0.000 NA
ATOM     23  C   UNL     1      47.483   1.833   6.596  0.00  0.00    +0.000 C 
ENDBRANCH  16  23
ENDBRANCH  15  19
ENDBRANCH  14  15
ENDBRANCH   1  14
TORSDOF 5
ENDMDL
MODEL 5
REMARK VINA RESULT:    -6.785      2.636      6.614
REMARK INTER + INTRA:          -9.273
REMARK INTER:                  -8.775
REMARK INTRA:                  -0.498
REMARK UNBOUND:                -0.505
REMARK  Name = 
REMARK  5 active torsions:
REMARK  status: ('A' for Active; 'I' for Inactive)
REMARK    1  A    between atoms: C_2  and  C_3
REMARK    2  A    between atoms: C_6  and  C_7
REMARK    3  A    between atoms: C_7  and  C_8
REMARK    4  A    between atoms: C_8  and  N_9
REMARK    5  A    between atoms: C_13  and  C_14
REMARK                            x       y       z     vdW  Elec       q    Type
REMARK                         _______ _______ _______ _____ _____    ______ ____
ROOT
ATOM      1  N   UNL     1      44.630   4.910  12.379  0.00  0.00    +0.000 N 
ATOM      2  C   UNL     1      45.856   5.594  12.523  0.00  0.00    +0.000 A 
ATOM      3  C   UNL     1      46.576   5.487  13.711  0.00  0.00    +0.000 A 
ATOM      4  C   UNL     1      47.801   6.152  13.832  0.00  0.00    +0.000 A 
ATOM      5  C   UNL     1      48.290   6.906  12.765  0.00  0.00    +0.000 A 
ATOM      6  C   UNL     1      47.504   6.970  11.628  0.00  0.00    +0.000 A 
ATOM      7  N   UNL     1      46.312   6.344  11.498  0.00  0.00    +0.000 NA
ATOM      8  H   UNL     1      44.809   3.924  12.553  0.00  0.00    +0.000 HD
ENDROOT
BRANCH   5   9
ATOM      9  C   UNL     1      49.599   7.583  12.890  0.00  0.00    +0.000 C 
ATOM     10  N   UNL     1      50.350   7.388  14.016  0.00  0.00    +0.000 N 
ATOM     11  O   UNL     1      50.019   8.318  12.002  0.00  0.00    +0.000 OA
ATOM     12  H   UNL     1      50.111   6.796  14.797  0.00  0.00    +0.000 HD
ATOM     13  H   UNL     1      51.237   7.869  14.049  0.00  0.00    +0.000 HD
ENDBRANCH   5   9
BRANCH   1  14
ATOM     14  C   UNL     1      44.010   5.142  11.059  0.00  0.00    +0.000 C 
BRANCH  14  15
ATOM     15  C   UNL     1      43.612   3.824  10.382  0.00  0.00    +0.000 C 
BRANCH  15  19
ATOM     16  C   UNL     1      46.533   2.411   7.494  0.00  0.00    +0.000 A 
ATOM     17  C   UNL     1      46.222   3.773   7.566  0.00  0.00    +0.000 A 
ATOM     18  C   UNL     1      45.271   4.235   8.488  0.00  0.00    +0.000 A 
ATOM     19  C   UNL     1      44.618   3.342   9.351  0.00  0.00    +0.000 A 
ATOM     20  C   UNL     1      44.924   1.975   9.255  0.00  0.00    +0.000 A 
ATOM     21  C   UNL     1      45.875   1.513   8.338  0.00  0.00    +0.000 A 
BRANCH  16  23
ATOM     22  N   UNL     1      48.323   1.571   5.813  0.00  0.00    +0.000 NA
ATOM     23  C   UNL     1      47.527   1.945   6.567  0.00  0.00    +0.000 C 
ENDBRANCH  16  23
ENDBRANCH  15  19
ENDBRANCH  14  15
ENDBRANCH   1  14
TORSDOF 5
ENDMDL
MODEL 6
REMARK VINA RESULT:    -6.448      4.258      5.845
REMARK INTER + INTRA:          -8.837
REMARK INTER:                  -8.559
REMARK INTRA:                  -0.278
REMARK UNBOUND:                -0.505
REMARK  Name = 
REMARK  5 active torsions:
REMARK  status: ('A' for Active; 'I' for Inactive)
REMARK    1  A    between atoms: C_2  and  C_3
REMARK    2  A    between atoms: C_6  and  C_7
REMARK    3  A    between atoms: C_7  and  C_8
REMARK    4  A    between atoms: C_8  and  N_9
REMARK    5  A    between atoms: C_13  and  C_14
REMARK                            x       y       z     vdW  Elec       q    Type
REMARK                         _______ _______ _______ _____ _____    ______ ____
ROOT
ATOM      1  N   UNL     1      47.004   5.350  14.561  0.00  0.00    +0.000 N 
ATOM      2  C   UNL     1      46.311   4.929  13.407  0.00  0.00    +0.000 A 
ATOM      3  C   UNL     1      46.075   5.829  12.370  0.00  0.00    +0.000 A 
ATOM      4  C   UNL     1      45.407   5.392  11.222  0.00  0.00    +0.000 A 
ATOM      5  C   UNL     1      44.991   4.065  11.123  0.00  0.00    +0.000 A 
ATOM      6  C   UNL     1      45.254   3.242  12.204  0.00  0.00    +0.000 A 
ATOM      7  N   UNL     1      45.888   3.650  13.327  0.00  0.00    +0.000 NA
ATOM      8  H   UNL     1      47.899   5.726  14.259  0.00  0.00    +0.000 HD
ENDROOT
BRANCH   5   9
ATOM      9  C   UNL     1      44.311   3.603   9.893  0.00  0.00    +0.000 C 
ATOM     10  N   UNL     1      44.063   4.496   8.889  0.00  0.00    +0.000 N 
ATOM     11  O   UNL     1      43.962   2.434   9.764  0.00  0.00    +0.000 OA
ATOM     12  H   UNL     1      44.319   5.472   8.882  0.00  0.00    +0.000 HD
ATOM     13  H   UNL     1      43.600   4.129   8.070  0.00  0.00    +0.000 HD
ENDBRANCH   5   9
BRANCH   1  14
ATOM     14  C   UNL     1      47.158   4.264  15.551  0.00  0.00    +0.000 C 
BRANCH  14  15
ATOM     15  C   UNL     1      47.879   4.750  16.816  0.00  0.00    +0.000 C 
BRANCH  15  19
ATOM     16  C   UNL     1      51.501   2.533  17.725  0.00  0.00    +0.000 A 
ATOM     17  C   UNL     1      51.477   3.924  17.870  0.00  0.00    +0.000 A 
ATOM     18  C   UNL     1      50.314   4.649  17.567  0.00  0.00    +0.000 A 
ATOM     19  C   UNL     1      49.159   3.991  17.115  0.00  0.00    +0.000 A 
ATOM     20  C   UNL     1      49.202   2.598  16.955  0.00  0.00    +0.000 A 
ATOM     21  C   UNL     1      50.360   1.873  17.260  0.00  0.00    +0.000 A 
BRANCH  16  23
ATOM     22  N   UNL     1      53.635   1.189  18.338  0.00  0.00    +0.000 NA
ATOM     23  C   UNL     1      52.685   1.792  18.062  0.00  0.00    +0.000 C 
ENDBRANCH  16  23
ENDBRANCH  15  19
ENDBRANCH  14  15
ENDBRANCH   1  14
TORSDOF 5
ENDMDL
MODEL 7
REMARK VINA RESULT:    -6.373      3.654      8.902
REMARK INTER + INTRA:          -8.741
REMARK INTER:                  -8.405
REMARK INTRA:                  -0.337
REMARK UNBOUND:                -0.505
REMARK  Name = 
REMARK  5 active torsions:
REMARK  status: ('A' for Active; 'I' for Inactive)
REMARK    1  A    between atoms: C_2  and  C_3
REMARK    2  A    between atoms: C_6  and  C_7
REMARK    3  A    between atoms: C_7  and  C_8
REMARK    4  A    between atoms: C_8  and  N_9
REMARK    5  A    between atoms: C_13  and  C_14
REMARK                            x       y       z     vdW  Elec       q    Type
REMARK                         _______ _______ _______ _____ _____    ______ ____
ROOT
ATOM      1  N   UNL     1      47.019   3.804   6.994  0.00  0.00    +0.000 N 
ATOM      2  C   UNL     1      46.116   3.642   8.066  0.00  0.00    +0.000 A 
ATOM      3  C   UNL     1      45.726   4.747   8.819  0.00  0.00    +0.000 A 
ATOM      4  C   UNL     1      44.812   4.576   9.865  0.00  0.00    +0.000 A 
ATOM      5  C   UNL     1      44.298   3.309  10.137  0.00  0.00    +0.000 A 
ATOM      6  C   UNL     1      44.750   2.265   9.349  0.00  0.00    +0.000 A 
ATOM      7  N   UNL     1      45.641   2.409   8.342  0.00  0.00    +0.000 NA
ATOM      8  H   UNL     1      46.620   4.493   6.361  0.00  0.00    +0.000 HD
ENDROOT
BRANCH   5   9
ATOM      9  C   UNL     1      43.311   3.141  11.225  0.00  0.00    +0.000 C 
ATOM     10  N   UNL     1      42.745   4.248  11.794  0.00  0.00    +0.000 N 
ATOM     11  O   UNL     1      42.996   2.025  11.628  0.00  0.00    +0.000 OA
ATOM     12  H   UNL     1      42.918   5.207  11.533  0.00  0.00    +0.000 HD
ATOM     13  H   UNL     1      42.075   4.078  12.530  0.00  0.00    +0.000 HD
ENDBRANCH   5   9
BRANCH   1  14
ATOM     14  C   UNL     1      47.317   2.527   6.314  0.00  0.00    +0.000 C 
BRANCH  14  15
ATOM     15  C   UNL     1      46.933   2.574   4.829  0.00  0.00    +0.000 C 
BRANCH  15  19
ATOM     16  C   UNL     1      46.280  -1.357   3.101  0.00  0.00    +0.000 A 
ATOM     17  C   UNL     1      45.821  -0.216   2.436  0.00  0.00    +0.000 A 
ATOM     18  C   UNL     1      46.018   1.057   2.994  0.00  0.00    +0.000 A 
ATOM     19  C   UNL     1      46.677   1.205   4.224  0.00  0.00    +0.000 A 
ATOM     20  C   UNL     1      47.115   0.050   4.891  0.00  0.00    +0.000 A 
ATOM     21  C   UNL     1      46.922  -1.220   4.335  0.00  0.00    +0.000 A 
BRANCH  16  23
ATOM     22  N   UNL     1      45.962  -3.703   2.037  0.00  0.00    +0.000 NA
ATOM     23  C   UNL     1      46.100  -2.657   2.514  0.00  0.00    +0.000 C 
ENDBRANCH  16  23
ENDBRANCH  15  19
ENDBRANCH  14  15
ENDBRANCH   1  14
TORSDOF 5
ENDMDL
MODEL 8
REMARK VINA RESULT:    -5.821      4.591      6.651
REMARK INTER + INTRA:          -8.027
REMARK INTER:                  -7.736
REMARK INTRA:                  -0.291
REMARK UNBOUND:                -0.505
REMARK  Name = 
REMARK  5 active torsions:
REMARK  status: ('A' for Active; 'I' for Inactive)
REMARK    1  A    between atoms: C_2  and  C_3
REMARK    2  A    between atoms: C_6  and  C_7
REMARK    3  A    between atoms: C_7  and  C_8
REMARK    4  A    between atoms: C_8  and  N_9
REMARK    5  A    between atoms: C_13  and  C_14
REMARK                            x       y       z     vdW  Elec       q    Type
REMARK                         _______ _______ _______ _____ _____    ______ ____
ROOT
ATOM      1  N   UNL     1      47.229   3.559  14.677  0.00  0.00    +0.000 N 
ATOM      2  C   UNL     1      46.251   4.018  13.770  0.00  0.00    +0.000 A 
ATOM      3  C   UNL     1      45.801   3.181  12.750  0.00  0.00    +0.000 A 
ATOM      4  C   UNL     1      44.814   3.641  11.872  0.00  0.00    +0.000 A 
ATOM      5  C   UNL     1      44.288   4.923  12.028  0.00  0.00    +0.000 A 
ATOM      6  C   UNL     1      44.801   5.692  13.058  0.00  0.00    +0.000 A 
ATOM      7  N   UNL     1      45.764   5.268  13.909  0.00  0.00    +0.000 NA
ATOM      8  H   UNL     1      46.874   2.705  15.101  0.00  0.00    +0.000 HD
ENDROOT
BRANCH   5   9
ATOM      9  C   UNL     1      43.224   5.391  11.113  0.00  0.00    +0.000 C 
ATOM     10  N   UNL     1      42.212   6.169  11.604  0.00  0.00    +0.000 N 
ATOM     11  O   UNL     1      43.234   5.090   9.924  0.00  0.00    +0.000 OA
ATOM     12  H   UNL     1      42.113   6.488  12.556  0.00  0.00    +0.000 HD
ATOM     13  H   UNL     1      41.514   6.465  10.937  0.00  0.00    +0.000 HD
ENDBRANCH   5   9
BRANCH   1  14
ATOM     14  C   UNL     1      47.583   4.580  15.684  0.00  0.00    +0.000 C 
BRANCH  14  15
ATOM     15  C   UNL     1      47.770   3.960  17.075  0.00  0.00    +0.000 C 
BRANCH  15  19
ATOM     16  C   UNL     1      51.829   2.577  17.763  0.00  0.00    +0.000 A 
ATOM     17  C   UNL     1      50.882   1.714  17.202  0.00  0.00    +0.000 A 
ATOM     18  C   UNL     1      49.566   2.150  16.987  0.00  0.00    +0.000 A 
ATOM     19  C   UNL     1      49.179   3.455  17.331  0.00  0.00    +0.000 A 
ATOM     20  C   UNL     1      50.134   4.304  17.912  0.00  0.00    +0.000 A 
ATOM     21  C   UNL     1      51.448   3.872  18.124  0.00  0.00    +0.000 A 
BRANCH  16  23
ATOM     22  N   UNL     1      54.272   1.773  18.115  0.00  0.00    +0.000 NA
ATOM     23  C   UNL     1      53.183   2.136  17.957  0.00  0.00    +0.000 C 
ENDBRANCH  16  23
ENDBRANCH  15  19
ENDBRANCH  14  15
ENDBRANCH   1  14
TORSDOF 5
ENDMDL
MODEL 9
REMARK VINA RESULT:    -5.731      4.097      7.889
REMARK INTER + INTRA:          -7.912
REMARK INTER:                  -7.610
REMARK INTRA:                  -0.302
REMARK UNBOUND:                -0.505
REMARK  Name = 
REMARK  5 active torsions:
REMARK  status: ('A' for Active; 'I' for Inactive)
REMARK    1  A    between atoms: C_2  and  C_3
REMARK    2  A    between atoms: C_6  and  C_7
REMARK    3  A    between atoms: C_7  and  C_8
REMARK    4  A    between atoms: C_8  and  N_9
REMARK    5  A    between atoms: C_13  and  C_14
REMARK                            x       y       z     vdW  Elec       q    Type
REMARK                         _______ _______ _______ _____ _____    ______ ____
ROOT
ATOM      1  N   UNL     1      46.386   4.144  14.689  0.00  0.00    +0.000 N 
ATOM      2  C   UNL     1      47.408   4.292  15.650  0.00  0.00    +0.000 A 
ATOM      3  C   UNL     1      47.687   3.251  16.533  0.00  0.00    +0.000 A 
ATOM      4  C   UNL     1      48.719   3.403  17.467  0.00  0.00    +0.000 A 
ATOM      5  C   UNL     1      49.458   4.585  17.498  0.00  0.00    +0.000 A 
ATOM      6  C   UNL     1      49.105   5.571  16.595  0.00  0.00    +0.000 A 
ATOM      7  N   UNL     1      48.104   5.447  15.694  0.00  0.00    +0.000 NA
ATOM      8  H   UNL     1      46.600   3.313  14.142  0.00  0.00    +0.000 HD
ENDROOT
BRANCH   5   9
ATOM      9  C   UNL     1      50.566   4.726  18.469  0.00  0.00    +0.000 C 
ATOM     10  N   UNL     1      50.386   4.307  19.757  0.00  0.00    +0.000 N 
ATOM     11  O   UNL     1      51.639   5.217  18.136  0.00  0.00    +0.000 OA
ATOM     12  H   UNL     1      49.554   3.877  20.134  0.00  0.00    +0.000 HD
ATOM     13  H   UNL     1      51.174   4.422  20.378  0.00  0.00    +0.000 HD
ENDBRANCH   5   9
BRANCH   1  14
ATOM     14  C   UNL     1      46.232   5.345  13.843  0.00  0.00    +0.000 C 
BRANCH  14  15
ATOM     15  C   UNL     1      44.921   5.313  13.048  0.00  0.00    +0.000 C 
BRANCH  15  19
ATOM     16  C   UNL     1      45.463   3.965   8.955  0.00  0.00    +0.000 A 
ATOM     17  C   UNL     1      45.817   5.270   9.314  0.00  0.00    +0.000 A 
ATOM     18  C   UNL     1      45.634   5.716  10.632  0.00  0.00    +0.000 A 
ATOM     19  C   UNL     1      45.095   4.863  11.608  0.00  0.00    +0.000 A 
ATOM     20  C   UNL     1      44.724   3.563  11.229  0.00  0.00    +0.000 A 
ATOM     21  C   UNL     1      44.909   3.116   9.916  0.00  0.00    +0.000 A 
BRANCH  16  23
ATOM     22  N   UNL     1      45.856   3.134   6.527  0.00  0.00    +0.000 NA
ATOM     23  C   UNL     1      45.677   3.503   7.611  0.00  0.00    +0.000 C 
ENDBRANCH  16  23
ENDBRANCH  15  19
ENDBRANCH  14  15
ENDBRANCH   1  14
TORSDOF 5
ENDMDL
