MODEL 1
REMARK VINA RESULT:    -8.017      0.000      0.000
REMARK INTER + INTRA:         -12.312
REMARK INTER:                 -11.298
REMARK INTRA:                  -1.014
REMARK UNBOUND:                -1.014
REMARK  Name = 
REMARK  8 active torsions:
REMARK  status: ('A' for Active; 'I' for Inactive)
REMARK    1  A    between atoms: C_1  and  N_2
REMARK    2  A    between atoms: N_2  and  C_3
REMARK    3  A    between atoms: N_2  and  C_14
REMARK    4  A    between atoms: C_3  and  C_4
REMARK    5  A    between atoms: C_4  and  C_5
REMARK    6  A    between atoms: C_8  and  C_9
REMARK    7  A    between atoms: C_18  and  O_19
REMARK    8  A    between atoms: O_19  and  C_20
REMARK                            x       y       z     vdW  Elec       q    Type
REMARK                         _______ _______ _______ _____ _____    ______ ____
ROOT
ATOM      1  C   UNL     1      43.004   5.020  13.186  0.00  0.00    +0.000 C 
ATOM      2  N   UNL     1      43.821   5.413  12.032  0.00  0.00    +0.000 N 
ENDROOT
BRANCH   2   3
ATOM      3  C   UNL     1      45.187   5.645  12.316  0.00  0.00    +0.000 A 
ATOM      4  C   UNL     1      45.946   6.634  11.666  0.00  0.00    +0.000 A 
ATOM      5  C   UNL     1      47.299   6.857  11.964  0.00  0.00    +0.000 A 
ATOM      6  C   UNL     1      47.942   6.100  12.939  0.00  0.00    +0.000 A 
ATOM      7  C   UNL     1      47.223   5.123  13.608  0.00  0.00    +0.000 A 
ATOM      8  C   UNL     1      45.870   4.917  13.310  0.00  0.00    +0.000 A 
BRANCH   7   9
ATOM      9  O   UNL     1      47.727   4.334  14.614  0.00  0.00    +0.000 OA
BRANCH   9  10
ATOM     10  C   UNL     1      47.386   4.648  15.983  0.00  0.00    +0.000 C 
ATOM     11  C   UNL     1      48.495   5.217  16.893  0.00  0.00    +0.000 C 
ATOM     12  N   UNL     1      48.216   4.185  17.904  0.00  0.00    +0.000 NA
ATOM     13  C   UNL     1      47.388   3.441  16.945  0.00  0.00    +0.000 C 
ATOM     14  H   UNL     1      47.704   4.525  18.716  0.00  0.00    +0.000 HD
ENDBRANCH   9  10
ENDBRANCH   7   9
ENDBRANCH   2   3
BRANCH   2  15
ATOM     15  C   UNL     1      43.479   4.872  10.693  0.00  0.00    +0.000 C 
BRANCH  15  16
ATOM     16  C   UNL     1      43.826   3.391  10.494  0.00  0.00    +0.000 C 
BRANCH  16  17
ATOM     17  C   UNL     1      44.819   3.148   9.381  0.00  0.00    +0.000 A 
ATOM     18  C   UNL     1      45.234   1.842   9.081  0.00  0.00    +0.000 A 
ATOM     19  C   UNL     1      46.105   1.604   8.016  0.00  0.00    +0.000 A 
ATOM     20  C   UNL     1      46.568   2.667   7.233  0.00  0.00    +0.000 A 
ATOM     21  C   UNL     1      46.185   3.976   7.550  0.00  0.00    +0.000 A 
ATOM     22  C   UNL     1      45.317   4.213   8.621  0.00  0.00    +0.000 A 
BRANCH  20  23
ATOM     23  C   UNL     1      47.472   2.359   6.094  0.00  0.00    +0.000 C 
ATOM     24  N   UNL     1      48.816   2.508   6.297  0.00  0.00    +0.000 N 
ATOM     25  O   UNL     1      47.036   2.024   5.000  0.00  0.00    +0.000 OA
ATOM     26  H   UNL     1      49.199   2.993   7.094  0.00  0.00    +0.000 HD
ATOM     27  H   UNL     1      49.406   2.399   5.483  0.00  0.00    +0.000 HD
ENDBRANCH  20  23
ENDBRANCH  16  17
ENDBRANCH  15  16
ENDBRANCH   2  15
TORSDOF 7
ENDMDL
MODEL 2
REMARK VINA RESULT:    -7.311      2.313      3.384
REMARK INTER + INTRA:         -11.317
REMARK INTER:                 -10.353
REMARK INTRA:                  -0.964
REMARK UNBOUND:                -1.014
REMARK  Name = 
REMARK  8 active torsions:
REMARK  status: ('A' for Active; 'I' for Inactive)
REMARK    1  A    between atoms: C_1  and  N_2
REMARK    2  A    between atoms: N_2  and  C_3
REMARK    3  A    between atoms: N_2  and  C_14
REMARK    4  A    between atoms: C_3  and  C_4
REMARK    5  A    between atoms: C_4  and  C_5
REMARK    6  A    between atoms: C_8  and  C_9
REMARK    7  A    between atoms: C_18  and  O_19
REMARK    8  A    between atoms: O_19  and  C_20
REMARK                            x       y       z     vdW  Elec       q    Type
REMARK                         _______ _______ _______ _____ _____    ______ ____
ROOT
ATOM      1  C   UNL     1      42.858   5.235  12.957  0.00  0.00    +0.000 C 
ATOM      2  N   UNL     1      43.824   5.615  11.919  0.00  0.00    +0.000 N 
ENDROOT
BRANCH   2   3
ATOM      3  C   UNL     1      45.160   5.747  12.364  0.00  0.00    +0.000 A 
ATOM      4  C   UNL     1      45.671   5.044  13.469  0.00  0.00    +0.000 A 
ATOM      5  C   UNL     1      47.001   5.180  13.894  0.00  0.00    +0.000 A 
ATOM      6  C   UNL     1      47.876   6.025  13.217  0.00  0.00    +0.000 A 
ATOM      7  C   UNL     1      47.411   6.727  12.117  0.00  0.00    +0.000 A 
ATOM      8  C   UNL     1      46.084   6.574  11.695  0.00  0.00    +0.000 A 
BRANCH   7   9
ATOM      9  O   UNL     1      48.179   7.562  11.342  0.00  0.00    +0.000 OA
BRANCH   9  10
ATOM     10  C   UNL     1      49.311   8.228  11.947  0.00  0.00    +0.000 C 
ATOM     11  C   UNL     1      49.614   9.677  11.512  0.00  0.00    +0.000 C 
ATOM     12  N   UNL     1      51.008   9.312  11.215  0.00  0.00    +0.000 NA
ATOM     13  C   UNL     1      50.677   7.884  11.317  0.00  0.00    +0.000 C 
ATOM     14  H   UNL     1      51.680   9.631  11.911  0.00  0.00    +0.000 HD
ENDBRANCH   9  10
ENDBRANCH   7   9
ENDBRANCH   2   3
BRANCH   2  15
ATOM     15  C   UNL     1      43.604   5.146  10.529  0.00  0.00    +0.000 C 
BRANCH  15  16
ATOM     16  C   UNL     1      43.777   3.635  10.328  0.00  0.00    +0.000 C 
BRANCH  16  17
ATOM     17  C   UNL     1      44.827   3.278   9.303  0.00  0.00    +0.000 A 
ATOM     18  C   UNL     1      45.219   1.941   9.131  0.00  0.00    +0.000 A 
ATOM     19  C   UNL     1      46.144   1.597   8.144  0.00  0.00    +0.000 A 
ATOM     20  C   UNL     1      46.688   2.582   7.313  0.00  0.00    +0.000 A 
ATOM     21  C   UNL     1      46.329   3.921   7.503  0.00  0.00    +0.000 A 
ATOM     22  C   UNL     1      45.405   4.265   8.496  0.00  0.00    +0.000 A 
BRANCH  20  23
ATOM     23  C   UNL     1      47.649   2.161   6.260  0.00  0.00    +0.000 C 
ATOM     24  N   UNL     1      47.884   3.035   5.234  0.00  0.00    +0.000 N 
ATOM     25  O   UNL     1      48.184   1.060   6.281  0.00  0.00    +0.000 OA
ATOM     26  H   UNL     1      47.303   3.841   5.058  0.00  0.00    +0.000 HD
ATOM     27  H   UNL     1      48.455   2.689   4.475  0.00  0.00    +0.000 HD
ENDBRANCH  20  23
ENDBRANCH  16  17
ENDBRANCH  15  16
ENDBRANCH   2  15
TORSDOF 7
ENDMDL
MODEL 3
REMARK VINA RESULT:    -6.914      1.982      2.664
REMARK INTER + INTRA:         -10.758
REMARK INTER:                  -9.990
REMARK INTRA:                  -0.768
REMARK UNBOUND:                -1.014
REMARK  Name = 
REMARK  8 active torsions:
REMARK  status: ('A' for Active; 'I' for Inactive)
REMARK    1  A    between atoms: C_1  and  N_2
REMARK    2  A    between atoms: N_2  and  C_3
REMARK    3  A    between atoms: N_2  and  C_14
REMARK    4  A    between atoms: C_3  and  C_4
REMARK    5  A    between atoms: C_4  and  C_5
REMARK    6  A    between atoms: C_8  and  C_9
REMARK    7  A    between atoms: C_18  and  O_19
REMARK    8  A    between atoms: O_19  and  C_20
REMARK                            x       y       z     vdW  Elec       q    Type
REMARK                         _______ _______ _______ _____ _____    ______ ____
ROOT
ATOM      1  C   UNL     1      45.135   4.256  12.941  0.00  0.00    +0.000 C 
ATOM      2  N   UNL     1      44.320   5.254  12.238  0.00  0.00    +0.000 N 
ENDROOT
BRANCH   2   3
ATOM      3  C   UNL     1      44.848   6.567  12.241  0.00  0.00    +0.000 A 
ATOM      4  C   UNL     1      44.269   7.625  11.519  0.00  0.00    +0.000 A 
ATOM      5  C   UNL     1      44.801   8.924  11.537  0.00  0.00    +0.000 A 
ATOM      6  C   UNL     1      45.933   9.213  12.293  0.00  0.00    +0.000 A 
ATOM      7  C   UNL     1      46.526   8.197  13.025  0.00  0.00    +0.000 A 
ATOM      8  C   UNL     1      45.979   6.907  13.008  0.00  0.00    +0.000 A 
BRANCH   7   9
ATOM      9  O   UNL     1      47.622   8.358  13.838  0.00  0.00    +0.000 OA
BRANCH   9  10
ATOM     10  C   UNL     1      48.544   7.255  13.990  0.00  0.00    +0.000 C 
ATOM     11  C   UNL     1      48.929   6.826  15.421  0.00  0.00    +0.000 C 
ATOM     12  N   UNL     1      50.357   6.926  15.084  0.00  0.00    +0.000 NA
ATOM     13  C   UNL     1      50.033   7.628  13.834  0.00  0.00    +0.000 C 
ATOM     14  H   UNL     1      50.816   6.028  14.945  0.00  0.00    +0.000 HD
ENDBRANCH   9  10
ENDBRANCH   7   9
ENDBRANCH   2   3
BRANCH   2  15
ATOM     15  C   UNL     1      43.530   4.833  11.055  0.00  0.00    +0.000 C 
BRANCH  15  16
ATOM     16  C   UNL     1      43.680   3.352  10.681  0.00  0.00    +0.000 C 
BRANCH  16  17
ATOM     17  C   UNL     1      44.656   3.110   9.554  0.00  0.00    +0.000 A 
ATOM     18  C   UNL     1      45.205   4.194   8.853  0.00  0.00    +0.000 A 
ATOM     19  C   UNL     1      46.153   3.980   7.850  0.00  0.00    +0.000 A 
ATOM     20  C   UNL     1      46.567   2.681   7.537  0.00  0.00    +0.000 A 
ATOM     21  C   UNL     1      45.996   1.594   8.208  0.00  0.00    +0.000 A 
ATOM     22  C   UNL     1      45.043   1.809   9.209  0.00  0.00    +0.000 A 
BRANCH  20  23
ATOM     23  C   UNL     1      47.599   2.507   6.480  0.00  0.00    +0.000 C 
ATOM     24  N   UNL     1      47.397   3.152   5.291  0.00  0.00    +0.000 N 
ATOM     25  O   UNL     1      48.573   1.785   6.645  0.00  0.00    +0.000 OA
ATOM     26  H   UNL     1      46.513   3.563   5.034  0.00  0.00    +0.000 HD
ATOM     27  H   UNL     1      48.051   2.936   4.550  0.00  0.00    +0.000 HD
ENDBRANCH  20  23
ENDBRANCH  16  17
ENDBRANCH  15  16
ENDBRANCH   2  15
TORSDOF 7
ENDMDL
MODEL 4
REMARK VINA RESULT:    -6.872      2.793      4.786
REMARK INTER + INTRA:         -10.698
REMARK INTER:                  -9.867
REMARK INTRA:                  -0.830
REMARK UNBOUND:                -1.014
REMARK  Name = 
REMARK  8 active torsions:
REMARK  status: ('A' for Active; 'I' for Inactive)
REMARK    1  A    between atoms: C_1  and  N_2
REMARK    2  A    between atoms: N_2  and  C_3
REMARK    3  A    between atoms: N_2  and  C_14
REMARK    4  A    between atoms: C_3  and  C_4
REMARK    5  A    between atoms: C_4  and  C_5
REMARK    6  A    between atoms: C_8  and  C_9
REMARK    7  A    between atoms: C_18  and  O_19
REMARK    8  A    between atoms: O_19  and  C_20
REMARK                            x       y       z     vdW  Elec       q    Type
REMARK                         _______ _______ _______ _____ _____    ______ ____
ROOT
ATOM      1  C   UNL     1      45.426   4.253  12.932  0.00  0.00    +0.000 C 
ATOM      2  N   UNL     1      44.728   5.361  12.268  0.00  0.00    +0.000 N 
ENDROOT
BRANCH   2   3
ATOM      3  C   UNL     1      45.448   6.578  12.217  0.00  0.00    +0.000 A 
ATOM      4  C   UNL     1      46.841   6.650  12.398  0.00  0.00    +0.000 A 
ATOM      5  C   UNL     1      47.542   7.864  12.338  0.00  0.00    +0.000 A 
ATOM      6  C   UNL     1      46.870   9.056  12.083  0.00  0.00    +0.000 A 
ATOM      7  C   UNL     1      45.499   9.023  11.890  0.00  0.00    +0.000 A 
ATOM      8  C   UNL     1      44.811   7.803  11.941  0.00  0.00    +0.000 A 
BRANCH   7   9
ATOM      9  O   UNL     1      44.725  10.120  11.595  0.00  0.00    +0.000 OA
BRANCH   9  10
ATOM     10  C   UNL     1      43.476   9.923  10.896  0.00  0.00    +0.000 C 
ATOM     11  C   UNL     1      43.330  10.538   9.488  0.00  0.00    +0.000 C 
ATOM     12  N   UNL     1      42.078  11.198   9.890  0.00  0.00    +0.000 NA
ATOM     13  C   UNL     1      42.347  10.893  11.302  0.00  0.00    +0.000 C 
ATOM     14  H   UNL     1      41.237  10.753   9.524  0.00  0.00    +0.000 HD
ENDBRANCH   9  10
ENDBRANCH   7   9
ENDBRANCH   2   3
BRANCH   2  15
ATOM     15  C   UNL     1      43.808   5.059  11.144  0.00  0.00    +0.000 C 
BRANCH  15  16
ATOM     16  C   UNL     1      43.829   3.598  10.675  0.00  0.00    +0.000 C 
BRANCH  16  17
ATOM     17  C   UNL     1      44.790   3.343   9.538  0.00  0.00    +0.000 A 
ATOM     18  C   UNL     1      45.152   2.029   9.203  0.00  0.00    +0.000 A 
ATOM     19  C   UNL     1      45.992   1.783   8.116  0.00  0.00    +0.000 A 
ATOM     20  C   UNL     1      46.479   2.845   7.346  0.00  0.00    +0.000 A 
ATOM     21  C   UNL     1      46.151   4.159   7.698  0.00  0.00    +0.000 A 
ATOM     22  C   UNL     1      45.313   4.405   8.790  0.00  0.00    +0.000 A 
BRANCH  20  23
ATOM     23  C   UNL     1      47.349   2.529   6.183  0.00  0.00    +0.000 C 
ATOM     24  N   UNL     1      48.635   2.140   6.443  0.00  0.00    +0.000 N 
ATOM     25  O   UNL     1      46.951   2.647   5.032  0.00  0.00    +0.000 OA
ATOM     26  H   UNL     1      49.066   2.248   7.349  0.00  0.00    +0.000 HD
ATOM     27  H   UNL     1      49.240   2.034   5.641  0.00  0.00    +0.000 HD
ENDBRANCH  20  23
ENDBRANCH  16  17
ENDBRANCH  15  16
ENDBRANCH   2  15
TORSDOF 7
ENDMDL
MODEL 5
REMARK VINA RESULT:    -6.685      2.330      3.510
REMARK INTER + INTRA:         -10.434
REMARK INTER:                  -9.680
REMARK INTRA:                  -0.754
REMARK UNBOUND:                -1.014
REMARK  Name = 
REMARK  8 active torsions:
REMARK  status: ('A' for Active; 'I' for Inactive)
REMARK    1  A    between atoms: C_1  and  N_2
REMARK    2  A    between atoms: N_2  and  C_3
REMARK    3  A    between atoms: N_2  and  C_14
REMARK    4  A    between atoms: C_3  and  C_4
REMARK    5  A    between atoms: C_4  and  C_5
REMARK    6  A    between atoms: C_8  and  C_9
REMARK    7  A    between atoms: C_18  and  O_19
REMARK    8  A    between atoms: O_19  and  C_20
REMARK                            x       y       z     vdW  Elec       q    Type
REMARK                         _______ _______ _______ _____ _____    ______ ____
ROOT
ATOM      1  C   UNL     1      44.890   6.854  11.282  0.00  0.00    +0.000 C 
ATOM      2  N   UNL     1      45.369   5.549  11.755  0.00  0.00    +0.000 N 
ENDROOT
BRANCH   2   3
ATOM      3  C   UNL     1      46.263   5.600  12.850  0.00  0.00    +0.000 A 
ATOM      4  C   UNL     1      46.275   4.635  13.872  0.00  0.00    +0.000 A 
ATOM      5  C   UNL     1      47.173   4.695  14.948  0.00  0.00    +0.000 A 
ATOM      6  C   UNL     1      48.104   5.726  15.035  0.00  0.00    +0.000 A 
ATOM      7  C   UNL     1      48.128   6.690  14.040  0.00  0.00    +0.000 A 
ATOM      8  C   UNL     1      47.234   6.613  12.964  0.00  0.00    +0.000 A 
BRANCH   7   9
ATOM      9  O   UNL     1      49.019   7.736  13.988  0.00  0.00    +0.000 OA
BRANCH   9  10
ATOM     10  C   UNL     1      49.014   8.597  12.827  0.00  0.00    +0.000 C 
ATOM     11  C   UNL     1      50.346   8.801  12.073  0.00  0.00    +0.000 C 
ATOM     12  N   UNL     1      50.189  10.261  12.162  0.00  0.00    +0.000 NA
ATOM     13  C   UNL     1      49.103  10.105  13.139  0.00  0.00    +0.000 C 
ATOM     14  H   UNL     1      49.902  10.703  11.291  0.00  0.00    +0.000 HD
ENDBRANCH   9  10
ENDBRANCH   7   9
ENDBRANCH   2   3
BRANCH   2  15
ATOM     15  C   UNL     1      44.467   4.376  11.656  0.00  0.00    +0.000 C 
BRANCH  15  16
ATOM     16  C   UNL     1      43.828   4.174  10.276  0.00  0.00    +0.000 C 
BRANCH  16  17
ATOM     17  C   UNL     1      44.758   3.542   9.266  0.00  0.00    +0.000 A 
ATOM     18  C   UNL     1      45.357   4.329   8.272  0.00  0.00    +0.000 A 
ATOM     19  C   UNL     1      46.263   3.763   7.373  0.00  0.00    +0.000 A 
ATOM     20  C   UNL     1      46.586   2.404   7.459  0.00  0.00    +0.000 A 
ATOM     21  C   UNL     1      45.964   1.607   8.426  0.00  0.00    +0.000 A 
ATOM     22  C   UNL     1      45.052   2.174   9.322  0.00  0.00    +0.000 A 
BRANCH  20  23
ATOM     23  C   UNL     1      47.577   1.855   6.496  0.00  0.00    +0.000 C 
ATOM     24  N   UNL     1      48.739   2.554   6.319  0.00  0.00    +0.000 N 
ATOM     25  O   UNL     1      47.352   0.839   5.852  0.00  0.00    +0.000 OA
ATOM     26  H   UNL     1      48.866   3.499   6.650  0.00  0.00    +0.000 HD
ATOM     27  H   UNL     1      49.351   2.225   5.584  0.00  0.00    +0.000 HD
ENDBRANCH  20  23
ENDBRANCH  16  17
ENDBRANCH  15  16
ENDBRANCH   2  15
TORSDOF 7
ENDMDL
MODEL 6
REMARK VINA RESULT:    -6.248      2.090      8.424
REMARK INTER + INTRA:          -9.820
REMARK INTER:                  -9.218
REMARK INTRA:                  -0.602
REMARK UNBOUND:                -1.014
REMARK  Name = 
REMARK  8 active torsions:
REMARK  status: ('A' for Active; 'I' for Inactive)
REMARK    1  A    between atoms: C_1  and  N_2
REMARK    2  A    between atoms: N_2  and  C_3
REMARK    3  A    between atoms: N_2  and  C_14
REMARK    4  A    between atoms: C_3  and  C_4
REMARK    5  A    between atoms: C_4  and  C_5
REMARK    6  A    between atoms: C_8  and  C_9
REMARK    7  A    between atoms: C_18  and  O_19
REMARK    8  A    between atoms: O_19  and  C_20
REMARK                            x       y       z     vdW  Elec       q    Type
REMARK                         _______ _______ _______ _____ _____    ______ ____
ROOT
ATOM      1  C   UNL     1      45.943   8.197  12.809  0.00  0.00    +0.000 C 
ATOM      2  N   UNL     1      45.969   6.739  12.973  0.00  0.00    +0.000 N 
ENDROOT
BRANCH   2   3
ATOM      3  C   UNL     1      45.180   6.018  12.047  0.00  0.00    +0.000 A 
ATOM      4  C   UNL     1      43.863   5.608  12.321  0.00  0.00    +0.000 A 
ATOM      5  C   UNL     1      43.090   4.899  11.389  0.00  0.00    +0.000 A 
ATOM      6  C   UNL     1      43.608   4.582  10.136  0.00  0.00    +0.000 A 
ATOM      7  C   UNL     1      44.899   4.979   9.827  0.00  0.00    +0.000 A 
ATOM      8  C   UNL     1      45.657   5.696  10.761  0.00  0.00    +0.000 A 
BRANCH   7   9
ATOM      9  O   UNL     1      45.513   4.762   8.617  0.00  0.00    +0.000 OA
BRANCH   9  10
ATOM     10  C   UNL     1      45.336   3.484   7.965  0.00  0.00    +0.000 C 
ATOM     11  C   UNL     1      45.731   2.214   8.747  0.00  0.00    +0.000 C 
ATOM     12  N   UNL     1      46.570   1.766   7.624  0.00  0.00    +0.000 NA
ATOM     13  C   UNL     1      46.468   3.089   6.994  0.00  0.00    +0.000 C 
ATOM     14  H   UNL     1      46.161   1.013   7.073  0.00  0.00    +0.000 HD
ENDBRANCH   9  10
ENDBRANCH   7   9
ENDBRANCH   2   3
BRANCH   2  15
ATOM     15  C   UNL     1      47.211   6.095  13.468  0.00  0.00    +0.000 C 
BRANCH  15  16
ATOM     16  C   UNL     1      46.995   4.751  14.178  0.00  0.00    +0.000 C 
BRANCH  16  17
ATOM     17  C   UNL     1      47.564   4.710  15.577  0.00  0.00    +0.000 A 
ATOM     18  C   UNL     1      47.308   3.609  16.408  0.00  0.00    +0.000 A 
ATOM     19  C   UNL     1      47.879   3.536  17.680  0.00  0.00    +0.000 A 
ATOM     20  C   UNL     1      48.716   4.560  18.137  0.00  0.00    +0.000 A 
ATOM     21  C   UNL     1      48.945   5.677  17.327  0.00  0.00    +0.000 A 
ATOM     22  C   UNL     1      48.368   5.751  16.055  0.00  0.00    +0.000 A 
BRANCH  20  23
ATOM     23  C   UNL     1      49.321   4.423  19.488  0.00  0.00    +0.000 C 
ATOM     24  N   UNL     1      48.516   3.968  20.497  0.00  0.00    +0.000 N 
ATOM     25  O   UNL     1      50.482   4.740  19.708  0.00  0.00    +0.000 OA
ATOM     26  H   UNL     1      47.512   3.914  20.414  0.00  0.00    +0.000 HD
ATOM     27  H   UNL     1      48.913   3.984  21.426  0.00  0.00    +0.000 HD
ENDBRANCH  20  23
ENDBRANCH  16  17
ENDBRANCH  15  16
ENDBRANCH   2  15
TORSDOF 7
ENDMDL
MODEL 7
REMARK VINA RESULT:    -6.099      3.196      4.910
REMARK INTER + INTRA:          -9.609
REMARK INTER:                  -8.728
REMARK INTRA:                  -0.882
REMARK UNBOUND:                -1.014
REMARK  Name = 
REMARK  8 active torsions:
REMARK  status: ('A' for Active; 'I' for Inactive)
REMARK    1  A    between atoms: C_1  and  N_2
REMARK    2  A    between atoms: N_2  and  C_3
REMARK    3  A    between atoms: N_2  and  C_14
REMARK    4  A    between atoms: C_3  and  C_4
REMARK    5  A    between atoms: C_4  and  C_5
REMARK    6  A    between atoms: C_8  and  C_9
REMARK    7  A    between atoms: C_18  and  O_19
REMARK    8  A    between atoms: O_19  and  C_20
REMARK                            x       y       z     vdW  Elec       q    Type
REMARK                         _______ _______ _______ _____ _____    ______ ____
ROOT
ATOM      1  C   UNL     1      49.771   9.213  12.262  0.00  0.00    +0.000 C 
ATOM      2  N   UNL     1      48.664   8.394  12.772  0.00  0.00    +0.000 N 
ENDROOT
BRANCH   2   3
ATOM      3  C   UNL     1      48.712   8.120  14.159  0.00  0.00    +0.000 A 
ATOM      4  C   UNL     1      48.622   9.123  15.140  0.00  0.00    +0.000 A 
ATOM      5  C   UNL     1      48.664   8.834  16.512  0.00  0.00    +0.000 A 
ATOM      6  C   UNL     1      48.789   7.520  16.955  0.00  0.00    +0.000 A 
ATOM      7  C   UNL     1      48.870   6.504  16.016  0.00  0.00    +0.000 A 
ATOM      8  C   UNL     1      48.815   6.803  14.649  0.00  0.00    +0.000 A 
BRANCH   7   9
ATOM      9  O   UNL     1      48.958   5.166  16.320  0.00  0.00    +0.000 OA
BRANCH   9  10
ATOM     10  C   UNL     1      47.746   4.379  16.352  0.00  0.00    +0.000 C 
ATOM     11  C   UNL     1      46.919   4.377  17.654  0.00  0.00    +0.000 C 
ATOM     12  N   UNL     1      46.923   2.906  17.672  0.00  0.00    +0.000 NA
ATOM     13  C   UNL     1      47.958   2.876  16.630  0.00  0.00    +0.000 C 
ATOM     14  H   UNL     1      46.040   2.484  17.390  0.00  0.00    +0.000 HD
ENDBRANCH   9  10
ENDBRANCH   7   9
ENDBRANCH   2   3
BRANCH   2  15
ATOM     15  C   UNL     1      47.328   8.521  12.141  0.00  0.00    +0.000 C 
BRANCH  15  16
ATOM     16  C   UNL     1      46.159   8.050  13.017  0.00  0.00    +0.000 C 
BRANCH  16  17
ATOM     17  C   UNL     1      45.563   6.735  12.571  0.00  0.00    +0.000 A 
ATOM     18  C   UNL     1      44.952   6.630  11.313  0.00  0.00    +0.000 A 
ATOM     19  C   UNL     1      44.452   5.404  10.870  0.00  0.00    +0.000 A 
ATOM     20  C   UNL     1      44.559   4.266  11.677  0.00  0.00    +0.000 A 
ATOM     21  C   UNL     1      45.135   4.373  12.948  0.00  0.00    +0.000 A 
ATOM     22  C   UNL     1      45.631   5.603  13.392  0.00  0.00    +0.000 A 
BRANCH  20  23
ATOM     23  C   UNL     1      44.035   2.978  11.150  0.00  0.00    +0.000 C 
ATOM     24  N   UNL     1      44.734   2.381  10.137  0.00  0.00    +0.000 N 
ATOM     25  O   UNL     1      42.998   2.485  11.572  0.00  0.00    +0.000 OA
ATOM     26  H   UNL     1      45.452   2.856   9.612  0.00  0.00    +0.000 HD
ATOM     27  H   UNL     1      44.305   1.565   9.720  0.00  0.00    +0.000 HD
ENDBRANCH  20  23
ENDBRANCH  16  17
ENDBRANCH  15  16
ENDBRANCH   2  15
TORSDOF 7
ENDMDL
MODEL 8
REMARK VINA RESULT:    -6.093      3.945      5.827
REMARK INTER + INTRA:          -9.600
REMARK INTER:                  -8.459
REMARK INTRA:                  -1.141
REMARK UNBOUND:                -1.014
REMARK  Name = 
REMARK  8 active torsions:
REMARK  status: ('A' for Active; 'I' for Inactive)
REMARK    1  A    between atoms: C_1  and  N_2
REMARK    2  A    between atoms: N_2  and  C_3
REMARK    3  A    between atoms: N_2  and  C_14
REMARK    4  A    between atoms: C_3  and  C_4
REMARK    5  A    between atoms: C_4  and  C_5
REMARK    6  A    between atoms: C_8  and  C_9
REMARK    7  A    between atoms: C_18  and  O_19
REMARK    8  A    between atoms: O_19  and  C_20
REMARK                            x       y       z     vdW  Elec       q    Type
REMARK                         _______ _______ _______ _____ _____    ______ ____
ROOT
ATOM      1  C   UNL     1      48.789   9.746  14.061  0.00  0.00    +0.000 C 
ATOM      2  N   UNL     1      49.330   8.465  14.531  0.00  0.00    +0.000 N 
ENDROOT
BRANCH   2   3
ATOM      3  C   UNL     1      48.989   8.123  15.861  0.00  0.00    +0.000 A 
ATOM      4  C   UNL     1      48.372   9.023  16.747  0.00  0.00    +0.000 A 
ATOM      5  C   UNL     1      48.033   8.666  18.061  0.00  0.00    +0.000 A 
ATOM      6  C   UNL     1      48.293   7.383  18.534  0.00  0.00    +0.000 A 
ATOM      7  C   UNL     1      48.891   6.466  17.686  0.00  0.00    +0.000 A 
ATOM      8  C   UNL     1      49.214   6.830  16.372  0.00  0.00    +0.000 A 
BRANCH   7   9
ATOM      9  O   UNL     1      49.166   5.160  18.016  0.00  0.00    +0.000 OA
BRANCH   9  10
ATOM     10  C   UNL     1      48.472   4.104  17.316  0.00  0.00    +0.000 C 
ATOM     11  C   UNL     1      46.935   4.192  17.214  0.00  0.00    +0.000 C 
ATOM     12  N   UNL     1      46.806   2.828  17.751  0.00  0.00    +0.000 NA
ATOM     13  C   UNL     1      48.220   2.830  18.150  0.00  0.00    +0.000 C 
ATOM     14  H   UNL     1      46.575   2.125  17.050  0.00  0.00    +0.000 HD
ENDBRANCH   9  10
ENDBRANCH   7   9
ENDBRANCH   2   3
BRANCH   2  15
ATOM     15  C   UNL     1      49.504   7.359  13.558  0.00  0.00    +0.000 C 
BRANCH  15  16
ATOM     16  C   UNL     1      48.570   7.425  12.342  0.00  0.00    +0.000 C 
BRANCH  16  17
ATOM     17  C   UNL     1      47.368   6.517  12.454  0.00  0.00    +0.000 A 
ATOM     18  C   UNL     1      47.208   5.695  13.580  0.00  0.00    +0.000 A 
ATOM     19  C   UNL     1      46.070   4.898  13.718  0.00  0.00    +0.000 A 
ATOM     20  C   UNL     1      45.074   4.916  12.736  0.00  0.00    +0.000 A 
ATOM     21  C   UNL     1      45.245   5.706  11.594  0.00  0.00    +0.000 A 
ATOM     22  C   UNL     1      46.388   6.500  11.454  0.00  0.00    +0.000 A 
BRANCH  20  23
ATOM     23  C   UNL     1      43.869   4.070  12.942  0.00  0.00    +0.000 C 
ATOM     24  N   UNL     1      43.976   2.738  12.652  0.00  0.00    +0.000 N 
ATOM     25  O   UNL     1      42.806   4.546  13.318  0.00  0.00    +0.000 OA
ATOM     26  H   UNL     1      44.749   2.351  12.132  0.00  0.00    +0.000 HD
ATOM     27  H   UNL     1      43.120   2.201  12.695  0.00  0.00    +0.000 HD
ENDBRANCH  20  23
ENDBRANCH  16  17
ENDBRANCH  15  16
ENDBRANCH   2  15
TORSDOF 7
ENDMDL
MODEL 9
REMARK VINA RESULT:    -5.908      3.545      5.925
REMARK INTER + INTRA:          -9.340
REMARK INTER:                  -8.363
REMARK INTRA:                  -0.978
REMARK UNBOUND:                -1.014
REMARK  Name = 
REMARK  8 active torsions:
REMARK  status: ('A' for Active; 'I' for Inactive)
REMARK    1  A    between atoms: C_1  and  N_2
REMARK    2  A    between atoms: N_2  and  C_3
REMARK    3  A    between atoms: N_2  and  C_14
REMARK    4  A    between atoms: C_3  and  C_4
REMARK    5  A    between atoms: C_4  and  C_5
REMARK    6  A    between atoms: C_8  and  C_9
REMARK    7  A    between atoms: C_18  and  O_19
REMARK    8  A    between atoms: O_19  and  C_20
REMARK                            x       y       z     vdW  Elec       q    Type
REMARK                         _______ _______ _______ _____ _____    ______ ____
ROOT
ATOM      1  C   UNL     1      50.499   9.767  15.053  0.00  0.00    +0.000 C 
ATOM      2  N   UNL     1      50.151   8.384  14.705  0.00  0.00    +0.000 N 
ENDROOT
BRANCH   2   3
ATOM      3  C   UNL     1      50.732   7.394  15.532  0.00  0.00    +0.000 A 
ATOM      4  C   UNL     1      52.122   7.227  15.664  0.00  0.00    +0.000 A 
ATOM      5  C   UNL     1      52.683   6.245  16.494  0.00  0.00    +0.000 A 
ATOM      6  C   UNL     1      51.867   5.395  17.234  0.00  0.00    +0.000 A 
ATOM      7  C   UNL     1      50.492   5.536  17.138  0.00  0.00    +0.000 A 
ATOM      8  C   UNL     1      49.944   6.528  16.314  0.00  0.00    +0.000 A 
BRANCH   7   9
ATOM      9  O   UNL     1      49.579   4.788  17.842  0.00  0.00    +0.000 OA
BRANCH   9  10
ATOM     10  C   UNL     1      48.585   4.035  17.111  0.00  0.00    +0.000 C 
ATOM     11  C   UNL     1      47.108   4.458  17.254  0.00  0.00    +0.000 C 
ATOM     12  N   UNL     1      46.732   3.079  17.606  0.00  0.00    +0.000 NA
ATOM     13  C   UNL     1      48.145   2.719  17.785  0.00  0.00    +0.000 C 
ATOM     14  H   UNL     1      46.267   2.570  16.856  0.00  0.00    +0.000 HD
ENDBRANCH   9  10
ENDBRANCH   7   9
ENDBRANCH   2   3
BRANCH   2  15
ATOM     15  C   UNL     1      48.812   8.103  14.132  0.00  0.00    +0.000 C 
BRANCH  15  16
ATOM     16  C   UNL     1      48.829   7.276  12.840  0.00  0.00    +0.000 C 
BRANCH  16  17
ATOM     17  C   UNL     1      47.600   6.416  12.657  0.00  0.00    +0.000 A 
ATOM     18  C   UNL     1      46.799   6.565  11.515  0.00  0.00    +0.000 A 
ATOM     19  C   UNL     1      45.697   5.734  11.311  0.00  0.00    +0.000 A 
ATOM     20  C   UNL     1      45.382   4.739  12.243  0.00  0.00    +0.000 A 
ATOM     21  C   UNL     1      46.156   4.609  13.402  0.00  0.00    +0.000 A 
ATOM     22  C   UNL     1      47.257   5.446  13.607  0.00  0.00    +0.000 A 
BRANCH  20  23
ATOM     23  C   UNL     1      44.214   3.861  11.967  0.00  0.00    +0.000 C 
ATOM     24  N   UNL     1      44.196   2.629  12.561  0.00  0.00    +0.000 N 
ATOM     25  O   UNL     1      43.319   4.203  11.206  0.00  0.00    +0.000 OA
ATOM     26  H   UNL     1      45.007   2.223  13.003  0.00  0.00    +0.000 HD
ATOM     27  H   UNL     1      43.451   2.007  12.278  0.00  0.00    +0.000 HD
ENDBRANCH  20  23
ENDBRANCH  16  17
ENDBRANCH  15  16
ENDBRANCH   2  15
TORSDOF 7
ENDMDL
