MODEL 1
REMARK VINA RESULT:    -8.455      0.000      0.000
REMARK INTER + INTRA:         -13.005
REMARK INTER:                 -11.667
REMARK INTRA:                  -1.338
REMARK UNBOUND:                -1.338
REMARK  Name = 
REMARK  7 active torsions:
REMARK  status: ('A' for Active; 'I' for Inactive)
REMARK    1  A    between atoms: C_2  and  C_20
REMARK    2  A    between atoms: N_3  and  C_4
REMARK    3  A    between atoms: C_4  and  C_5
REMARK    4  A    between atoms: C_8  and  C_9
REMARK    5  A    between atoms: C_9  and  C_10
REMARK    6  A    between atoms: C_10  and  O_11
REMARK    7  A    between atoms: C_10  and  C_12
REMARK                            x       y       z     vdW  Elec       q    Type
REMARK                         _______ _______ _______ _____ _____    ______ ____
ROOT
ATOM      1  C   UNL     1      46.513   7.822  12.954  0.00  0.00    +0.000 C 
ENDROOT
BRANCH   1   2
ATOM      2  C   UNL     1      45.951   6.764  12.046  0.00  0.00    +0.000 A 
ATOM      3  C   UNL     1      44.946   5.907  12.506  0.00  0.00    +0.000 A 
ATOM      4  C   UNL     1      44.434   4.902  11.684  0.00  0.00    +0.000 A 
ATOM      5  C   UNL     1      44.920   4.721  10.384  0.00  0.00    +0.000 A 
ATOM      6  C   UNL     1      45.951   5.562   9.937  0.00  0.00    +0.000 A 
ATOM      7  C   UNL     1      46.467   6.567  10.760  0.00  0.00    +0.000 A 
BRANCH   5   8
ATOM      8  C   UNL     1      44.367   3.685   9.421  0.00  0.00    +0.000 C 
BRANCH   8   9
ATOM      9  C   UNL     1      45.186   2.389   9.229  0.00  0.00    +0.000 C 
BRANCH   9  10
ATOM     10  C   UNL     1      46.015   2.321   7.962  0.00  0.00    +0.000 A 
ATOM     11  C   UNL     1      46.669   1.117   7.648  0.00  0.00    +0.000 A 
ATOM     12  C   UNL     1      47.389   0.979   6.460  0.00  0.00    +0.000 A 
ATOM     13  C   UNL     1      47.457   2.039   5.561  0.00  0.00    +0.000 A 
ATOM     14  C   UNL     1      46.809   3.238   5.852  0.00  0.00    +0.000 A 
ATOM     15  C   UNL     1      46.090   3.378   7.042  0.00  0.00    +0.000 A 
ENDBRANCH   9  10
BRANCH   9  16
ATOM     16  O   UNL     1      44.326   1.246   9.205  0.00  0.00    +0.000 OA
ATOM     17  H   UNL     1      44.349   0.889   8.302  0.00  0.00    +0.000 HD
ENDBRANCH   9  16
ENDBRANCH   8   9
ENDBRANCH   5   8
ENDBRANCH   1   2
BRANCH   1  20
ATOM     18  O   UNL     1      49.076   6.749  13.218  0.00  0.00    +0.000 OA
ATOM     19  C   UNL     1      48.346   6.781  14.203  0.00  0.00    +0.000 C 
ATOM     20  N   UNL     1      47.049   7.215  14.144  0.00  0.00    +0.000 N 
ATOM     21  H   UNL     1      46.561   7.429  15.006  0.00  0.00    +0.000 HD
BRANCH  19  22
ATOM     22  C   UNL     1      48.798   6.305  15.514  0.00  0.00    +0.000 A 
ATOM     23  C   UNL     1      49.793   6.987  16.197  0.00  0.00    +0.000 A 
ATOM     24  S   UNL     1      50.212   6.265  17.685  0.00  0.00    +0.000 S 
ATOM     25  C   UNL     1      49.046   5.043  17.487  0.00  0.00    +0.000 A 
ATOM     26  N   UNL     1      48.864   4.084  18.434  0.00  0.00    +0.000 NA
ATOM     27  C   UNL     1      47.924   3.240  18.166  0.00  0.00    +0.000 A 
ATOM     28  N   UNL     1      47.150   3.263  17.034  0.00  0.00    +0.000 N 
ATOM     29  C   UNL     1      47.319   4.194  16.041  0.00  0.00    +0.000 A 
ATOM     30  O   UNL     1      46.640   4.156  15.016  0.00  0.00    +0.000 OA
ATOM     31  C   UNL     1      48.355   5.172  16.295  0.00  0.00    +0.000 A 
ATOM     32  H   UNL     1      46.439   2.566  16.878  0.00  0.00    +0.000 HD
ENDBRANCH  19  22
ENDBRANCH   1  20
TORSDOF 7
ENDMDL
MODEL 2
REMARK VINA RESULT:    -7.938      1.880      2.283
REMARK INTER + INTRA:         -12.292
REMARK INTER:                 -11.568
REMARK INTRA:                  -0.723
REMARK UNBOUND:                -1.338
REMARK  Name = 
REMARK  7 active torsions:
REMARK  status: ('A' for Active; 'I' for Inactive)
REMARK    1  A    between atoms: C_2  and  C_20
REMARK    2  A    between atoms: N_3  and  C_4
REMARK    3  A    between atoms: C_4  and  C_5
REMARK    4  A    between atoms: C_8  and  C_9
REMARK    5  A    between atoms: C_9  and  C_10
REMARK    6  A    between atoms: C_10  and  O_11
REMARK    7  A    between atoms: C_10  and  C_12
REMARK                            x       y       z     vdW  Elec       q    Type
REMARK                         _______ _______ _______ _____ _____    ______ ____
ROOT
ATOM      1  C   UNL     1      48.160   6.767  13.612  0.00  0.00    +0.000 C 
ENDROOT
BRANCH   1   2
ATOM      2  C   UNL     1      47.154   5.861  12.958  0.00  0.00    +0.000 A 
ATOM      3  C   UNL     1      46.413   6.313  11.862  0.00  0.00    +0.000 A 
ATOM      4  C   UNL     1      45.456   5.494  11.261  0.00  0.00    +0.000 A 
ATOM      5  C   UNL     1      45.208   4.205  11.747  0.00  0.00    +0.000 A 
ATOM      6  C   UNL     1      45.931   3.767  12.867  0.00  0.00    +0.000 A 
ATOM      7  C   UNL     1      46.888   4.587  13.472  0.00  0.00    +0.000 A 
BRANCH   5   8
ATOM      8  C   UNL     1      44.222   3.245  11.105  0.00  0.00    +0.000 C 
BRANCH   8   9
ATOM      9  C   UNL     1      44.005   3.368   9.580  0.00  0.00    +0.000 C 
BRANCH   9  10
ATOM     10  C   UNL     1      45.203   3.017   8.718  0.00  0.00    +0.000 A 
ATOM     11  C   UNL     1      45.622   1.676   8.661  0.00  0.00    +0.000 A 
ATOM     12  C   UNL     1      46.675   1.288   7.830  0.00  0.00    +0.000 A 
ATOM     13  C   UNL     1      47.318   2.232   7.036  0.00  0.00    +0.000 A 
ATOM     14  C   UNL     1      46.912   3.563   7.075  0.00  0.00    +0.000 A 
ATOM     15  C   UNL     1      45.860   3.955   7.907  0.00  0.00    +0.000 A 
ENDBRANCH   9  10
BRANCH   9  16
ATOM     16  O   UNL     1      43.638   4.705   9.227  0.00  0.00    +0.000 OA
ATOM     17  H   UNL     1      43.802   4.805   8.274  0.00  0.00    +0.000 HD
ENDBRANCH   9  16
ENDBRANCH   8   9
ENDBRANCH   5   8
ENDBRANCH   1   2
BRANCH   1  20
ATOM     18  O   UNL     1      50.232   6.519  15.467  0.00  0.00    +0.000 OA
ATOM     19  C   UNL     1      49.087   6.676  15.878  0.00  0.00    +0.000 C 
ATOM     20  N   UNL     1      48.004   6.725  15.042  0.00  0.00    +0.000 N 
ATOM     21  H   UNL     1      47.121   7.071  15.400  0.00  0.00    +0.000 HD
BRANCH  19  22
ATOM     22  C   UNL     1      48.789   6.771  17.311  0.00  0.00    +0.000 A 
ATOM     23  C   UNL     1      48.473   7.997  17.876  0.00  0.00    +0.000 A 
ATOM     24  S   UNL     1      48.193   7.917  19.557  0.00  0.00    +0.000 S 
ATOM     25  C   UNL     1      48.441   6.235  19.577  0.00  0.00    +0.000 A 
ATOM     26  N   UNL     1      48.328   5.521  20.730  0.00  0.00    +0.000 NA
ATOM     27  C   UNL     1      48.512   4.250  20.591  0.00  0.00    +0.000 A 
ATOM     28  N   UNL     1      48.802   3.626  19.405  0.00  0.00    +0.000 N 
ATOM     29  C   UNL     1      48.953   4.310  18.226  0.00  0.00    +0.000 A 
ATOM     30  O   UNL     1      49.262   3.725  17.190  0.00  0.00    +0.000 OA
ATOM     31  C   UNL     1      48.748   5.740  18.323  0.00  0.00    +0.000 A 
ATOM     32  H   UNL     1      48.946   2.629  19.366  0.00  0.00    +0.000 HD
ENDBRANCH  19  22
ENDBRANCH   1  20
TORSDOF 7
ENDMDL
MODEL 3
REMARK VINA RESULT:    -7.686      2.411      4.127
REMARK INTER + INTRA:         -11.944
REMARK INTER:                 -10.658
REMARK INTRA:                  -1.286
REMARK UNBOUND:                -1.338
REMARK  Name = 
REMARK  7 active torsions:
REMARK  status: ('A' for Active; 'I' for Inactive)
REMARK    1  A    between atoms: C_2  and  C_20
REMARK    2  A    between atoms: N_3  and  C_4
REMARK    3  A    between atoms: C_4  and  C_5
REMARK    4  A    between atoms: C_8  and  C_9
REMARK    5  A    between atoms: C_9  and  C_10
REMARK    6  A    between atoms: C_10  and  O_11
REMARK    7  A    between atoms: C_10  and  C_12
REMARK                            x       y       z     vdW  Elec       q    Type
REMARK                         _______ _______ _______ _____ _____    ______ ____
ROOT
ATOM      1  C   UNL     1      47.059   5.012  14.839  0.00  0.00    +0.000 C 
ENDROOT
BRANCH   1   2
ATOM      2  C   UNL     1      46.284   4.734  13.581  0.00  0.00    +0.000 A 
ATOM      3  C   UNL     1      45.542   5.754  12.976  0.00  0.00    +0.000 A 
ATOM      4  C   UNL     1      44.796   5.505  11.823  0.00  0.00    +0.000 A 
ATOM      5  C   UNL     1      44.763   4.228  11.251  0.00  0.00    +0.000 A 
ATOM      6  C   UNL     1      45.484   3.200  11.879  0.00  0.00    +0.000 A 
ATOM      7  C   UNL     1      46.230   3.448  13.035  0.00  0.00    +0.000 A 
BRANCH   5   8
ATOM      8  C   UNL     1      44.018   3.906   9.968  0.00  0.00    +0.000 C 
BRANCH   8   9
ATOM      9  C   UNL     1      44.720   4.252   8.635  0.00  0.00    +0.000 C 
BRANCH   9  10
ATOM     10  C   UNL     1      45.607   3.164   8.062  0.00  0.00    +0.000 A 
ATOM     11  C   UNL     1      46.573   3.518   7.104  0.00  0.00    +0.000 A 
ATOM     12  C   UNL     1      47.461   2.568   6.596  0.00  0.00    +0.000 A 
ATOM     13  C   UNL     1      47.405   1.253   7.045  0.00  0.00    +0.000 A 
ATOM     14  C   UNL     1      46.459   0.886   7.999  0.00  0.00    +0.000 A 
ATOM     15  C   UNL     1      45.568   1.834   8.508  0.00  0.00    +0.000 A 
ENDBRANCH   9  10
BRANCH   9  16
ATOM     16  O   UNL     1      45.550   5.407   8.785  0.00  0.00    +0.000 OA
ATOM     17  H   UNL     1      46.097   5.472   7.985  0.00  0.00    +0.000 HD
ENDBRANCH   9  16
ENDBRANCH   8   9
ENDBRANCH   5   8
ENDBRANCH   1   2
BRANCH   1  20
ATOM     18  O   UNL     1      49.506   5.787  15.934  0.00  0.00    +0.000 OA
ATOM     19  C   UNL     1      48.860   6.609  15.294  0.00  0.00    +0.000 C 
ATOM     20  N   UNL     1      47.615   6.338  14.792  0.00  0.00    +0.000 N 
ATOM     21  H   UNL     1      47.219   6.959  14.095  0.00  0.00    +0.000 HD
BRANCH  19  22
ATOM     22  C   UNL     1      49.355   7.970  15.063  0.00  0.00    +0.000 A 
ATOM     23  C   UNL     1      49.803   8.738  16.127  0.00  0.00    +0.000 A 
ATOM     24  S   UNL     1      50.306  10.303  15.671  0.00  0.00    +0.000 S 
ATOM     25  C   UNL     1      49.984   9.991  14.030  0.00  0.00    +0.000 A 
ATOM     26  N   UNL     1      50.220  10.931  13.076  0.00  0.00    +0.000 NA
ATOM     27  C   UNL     1      49.960  10.546  11.871  0.00  0.00    +0.000 A 
ATOM     28  N   UNL     1      49.480   9.307  11.531  0.00  0.00    +0.000 N 
ATOM     29  C   UNL     1      49.202   8.339  12.463  0.00  0.00    +0.000 A 
ATOM     30  O   UNL     1      48.727   7.256  12.128  0.00  0.00    +0.000 OA
ATOM     31  C   UNL     1      49.485   8.716  13.832  0.00  0.00    +0.000 A 
ATOM     32  H   UNL     1      49.286   9.072  10.571  0.00  0.00    +0.000 HD
ENDBRANCH  19  22
ENDBRANCH   1  20
TORSDOF 7
ENDMDL
MODEL 4
REMARK VINA RESULT:    -7.342      2.768      3.379
REMARK INTER + INTRA:         -11.470
REMARK INTER:                 -10.307
REMARK INTRA:                  -1.163
REMARK UNBOUND:                -1.338
REMARK  Name = 
REMARK  7 active torsions:
REMARK  status: ('A' for Active; 'I' for Inactive)
REMARK    1  A    between atoms: C_2  and  C_20
REMARK    2  A    between atoms: N_3  and  C_4
REMARK    3  A    between atoms: C_4  and  C_5
REMARK    4  A    between atoms: C_8  and  C_9
REMARK    5  A    between atoms: C_9  and  C_10
REMARK    6  A    between atoms: C_10  and  O_11
REMARK    7  A    between atoms: C_10  and  C_12
REMARK                            x       y       z     vdW  Elec       q    Type
REMARK                         _______ _______ _______ _____ _____    ______ ____
ROOT
ATOM      1  C   UNL     1      47.688   4.225  15.605  0.00  0.00    +0.000 C 
ENDROOT
BRANCH   1   2
ATOM      2  C   UNL     1      47.036   4.523  14.283  0.00  0.00    +0.000 A 
ATOM      3  C   UNL     1      46.295   3.533  13.629  0.00  0.00    +0.000 A 
ATOM      4  C   UNL     1      45.707   3.786  12.389  0.00  0.00    +0.000 A 
ATOM      5  C   UNL     1      45.853   5.030  11.765  0.00  0.00    +0.000 A 
ATOM      6  C   UNL     1      46.625   6.010  12.409  0.00  0.00    +0.000 A 
ATOM      7  C   UNL     1      47.217   5.757  13.651  0.00  0.00    +0.000 A 
BRANCH   5   8
ATOM      8  C   UNL     1      45.193   5.386  10.445  0.00  0.00    +0.000 C 
BRANCH   8   9
ATOM      9  C   UNL     1      44.551   4.233   9.641  0.00  0.00    +0.000 C 
BRANCH   9  10
ATOM     10  C   UNL     1      45.498   3.448   8.754  0.00  0.00    +0.000 A 
ATOM     11  C   UNL     1      45.549   2.050   8.895  0.00  0.00    +0.000 A 
ATOM     12  C   UNL     1      46.352   1.273   8.058  0.00  0.00    +0.000 A 
ATOM     13  C   UNL     1      47.107   1.880   7.059  0.00  0.00    +0.000 A 
ATOM     14  C   UNL     1      47.062   3.263   6.900  0.00  0.00    +0.000 A 
ATOM     15  C   UNL     1      46.261   4.043   7.738  0.00  0.00    +0.000 A 
ENDBRANCH   9  10
BRANCH   9  16
ATOM     16  O   UNL     1      43.519   4.728   8.783  0.00  0.00    +0.000 OA
ATOM     17  H   UNL     1      43.745   5.646   8.562  0.00  0.00    +0.000 HD
ENDBRANCH   9  16
ENDBRANCH   8   9
ENDBRANCH   5   8
ENDBRANCH   1   2
BRANCH   1  20
ATOM     18  O   UNL     1      49.835   5.846  16.347  0.00  0.00    +0.000 OA
ATOM     19  C   UNL     1      48.707   6.157  16.714  0.00  0.00    +0.000 C 
ATOM     20  N   UNL     1      47.610   5.377  16.463  0.00  0.00    +0.000 N 
ATOM     21  H   UNL     1      46.686   5.773  16.588  0.00  0.00    +0.000 HD
BRANCH  19  22
ATOM     22  C   UNL     1      48.458   7.371  17.497  0.00  0.00    +0.000 A 
ATOM     23  C   UNL     1      48.582   8.619  16.905  0.00  0.00    +0.000 A 
ATOM     24  S   UNL     1      48.290   9.912  17.980  0.00  0.00    +0.000 S 
ATOM     25  C   UNL     1      47.944   8.846  19.259  0.00  0.00    +0.000 A 
ATOM     26  N   UNL     1      47.590   9.313  20.487  0.00  0.00    +0.000 NA
ATOM     27  C   UNL     1      47.325   8.392  21.353  0.00  0.00    +0.000 A 
ATOM     28  N   UNL     1      47.384   7.044  21.105  0.00  0.00    +0.000 N 
ATOM     29  C   UNL     1      47.763   6.530  19.891  0.00  0.00    +0.000 A 
ATOM     30  O   UNL     1      47.853   5.317  19.718  0.00  0.00    +0.000 OA
ATOM     31  C   UNL     1      48.063   7.521  18.879  0.00  0.00    +0.000 A 
ATOM     32  H   UNL     1      47.176   6.375  21.829  0.00  0.00    +0.000 HD
ENDBRANCH  19  22
ENDBRANCH   1  20
TORSDOF 7
ENDMDL
MODEL 5
REMARK VINA RESULT:    -7.203      3.730      8.000
REMARK INTER + INTRA:         -11.278
REMARK INTER:                  -9.664
REMARK INTRA:                  -1.615
REMARK UNBOUND:                -1.338
REMARK  Name = 
REMARK  7 active torsions:
REMARK  status: ('A' for Active; 'I' for Inactive)
REMARK    1  A    between atoms: C_2  and  C_20
REMARK    2  A    between atoms: N_3  and  C_4
REMARK    3  A    between atoms: C_4  and  C_5
REMARK    4  A    between atoms: C_8  and  C_9
REMARK    5  A    between atoms: C_9  and  C_10
REMARK    6  A    between atoms: C_10  and  O_11
REMARK    7  A    between atoms: C_10  and  C_12
REMARK                            x       y       z     vdW  Elec       q    Type
REMARK                         _______ _______ _______ _____ _____    ______ ____
ROOT
ATOM      1  C   UNL     1      48.216   8.098  12.065  0.00  0.00    +0.000 C 
ENDROOT
BRANCH   1   2
ATOM      2  C   UNL     1      48.479   7.973  13.540  0.00  0.00    +0.000 A 
ATOM      3  C   UNL     1      47.884   8.867  14.435  0.00  0.00    +0.000 A 
ATOM      4  C   UNL     1      48.141   8.781  15.805  0.00  0.00    +0.000 A 
ATOM      5  C   UNL     1      49.006   7.806  16.314  0.00  0.00    +0.000 A 
ATOM      6  C   UNL     1      49.626   6.931  15.408  0.00  0.00    +0.000 A 
ATOM      7  C   UNL     1      49.373   7.017  14.036  0.00  0.00    +0.000 A 
BRANCH   5   8
ATOM      8  C   UNL     1      49.282   7.624  17.795  0.00  0.00    +0.000 C 
BRANCH   8   9
ATOM      9  C   UNL     1      48.438   6.571  18.549  0.00  0.00    +0.000 C 
BRANCH   9  10
ATOM     10  C   UNL     1      48.522   5.157  18.008  0.00  0.00    +0.000 A 
ATOM     11  C   UNL     1      47.395   4.612  17.368  0.00  0.00    +0.000 A 
ATOM     12  C   UNL     1      47.442   3.342  16.791  0.00  0.00    +0.000 A 
ATOM     13  C   UNL     1      48.618   2.600  16.836  0.00  0.00    +0.000 A 
ATOM     14  C   UNL     1      49.746   3.126  17.461  0.00  0.00    +0.000 A 
ATOM     15  C   UNL     1      49.701   4.397  18.040  0.00  0.00    +0.000 A 
ENDBRANCH   9  10
BRANCH   9  16
ATOM     16  O   UNL     1      47.052   6.924  18.528  0.00  0.00    +0.000 OA
ATOM     17  H   UNL     1      46.572   6.231  19.011  0.00  0.00    +0.000 HD
ENDBRANCH   9  16
ENDBRANCH   8   9
ENDBRANCH   5   8
ENDBRANCH   1   2
BRANCH   1  20
ATOM     18  O   UNL     1      45.451   7.859  11.772  0.00  0.00    +0.000 OA
ATOM     19  C   UNL     1      46.165   6.931  11.407  0.00  0.00    +0.000 C 
ATOM     20  N   UNL     1      47.522   6.931  11.588  0.00  0.00    +0.000 N 
ATOM     21  H   UNL     1      48.086   6.257  11.082  0.00  0.00    +0.000 HD
BRANCH  19  22
ATOM     22  C   UNL     1      45.605   5.723  10.793  0.00  0.00    +0.000 A 
ATOM     23  C   UNL     1      45.831   5.456   9.451  0.00  0.00    +0.000 A 
ATOM     24  S   UNL     1      45.072   4.028   8.907  0.00  0.00    +0.000 S 
ATOM     25  C   UNL     1      44.454   3.696  10.456  0.00  0.00    +0.000 A 
ATOM     26  N   UNL     1      43.711   2.582  10.693  0.00  0.00    +0.000 NA
ATOM     27  C   UNL     1      43.335   2.441  11.921  0.00  0.00    +0.000 A 
ATOM     28  N   UNL     1      43.631   3.316  12.935  0.00  0.00    +0.000 N 
ATOM     29  C   UNL     1      44.352   4.466  12.735  0.00  0.00    +0.000 A 
ATOM     30  O   UNL     1      44.558   5.252  13.657  0.00  0.00    +0.000 OA
ATOM     31  C   UNL     1      44.808   4.668  11.376  0.00  0.00    +0.000 A 
ATOM     32  H   UNL     1      43.296   3.155  13.872  0.00  0.00    +0.000 HD
ENDBRANCH  19  22
ENDBRANCH   1  20
TORSDOF 7
ENDMDL
MODEL 6
REMARK VINA RESULT:    -6.947      4.161     10.332
REMARK INTER + INTRA:         -10.924
REMARK INTER:                  -9.833
REMARK INTRA:                  -1.091
REMARK UNBOUND:                -1.338
REMARK  Name = 
REMARK  7 active torsions:
REMARK  status: ('A' for Active; 'I' for Inactive)
REMARK    1  A    between atoms: C_2  and  C_20
REMARK    2  A    between atoms: N_3  and  C_4
REMARK    3  A    between atoms: C_4  and  C_5
REMARK    4  A    between atoms: C_8  and  C_9
REMARK    5  A    between atoms: C_9  and  C_10
REMARK    6  A    between atoms: C_10  and  O_11
REMARK    7  A    between atoms: C_10  and  C_12
REMARK                            x       y       z     vdW  Elec       q    Type
REMARK                         _______ _______ _______ _____ _____    ______ ____
ROOT
ATOM      1  C   UNL     1      47.502   3.670  16.495  0.00  0.00    +0.000 C 
ENDROOT
BRANCH   1   2
ATOM      2  C   UNL     1      47.786   4.368  17.796  0.00  0.00    +0.000 A 
ATOM      3  C   UNL     1      48.868   3.963  18.586  0.00  0.00    +0.000 A 
ATOM      4  C   UNL     1      49.128   4.582  19.809  0.00  0.00    +0.000 A 
ATOM      5  C   UNL     1      48.309   5.615  20.280  0.00  0.00    +0.000 A 
ATOM      6  C   UNL     1      47.206   5.996  19.500  0.00  0.00    +0.000 A 
ATOM      7  C   UNL     1      46.942   5.375  18.275  0.00  0.00    +0.000 A 
BRANCH   5   8
ATOM      8  C   UNL     1      48.570   6.365  21.573  0.00  0.00    +0.000 C 
BRANCH   8   9
ATOM      9  C   UNL     1      49.026   7.838  21.457  0.00  0.00    +0.000 C 
BRANCH   9  10
ATOM     10  C   UNL     1      47.913   8.856  21.302  0.00  0.00    +0.000 A 
ATOM     11  C   UNL     1      47.818   9.570  20.095  0.00  0.00    +0.000 A 
ATOM     12  C   UNL     1      46.772  10.468  19.873  0.00  0.00    +0.000 A 
ATOM     13  C   UNL     1      45.800  10.659  20.850  0.00  0.00    +0.000 A 
ATOM     14  C   UNL     1      45.875   9.955  22.049  0.00  0.00    +0.000 A 
ATOM     15  C   UNL     1      46.922   9.057  22.274  0.00  0.00    +0.000 A 
ENDBRANCH   9  10
BRANCH   9  16
ATOM     16  O   UNL     1      49.888   8.014  20.330  0.00  0.00    +0.000 OA
ATOM     17  H   UNL     1      49.533   7.469  19.609  0.00  0.00    +0.000 HD
ENDBRANCH   9  16
ENDBRANCH   8   9
ENDBRANCH   5   8
ENDBRANCH   1   2
BRANCH   1  20
ATOM     18  O   UNL     1      47.146   3.171  13.772  0.00  0.00    +0.000 OA
ATOM     19  C   UNL     1      46.797   4.257  14.223  0.00  0.00    +0.000 C 
ATOM     20  N   UNL     1      47.009   4.614  15.528  0.00  0.00    +0.000 N 
ATOM     21  H   UNL     1      46.516   5.416  15.905  0.00  0.00    +0.000 HD
BRANCH  19  22
ATOM     22  C   UNL     1      46.170   5.278  13.378  0.00  0.00    +0.000 A 
ATOM     23  C   UNL     1      46.835   6.465  13.110  0.00  0.00    +0.000 A 
ATOM     24  S   UNL     1      45.935   7.543  12.143  0.00  0.00    +0.000 S 
ATOM     25  C   UNL     1      44.645   6.442  12.012  0.00  0.00    +0.000 A 
ATOM     26  N   UNL     1      43.535   6.742  11.285  0.00  0.00    +0.000 NA
ATOM     27  C   UNL     1      42.651   5.801  11.248  0.00  0.00    +0.000 A 
ATOM     28  N   UNL     1      42.772   4.588  11.876  0.00  0.00    +0.000 N 
ATOM     29  C   UNL     1      43.860   4.255  12.642  0.00  0.00    +0.000 A 
ATOM     30  O   UNL     1      43.914   3.177  13.230  0.00  0.00    +0.000 OA
ATOM     31  C   UNL     1      44.888   5.272  12.709  0.00  0.00    +0.000 A 
ATOM     32  H   UNL     1      42.039   3.899  11.817  0.00  0.00    +0.000 HD
ENDBRANCH  19  22
ENDBRANCH   1  20
TORSDOF 7
ENDMDL
MODEL 7
REMARK VINA RESULT:    -6.819      2.581      3.361
REMARK INTER + INTRA:         -10.748
REMARK INTER:                  -9.971
REMARK INTRA:                  -0.777
REMARK UNBOUND:                -1.338
REMARK  Name = 
REMARK  7 active torsions:
REMARK  status: ('A' for Active; 'I' for Inactive)
REMARK    1  A    between atoms: C_2  and  C_20
REMARK    2  A    between atoms: N_3  and  C_4
REMARK    3  A    between atoms: C_4  and  C_5
REMARK    4  A    between atoms: C_8  and  C_9
REMARK    5  A    between atoms: C_9  and  C_10
REMARK    6  A    between atoms: C_10  and  O_11
REMARK    7  A    between atoms: C_10  and  C_12
REMARK                            x       y       z     vdW  Elec       q    Type
REMARK                         _______ _______ _______ _____ _____    ______ ____
ROOT
ATOM      1  C   UNL     1      45.516   8.096  12.905  0.00  0.00    +0.000 C 
ENDROOT
BRANCH   1   2
ATOM      2  C   UNL     1      45.194   6.992  11.936  0.00  0.00    +0.000 A 
ATOM      3  C   UNL     1      43.938   6.378  11.966  0.00  0.00    +0.000 A 
ATOM      4  C   UNL     1      43.635   5.333  11.091  0.00  0.00    +0.000 A 
ATOM      5  C   UNL     1      44.582   4.868  10.172  0.00  0.00    +0.000 A 
ATOM      6  C   UNL     1      45.852   5.465  10.168  0.00  0.00    +0.000 A 
ATOM      7  C   UNL     1      46.159   6.510  11.045  0.00  0.00    +0.000 A 
BRANCH   5   8
ATOM      8  C   UNL     1      44.296   3.775   9.158  0.00  0.00    +0.000 C 
BRANCH   8   9
ATOM      9  C   UNL     1      45.233   2.546   9.158  0.00  0.00    +0.000 C 
BRANCH   9  10
ATOM     10  C   UNL     1      46.087   2.374   7.916  0.00  0.00    +0.000 A 
ATOM     11  C   UNL     1      46.715   1.136   7.697  0.00  0.00    +0.000 A 
ATOM     12  C   UNL     1      47.455   0.902   6.536  0.00  0.00    +0.000 A 
ATOM     13  C   UNL     1      47.569   1.899   5.572  0.00  0.00    +0.000 A 
ATOM     14  C   UNL     1      46.947   3.129   5.769  0.00  0.00    +0.000 A 
ATOM     15  C   UNL     1      46.207   3.366   6.931  0.00  0.00    +0.000 A 
ENDBRANCH   9  10
BRANCH   9  16
ATOM     16  O   UNL     1      44.482   1.337   9.297  0.00  0.00    +0.000 OA
ATOM     17  H   UNL     1      45.075   0.675   9.691  0.00  0.00    +0.000 HD
ENDBRANCH   9  16
ENDBRANCH   8   9
ENDBRANCH   5   8
ENDBRANCH   1   2
BRANCH   1  20
ATOM     18  O   UNL     1      47.904   9.525  12.691  0.00  0.00    +0.000 OA
ATOM     19  C   UNL     1      47.840   8.599  13.494  0.00  0.00    +0.000 C 
ATOM     20  N   UNL     1      46.736   7.797  13.605  0.00  0.00    +0.000 N 
ATOM     21  H   UNL     1      46.644   7.197  14.418  0.00  0.00    +0.000 HD
BRANCH  19  22
ATOM     22  C   UNL     1      48.969   8.252  14.362  0.00  0.00    +0.000 A 
ATOM     23  C   UNL     1      48.747   7.889  15.681  0.00  0.00    +0.000 A 
ATOM     24  S   UNL     1      50.180   7.556  16.545  0.00  0.00    +0.000 S 
ATOM     25  C   UNL     1      51.142   7.843  15.172  0.00  0.00    +0.000 A 
ATOM     26  N   UNL     1      52.495   7.709  15.221  0.00  0.00    +0.000 NA
ATOM     27  C   UNL     1      53.094   7.927  14.098  0.00  0.00    +0.000 A 
ATOM     28  N   UNL     1      52.465   8.271  12.929  0.00  0.00    +0.000 N 
ATOM     29  C   UNL     1      51.107   8.444  12.841  0.00  0.00    +0.000 A 
ATOM     30  O   UNL     1      50.581   8.800  11.789  0.00  0.00    +0.000 OA
ATOM     31  C   UNL     1      50.384   8.202  14.072  0.00  0.00    +0.000 A 
ATOM     32  H   UNL     1      52.993   8.439  12.087  0.00  0.00    +0.000 HD
ENDBRANCH  19  22
ENDBRANCH   1  20
TORSDOF 7
ENDMDL
MODEL 8
REMARK VINA RESULT:    -6.674      4.072      8.097
REMARK INTER + INTRA:         -10.548
REMARK INTER:                  -8.590
REMARK INTRA:                  -1.958
REMARK UNBOUND:                -1.338
REMARK  Name = 
REMARK  7 active torsions:
REMARK  status: ('A' for Active; 'I' for Inactive)
REMARK    1  A    between atoms: C_2  and  C_20
REMARK    2  A    between atoms: N_3  and  C_4
REMARK    3  A    between atoms: C_4  and  C_5
REMARK    4  A    between atoms: C_8  and  C_9
REMARK    5  A    between atoms: C_9  and  C_10
REMARK    6  A    between atoms: C_10  and  O_11
REMARK    7  A    between atoms: C_10  and  C_12
REMARK                            x       y       z     vdW  Elec       q    Type
REMARK                         _______ _______ _______ _____ _____    ______ ____
ROOT
ATOM      1  C   UNL     1      48.379   9.389  15.102  0.00  0.00    +0.000 C 
ENDROOT
BRANCH   1   2
ATOM      2  C   UNL     1      48.785   8.564  16.292  0.00  0.00    +0.000 A 
ATOM      3  C   UNL     1      49.797   7.607  16.168  0.00  0.00    +0.000 A 
ATOM      4  C   UNL     1      50.166   6.814  17.257  0.00  0.00    +0.000 A 
ATOM      5  C   UNL     1      49.525   6.950  18.494  0.00  0.00    +0.000 A 
ATOM      6  C   UNL     1      48.488   7.889  18.605  0.00  0.00    +0.000 A 
ATOM      7  C   UNL     1      48.116   8.682  17.515  0.00  0.00    +0.000 A 
BRANCH   5   8
ATOM      8  C   UNL     1      49.916   6.159  19.729  0.00  0.00    +0.000 C 
BRANCH   8   9
ATOM      9  C   UNL     1      49.152   4.843  19.999  0.00  0.00    +0.000 C 
BRANCH   9  10
ATOM     10  C   UNL     1      48.936   3.953  18.790  0.00  0.00    +0.000 A 
ATOM     11  C   UNL     1      47.668   3.935  18.185  0.00  0.00    +0.000 A 
ATOM     12  C   UNL     1      47.434   3.187  17.029  0.00  0.00    +0.000 A 
ATOM     13  C   UNL     1      48.468   2.453  16.455  0.00  0.00    +0.000 A 
ATOM     14  C   UNL     1      49.733   2.465  17.038  0.00  0.00    +0.000 A 
ATOM     15  C   UNL     1      49.968   3.212  18.195  0.00  0.00    +0.000 A 
ENDBRANCH   9  10
BRANCH   9  16
ATOM     16  O   UNL     1      47.853   5.112  20.533  0.00  0.00    +0.000 OA
ATOM     17  H   UNL     1      47.519   4.280  20.908  0.00  0.00    +0.000 HD
ENDBRANCH   9  16
ENDBRANCH   8   9
ENDBRANCH   5   8
ENDBRANCH   1   2
BRANCH   1  20
ATOM     18  O   UNL     1      48.668   7.933  12.739  0.00  0.00    +0.000 OA
ATOM     19  C   UNL     1      47.565   7.978  13.273  0.00  0.00    +0.000 C 
ATOM     20  N   UNL     1      47.317   8.733  14.388  0.00  0.00    +0.000 N 
ATOM     21  H   UNL     1      46.466   8.569  14.914  0.00  0.00    +0.000 HD
BRANCH  19  22
ATOM     22  C   UNL     1      46.411   7.261  12.721  0.00  0.00    +0.000 A 
ATOM     23  C   UNL     1      45.446   7.946  11.998  0.00  0.00    +0.000 A 
ATOM     24  S   UNL     1      44.163   6.954  11.469  0.00  0.00    +0.000 S 
ATOM     25  C   UNL     1      44.876   5.568  12.151  0.00  0.00    +0.000 A 
ATOM     26  N   UNL     1      44.287   4.347  12.039  0.00  0.00    +0.000 NA
ATOM     27  C   UNL     1      44.956   3.381  12.576  0.00  0.00    +0.000 A 
ATOM     28  N   UNL     1      46.158   3.524  13.220  0.00  0.00    +0.000 N 
ATOM     29  C   UNL     1      46.773   4.740  13.380  0.00  0.00    +0.000 A 
ATOM     30  O   UNL     1      47.827   4.839  14.005  0.00  0.00    +0.000 OA
ATOM     31  C   UNL     1      46.070   5.858  12.787  0.00  0.00    +0.000 A 
ATOM     32  H   UNL     1      46.624   2.730  13.630  0.00  0.00    +0.000 HD
ENDBRANCH  19  22
ENDBRANCH   1  20
TORSDOF 7
ENDMDL
MODEL 9
REMARK VINA RESULT:    -6.653      3.317      8.571
REMARK INTER + INTRA:         -10.519
REMARK INTER:                  -9.048
REMARK INTRA:                  -1.471
REMARK UNBOUND:                -1.338
REMARK  Name = 
REMARK  7 active torsions:
REMARK  status: ('A' for Active; 'I' for Inactive)
REMARK    1  A    between atoms: C_2  and  C_20
REMARK    2  A    between atoms: N_3  and  C_4
REMARK    3  A    between atoms: C_4  and  C_5
REMARK    4  A    between atoms: C_8  and  C_9
REMARK    5  A    between atoms: C_9  and  C_10
REMARK    6  A    between atoms: C_10  and  O_11
REMARK    7  A    between atoms: C_10  and  C_12
REMARK                            x       y       z     vdW  Elec       q    Type
REMARK                         _______ _______ _______ _____ _____    ______ ____
ROOT
ATOM      1  C   UNL     1      47.522   7.764  12.303  0.00  0.00    +0.000 C 
ENDROOT
BRANCH   1   2
ATOM      2  C   UNL     1      48.151   7.816  13.668  0.00  0.00    +0.000 A 
ATOM      3  C   UNL     1      47.727   8.769  14.599  0.00  0.00    +0.000 A 
ATOM      4  C   UNL     1      48.321   8.848  15.860  0.00  0.00    +0.000 A 
ATOM      5  C   UNL     1      49.361   7.983  16.219  0.00  0.00    +0.000 A 
ATOM      6  C   UNL     1      49.805   7.048  15.270  0.00  0.00    +0.000 A 
ATOM      7  C   UNL     1      49.213   6.970  14.005  0.00  0.00    +0.000 A 
BRANCH   5   8
ATOM      8  C   UNL     1      50.010   7.979  17.591  0.00  0.00    +0.000 C 
BRANCH   8   9
ATOM      9  C   UNL     1      49.364   7.088  18.677  0.00  0.00    +0.000 C 
BRANCH   9  10
ATOM     10  C   UNL     1      48.996   5.684  18.237  0.00  0.00    +0.000 A 
ATOM     11  C   UNL     1      47.648   5.396  17.962  0.00  0.00    +0.000 A 
ATOM     12  C   UNL     1      47.265   4.140  17.488  0.00  0.00    +0.000 A 
ATOM     13  C   UNL     1      48.224   3.157  17.271  0.00  0.00    +0.000 A 
ATOM     14  C   UNL     1      49.565   3.427  17.531  0.00  0.00    +0.000 A 
ATOM     15  C   UNL     1      49.951   4.682  18.008  0.00  0.00    +0.000 A 
ENDBRANCH   9  10
BRANCH   9  16
ATOM     16  O   UNL     1      48.159   7.681  19.168  0.00  0.00    +0.000 OA
ATOM     17  H   UNL     1      47.441   7.404  18.576  0.00  0.00    +0.000 HD
ENDBRANCH   9  16
ENDBRANCH   8   9
ENDBRANCH   5   8
ENDBRANCH   1   2
BRANCH   1  20
ATOM     18  O   UNL     1      44.806   7.546  11.697  0.00  0.00    +0.000 OA
ATOM     19  C   UNL     1      45.478   6.522  11.772  0.00  0.00    +0.000 C 
ATOM     20  N   UNL     1      46.796   6.533  12.142  0.00  0.00    +0.000 N 
ATOM     21  H   UNL     1      47.360   5.706  11.979  0.00  0.00    +0.000 HD
BRANCH  19  22
ATOM     22  C   UNL     1      44.900   5.199  11.517  0.00  0.00    +0.000 A 
ATOM     23  C   UNL     1      44.162   4.560  12.502  0.00  0.00    +0.000 A 
ATOM     24  S   UNL     1      43.602   3.017  12.038  0.00  0.00    +0.000 S 
ATOM     25  C   UNL     1      44.288   3.171  10.489  0.00  0.00    +0.000 A 
ATOM     26  N   UNL     1      44.157   2.185   9.561  0.00  0.00    +0.000 NA
ATOM     27  C   UNL     1      44.700   2.450   8.419  0.00  0.00    +0.000 A 
ATOM     28  N   UNL     1      45.368   3.610   8.121  0.00  0.00    +0.000 N 
ATOM     29  C   UNL     1      45.548   4.617   9.035  0.00  0.00    +0.000 A 
ATOM     30  O   UNL     1      46.194   5.623   8.749  0.00  0.00    +0.000 OA
ATOM     31  C   UNL     1      44.949   4.376  10.330  0.00  0.00    +0.000 A 
ATOM     32  H   UNL     1      45.781   3.751   7.213  0.00  0.00    +0.000 HD
ENDBRANCH  19  22
ENDBRANCH   1  20
TORSDOF 7
ENDMDL
