MODEL 1
REMARK VINA RESULT:    -8.239      0.000      0.000
REMARK INTER + INTRA:          -9.324
REMARK INTER:                  -9.683
REMARK INTRA:                   0.359
REMARK UNBOUND:                 0.359
REMARK  Name = 
REMARK  3 active torsions:
REMARK  status: ('A' for Active; 'I' for Inactive)
REMARK    1  A    between atoms: C_4  and  C_5
REMARK    2  A    between atoms: C_9  and  C_10
REMARK    3  A    between atoms: C_10  and  N_11
REMARK                            x       y       z     vdW  Elec       q    Type
REMARK                         _______ _______ _______ _____ _____    ______ ____
ROOT
ATOM      1  C   UNL     1      46.930   5.088  13.802  0.00  0.00    +0.000 A 
ATOM      2  C   UNL     1      47.661   6.153  13.251  0.00  0.00    +0.000 A 
ATOM      3  C   UNL     1      47.247   6.772  12.072  0.00  0.00    +0.000 A 
ATOM      4  C   UNL     1      46.086   6.344  11.430  0.00  0.00    +0.000 A 
ATOM      5  C   UNL     1      45.315   5.287  11.937  0.00  0.00    +0.000 A 
ATOM      6  C   UNL     1      45.768   4.677  13.119  0.00  0.00    +0.000 A 
ENDROOT
BRANCH   1  10
ATOM      7  C   UNL     1      48.143   2.998  17.278  0.00  0.00    +0.000 A 
ATOM      8  C   UNL     1      47.751   4.322  17.418  0.00  0.00    +0.000 A 
ATOM      9  C   UNL     1      47.337   5.037  16.295  0.00  0.00    +0.000 A 
ATOM     10  C   UNL     1      47.325   4.407  15.052  0.00  0.00    +0.000 A 
ATOM     11  N   UNL     1      47.708   3.112  14.911  0.00  0.00    +0.000 NA
ATOM     12  C   UNL     1      48.099   2.441  16.015  0.00  0.00    +0.000 A 
ENDBRANCH   1  10
BRANCH   5  13
ATOM     13  C   UNL     1      44.049   4.805  11.240  0.00  0.00    +0.000 C 
ATOM     14  C   UNL     1      42.730   4.979  11.972  0.00  0.00    +0.000 C 
ATOM     15  C   UNL     1      43.311   3.610  11.839  0.00  0.00    +0.000 C 
BRANCH  13  16
ATOM     16  N   UNL     1      44.121   4.844   9.775  0.00  0.00    +0.000 N 
ATOM     17  C   UNL     1      44.862   3.911   9.054  0.00  0.00    +0.000 A 
ATOM     18  N   UNL     1      45.095   2.684   9.545  0.00  0.00    +0.000 NA
ATOM     19  C   UNL     1      45.806   1.839   8.781  0.00  0.00    +0.000 A 
ATOM     20  C   UNL     1      46.319   2.177   7.555  0.00  0.00    +0.000 A 
ATOM     21  C   UNL     1      46.043   3.455   7.142  0.00  0.00    +0.000 A 
ATOM     22  N   UNL     1      45.319   4.332   7.862  0.00  0.00    +0.000 NA
ATOM     23  H   UNL     1      44.197   5.733   9.298  0.00  0.00    +0.000 HD
ENDBRANCH  13  16
ENDBRANCH   5  13
TORSDOF 3
ENDMDL
MODEL 2
REMARK VINA RESULT:    -8.069      2.082      3.959
REMARK INTER + INTRA:          -9.125
REMARK INTER:                  -9.382
REMARK INTRA:                   0.258
REMARK UNBOUND:                 0.359
REMARK  Name = 
REMARK  3 active torsions:
REMARK  status: ('A' for Active; 'I' for Inactive)
REMARK    1  A    between atoms: C_4  and  C_5
REMARK    2  A    between atoms: C_9  and  C_10
REMARK    3  A    between atoms: C_10  and  N_11
REMARK                            x       y       z     vdW  Elec       q    Type
REMARK                         _______ _______ _______ _____ _____    ______ ____
ROOT
ATOM      1  C   UNL     1      47.301   6.565  12.337  0.00  0.00    +0.000 A 
ATOM      2  C   UNL     1      47.587   5.706  13.411  0.00  0.00    +0.000 A 
ATOM      3  C   UNL     1      46.787   4.595  13.673  0.00  0.00    +0.000 A 
ATOM      4  C   UNL     1      45.691   4.317  12.859  0.00  0.00    +0.000 A 
ATOM      5  C   UNL     1      45.359   5.139  11.771  0.00  0.00    +0.000 A 
ATOM      6  C   UNL     1      46.178   6.257  11.543  0.00  0.00    +0.000 A 
ENDROOT
BRANCH   1  10
ATOM      7  C   UNL     1      49.524  10.068  11.493  0.00  0.00    +0.000 A 
ATOM      8  C   UNL     1      50.184   8.848  11.437  0.00  0.00    +0.000 A 
ATOM      9  C   UNL     1      49.480   7.674  11.701  0.00  0.00    +0.000 A 
ATOM     10  C   UNL     1      48.124   7.749  12.016  0.00  0.00    +0.000 A 
ATOM     11  N   UNL     1      47.475   8.940  12.072  0.00  0.00    +0.000 NA
ATOM     12  C   UNL     1      48.179  10.060  11.806  0.00  0.00    +0.000 A 
ENDBRANCH   1  10
BRANCH   5  13
ATOM     13  C   UNL     1      44.159   4.849  10.878  0.00  0.00    +0.000 C 
ATOM     14  C   UNL     1      42.779   5.166  11.426  0.00  0.00    +0.000 C 
ATOM     15  C   UNL     1      43.201   3.740  11.303  0.00  0.00    +0.000 C 
BRANCH  13  16
ATOM     16  N   UNL     1      44.448   4.929   9.441  0.00  0.00    +0.000 N 
ATOM     17  C   UNL     1      45.182   3.944   8.787  0.00  0.00    +0.000 A 
ATOM     18  N   UNL     1      45.208   2.682   9.245  0.00  0.00    +0.000 NA
ATOM     19  C   UNL     1      45.928   1.788   8.547  0.00  0.00    +0.000 A 
ATOM     20  C   UNL     1      46.648   2.107   7.425  0.00  0.00    +0.000 A 
ATOM     21  C   UNL     1      46.575   3.422   7.041  0.00  0.00    +0.000 A 
ATOM     22  N   UNL     1      45.851   4.350   7.694  0.00  0.00    +0.000 NA
ATOM     23  H   UNL     1      44.687   5.820   9.025  0.00  0.00    +0.000 HD
ENDBRANCH  13  16
ENDBRANCH   5  13
TORSDOF 3
ENDMDL
MODEL 3
REMARK VINA RESULT:    -7.823      3.173      6.882
REMARK INTER + INTRA:          -8.835
REMARK INTER:                  -8.294
REMARK INTRA:                  -0.541
REMARK UNBOUND:                 0.359
REMARK  Name = 
REMARK  3 active torsions:
REMARK  status: ('A' for Active; 'I' for Inactive)
REMARK    1  A    between atoms: C_4  and  C_5
REMARK    2  A    between atoms: C_9  and  C_10
REMARK    3  A    between atoms: C_10  and  N_11
REMARK                            x       y       z     vdW  Elec       q    Type
REMARK                         _______ _______ _______ _____ _____    ______ ____
ROOT
ATOM      1  C   UNL     1      44.741   4.596  10.164  0.00  0.00    +0.000 A 
ATOM      2  C   UNL     1      43.447   4.326  10.637  0.00  0.00    +0.000 A 
ATOM      3  C   UNL     1      42.861   5.123  11.619  0.00  0.00    +0.000 A 
ATOM      4  C   UNL     1      43.558   6.214  12.139  0.00  0.00    +0.000 A 
ATOM      5  C   UNL     1      44.853   6.532  11.701  0.00  0.00    +0.000 A 
ATOM      6  C   UNL     1      45.417   5.700  10.720  0.00  0.00    +0.000 A 
ENDROOT
BRANCH   1  10
ATOM      7  C   UNL     1      46.715   2.427   7.111  0.00  0.00    +0.000 A 
ATOM      8  C   UNL     1      46.100   1.708   8.126  0.00  0.00    +0.000 A 
ATOM      9  C   UNL     1      45.433   2.391   9.143  0.00  0.00    +0.000 A 
ATOM     10  C   UNL     1      45.398   3.784   9.119  0.00  0.00    +0.000 A 
ATOM     11  N   UNL     1      45.999   4.490   8.127  0.00  0.00    +0.000 NA
ATOM     12  C   UNL     1      46.632   3.804   7.152  0.00  0.00    +0.000 A 
ENDBRANCH   1  10
BRANCH   5  13
ATOM     13  C   UNL     1      45.626   7.717  12.267  0.00  0.00    +0.000 C 
ATOM     14  C   UNL     1      47.065   7.900  11.817  0.00  0.00    +0.000 C 
ATOM     15  C   UNL     1      46.794   7.427  13.207  0.00  0.00    +0.000 C 
BRANCH  13  16
ATOM     16  N   UNL     1      44.785   8.864  12.626  0.00  0.00    +0.000 N 
ATOM     17  C   UNL     1      44.366   9.790  11.674  0.00  0.00    +0.000 A 
ATOM     18  N   UNL     1      44.237   9.445  10.383  0.00  0.00    +0.000 NA
ATOM     19  C   UNL     1      43.812  10.392   9.531  0.00  0.00    +0.000 A 
ATOM     20  C   UNL     1      43.538  11.681   9.909  0.00  0.00    +0.000 A 
ATOM     21  C   UNL     1      43.713  11.946  11.243  0.00  0.00    +0.000 A 
ATOM     22  N   UNL     1      44.116  11.026  12.139  0.00  0.00    +0.000 NA
ATOM     23  H   UNL     1      44.959   9.365  13.487  0.00  0.00    +0.000 HD
ENDBRANCH  13  16
ENDBRANCH   5  13
TORSDOF 3
ENDMDL
MODEL 4
REMARK VINA RESULT:    -7.369      2.329      6.694
REMARK INTER + INTRA:          -8.302
REMARK INTER:                  -7.753
REMARK INTRA:                  -0.549
REMARK UNBOUND:                 0.359
REMARK  Name = 
REMARK  3 active torsions:
REMARK  status: ('A' for Active; 'I' for Inactive)
REMARK    1  A    between atoms: C_4  and  C_5
REMARK    2  A    between atoms: C_9  and  C_10
REMARK    3  A    between atoms: C_10  and  N_11
REMARK                            x       y       z     vdW  Elec       q    Type
REMARK                         _______ _______ _______ _____ _____    ______ ____
ROOT
ATOM      1  C   UNL     1      44.870   4.569  10.065  0.00  0.00    +0.000 A 
ATOM      2  C   UNL     1      43.641   4.264  10.672  0.00  0.00    +0.000 A 
ATOM      3  C   UNL     1      43.101   5.095  11.654  0.00  0.00    +0.000 A 
ATOM      4  C   UNL     1      43.777   6.251  12.038  0.00  0.00    +0.000 A 
ATOM      5  C   UNL     1      45.007   6.606  11.463  0.00  0.00    +0.000 A 
ATOM      6  C   UNL     1      45.528   5.741  10.487  0.00  0.00    +0.000 A 
ENDROOT
BRANCH   1  10
ATOM      7  C   UNL     1      46.699   2.303   6.992  0.00  0.00    +0.000 A 
ATOM      8  C   UNL     1      46.110   1.617   8.045  0.00  0.00    +0.000 A 
ATOM      9  C   UNL     1      45.491   2.332   9.069  0.00  0.00    +0.000 A 
ATOM     10  C   UNL     1      45.476   3.724   9.016  0.00  0.00    +0.000 A 
ATOM     11  N   UNL     1      46.051   4.400   7.987  0.00  0.00    +0.000 NA
ATOM     12  C   UNL     1      46.638   3.683   7.006  0.00  0.00    +0.000 A 
ENDBRANCH   1  10
BRANCH   5  13
ATOM     13  C   UNL     1      45.759   7.864  11.881  0.00  0.00    +0.000 C 
ATOM     14  C   UNL     1      45.105   8.768  12.910  0.00  0.00    +0.000 C 
ATOM     15  C   UNL     1      45.167   9.216  11.488  0.00  0.00    +0.000 C 
BRANCH  13  16
ATOM     16  N   UNL     1      47.218   7.751  11.780  0.00  0.00    +0.000 N 
ATOM     17  C   UNL     1      48.008   7.461  12.890  0.00  0.00    +0.000 A 
ATOM     18  N   UNL     1      47.512   6.775  13.931  0.00  0.00    +0.000 NA
ATOM     19  C   UNL     1      48.343   6.523  14.956  0.00  0.00    +0.000 A 
ATOM     20  C   UNL     1      49.644   6.954  14.998  0.00  0.00    +0.000 A 
ATOM     21  C   UNL     1      50.058   7.661  13.898  0.00  0.00    +0.000 A 
ATOM     22  N   UNL     1      49.270   7.920  12.839  0.00  0.00    +0.000 NA
ATOM     23  H   UNL     1      47.734   8.396  11.195  0.00  0.00    +0.000 HD
ENDBRANCH  13  16
ENDBRANCH   5  13
TORSDOF 3
ENDMDL
MODEL 5
REMARK VINA RESULT:    -7.136      1.968      2.561
REMARK INTER + INTRA:          -8.028
REMARK INTER:                  -7.414
REMARK INTRA:                  -0.614
REMARK UNBOUND:                 0.359
REMARK  Name = 
REMARK  3 active torsions:
REMARK  status: ('A' for Active; 'I' for Inactive)
REMARK    1  A    between atoms: C_4  and  C_5
REMARK    2  A    between atoms: C_9  and  C_10
REMARK    3  A    between atoms: C_10  and  N_11
REMARK                            x       y       z     vdW  Elec       q    Type
REMARK                         _______ _______ _______ _____ _____    ______ ____
ROOT
ATOM      1  C   UNL     1      47.159   7.156  13.584  0.00  0.00    +0.000 A 
ATOM      2  C   UNL     1      47.003   8.409  12.969  0.00  0.00    +0.000 A 
ATOM      3  C   UNL     1      45.954   8.646  12.081  0.00  0.00    +0.000 A 
ATOM      4  C   UNL     1      45.035   7.636  11.802  0.00  0.00    +0.000 A 
ATOM      5  C   UNL     1      45.140   6.366  12.391  0.00  0.00    +0.000 A 
ATOM      6  C   UNL     1      46.217   6.157  13.269  0.00  0.00    +0.000 A 
ENDROOT
BRANCH   1  10
ATOM      7  C   UNL     1      50.376   6.468  16.249  0.00  0.00    +0.000 A 
ATOM      8  C   UNL     1      49.192   5.778  16.465  0.00  0.00    +0.000 A 
ATOM      9  C   UNL     1      48.115   5.974  15.602  0.00  0.00    +0.000 A 
ATOM     10  C   UNL     1      48.250   6.861  14.535  0.00  0.00    +0.000 A 
ATOM     11  N   UNL     1      49.407   7.538  14.320  0.00  0.00    +0.000 NA
ATOM     12  C   UNL     1      50.436   7.325  15.167  0.00  0.00    +0.000 A 
ENDBRANCH   1  10
BRANCH   5  13
ATOM     13  C   UNL     1      44.145   5.252  12.087  0.00  0.00    +0.000 C 
ATOM     14  C   UNL     1      42.772   5.651  11.579  0.00  0.00    +0.000 C 
ATOM     15  C   UNL     1      42.908   5.136  12.973  0.00  0.00    +0.000 C 
BRANCH  13  16
ATOM     16  N   UNL     1      44.769   3.985  11.690  0.00  0.00    +0.000 N 
ATOM     17  C   UNL     1      45.067   3.702  10.359  0.00  0.00    +0.000 A 
ATOM     18  N   UNL     1      45.304   4.687   9.479  0.00  0.00    +0.000 NA
ATOM     19  C   UNL     1      45.600   4.330   8.218  0.00  0.00    +0.000 A 
ATOM     20  C   UNL     1      45.640   3.027   7.791  0.00  0.00    +0.000 A 
ATOM     21  C   UNL     1      45.369   2.090   8.756  0.00  0.00    +0.000 A 
ATOM     22  N   UNL     1      45.088   2.398  10.036  0.00  0.00    +0.000 NA
ATOM     23  H   UNL     1      44.479   3.122  12.131  0.00  0.00    +0.000 HD
ENDBRANCH  13  16
ENDBRANCH   5  13
TORSDOF 3
ENDMDL
MODEL 6
REMARK VINA RESULT:    -6.986      2.749      7.356
REMARK INTER + INTRA:          -7.851
REMARK INTER:                  -7.315
REMARK INTRA:                  -0.536
REMARK UNBOUND:                 0.359
REMARK  Name = 
REMARK  3 active torsions:
REMARK  status: ('A' for Active; 'I' for Inactive)
REMARK    1  A    between atoms: C_4  and  C_5
REMARK    2  A    between atoms: C_9  and  C_10
REMARK    3  A    between atoms: C_10  and  N_11
REMARK                            x       y       z     vdW  Elec       q    Type
REMARK                         _______ _______ _______ _____ _____    ______ ____
ROOT
ATOM      1  C   UNL     1      45.640   6.341  11.137  0.00  0.00    +0.000 A 
ATOM      2  C   UNL     1      44.741   7.386  11.407  0.00  0.00    +0.000 A 
ATOM      3  C   UNL     1      45.171   8.561  12.023  0.00  0.00    +0.000 A 
ATOM      4  C   UNL     1      46.513   8.715  12.370  0.00  0.00    +0.000 A 
ATOM      5  C   UNL     1      47.455   7.705  12.121  0.00  0.00    +0.000 A 
ATOM      6  C   UNL     1      46.985   6.530  11.512  0.00  0.00    +0.000 A 
ENDROOT
BRANCH   1  10
ATOM      7  C   UNL     1      44.352   2.701   9.400  0.00  0.00    +0.000 A 
ATOM      8  C   UNL     1      45.033   3.603   8.594  0.00  0.00    +0.000 A 
ATOM      9  C   UNL     1      45.479   4.807   9.136  0.00  0.00    +0.000 A 
ATOM     10  C   UNL     1      45.232   5.083  10.479  0.00  0.00    +0.000 A 
ATOM     11  N   UNL     1      44.565   4.204  11.272  0.00  0.00    +0.000 NA
ATOM     12  C   UNL     1      44.150   3.043  10.723  0.00  0.00    +0.000 A 
ENDBRANCH   1  10
BRANCH   5  13
ATOM     13  C   UNL     1      48.922   7.861  12.502  0.00  0.00    +0.000 C 
ATOM     14  C   UNL     1      49.543   9.240  12.374  0.00  0.00    +0.000 C 
ATOM     15  C   UNL     1      49.921   8.180  11.393  0.00  0.00    +0.000 C 
BRANCH  13  16
ATOM     16  N   UNL     1      49.380   6.908  13.521  0.00  0.00    +0.000 N 
ATOM     17  C   UNL     1      49.406   7.240  14.873  0.00  0.00    +0.000 A 
ATOM     18  N   UNL     1      48.573   8.165  15.375  0.00  0.00    +0.000 NA
ATOM     19  C   UNL     1      48.651   8.415  16.692  0.00  0.00    +0.000 A 
ATOM     20  C   UNL     1      49.549   7.801  17.527  0.00  0.00    +0.000 A 
ATOM     21  C   UNL     1      50.370   6.883  16.923  0.00  0.00    +0.000 A 
ATOM     22  N   UNL     1      50.316   6.583  15.612  0.00  0.00    +0.000 NA
ATOM     23  H   UNL     1      50.178   6.316  13.333  0.00  0.00    +0.000 HD
ENDBRANCH  13  16
ENDBRANCH   5  13
TORSDOF 3
ENDMDL
MODEL 7
REMARK VINA RESULT:    -6.981      2.440      7.423
REMARK INTER + INTRA:          -7.846
REMARK INTER:                  -7.590
REMARK INTRA:                  -0.256
REMARK UNBOUND:                 0.359
REMARK  Name = 
REMARK  3 active torsions:
REMARK  status: ('A' for Active; 'I' for Inactive)
REMARK    1  A    between atoms: C_4  and  C_5
REMARK    2  A    between atoms: C_9  and  C_10
REMARK    3  A    between atoms: C_10  and  N_11
REMARK                            x       y       z     vdW  Elec       q    Type
REMARK                         _______ _______ _______ _____ _____    ______ ____
ROOT
ATOM      1  C   UNL     1      46.591   5.354  13.392  0.00  0.00    +0.000 A 
ATOM      2  C   UNL     1      47.274   6.509  12.977  0.00  0.00    +0.000 A 
ATOM      3  C   UNL     1      48.234   7.106  13.792  0.00  0.00    +0.000 A 
ATOM      4  C   UNL     1      48.537   6.551  15.035  0.00  0.00    +0.000 A 
ATOM      5  C   UNL     1      47.889   5.396  15.499  0.00  0.00    +0.000 A 
ATOM      6  C   UNL     1      46.917   4.828  14.658  0.00  0.00    +0.000 A 
ENDROOT
BRANCH   1  10
ATOM      7  C   UNL     1      43.597   3.354  11.165  0.00  0.00    +0.000 A 
ATOM      8  C   UNL     1      44.311   4.365  10.536  0.00  0.00    +0.000 A 
ATOM      9  C   UNL     1      45.310   5.038  11.237  0.00  0.00    +0.000 A 
ATOM     10  C   UNL     1      45.573   4.682  12.559  0.00  0.00    +0.000 A 
ATOM     11  N   UNL     1      44.877   3.694  13.178  0.00  0.00    +0.000 NA
ATOM     12  C   UNL     1      43.919   3.054  12.474  0.00  0.00    +0.000 A 
ENDBRANCH   1  10
BRANCH   5  13
ATOM     13  C   UNL     1      48.206   4.785  16.858  0.00  0.00    +0.000 C 
ATOM     14  C   UNL     1      47.355   3.617  17.323  0.00  0.00    +0.000 C 
ATOM     15  C   UNL     1      47.178   4.948  17.975  0.00  0.00    +0.000 C 
BRANCH  13  16
ATOM     16  N   UNL     1      49.612   4.914  17.259  0.00  0.00    +0.000 N 
ATOM     17  C   UNL     1      50.431   3.800  17.422  0.00  0.00    +0.000 A 
ATOM     18  N   UNL     1      50.192   2.661  16.753  0.00  0.00    +0.000 NA
ATOM     19  C   UNL     1      51.038   1.638  16.955  0.00  0.00    +0.000 A 
ATOM     20  C   UNL     1      52.099   1.694  17.822  0.00  0.00    +0.000 A 
ATOM     21  C   UNL     1      52.256   2.891  18.473  0.00  0.00    +0.000 A 
ATOM     22  N   UNL     1      51.447   3.951  18.289  0.00  0.00    +0.000 NA
ATOM     23  H   UNL     1      49.875   5.595  17.959  0.00  0.00    +0.000 HD
ENDBRANCH  13  16
ENDBRANCH   5  13
TORSDOF 3
ENDMDL
MODEL 8
REMARK VINA RESULT:    -6.890      2.770      8.165
REMARK INTER + INTRA:          -7.739
REMARK INTER:                  -7.483
REMARK INTRA:                  -0.256
REMARK UNBOUND:                 0.359
REMARK  Name = 
REMARK  3 active torsions:
REMARK  status: ('A' for Active; 'I' for Inactive)
REMARK    1  A    between atoms: C_4  and  C_5
REMARK    2  A    between atoms: C_9  and  C_10
REMARK    3  A    between atoms: C_10  and  N_11
REMARK                            x       y       z     vdW  Elec       q    Type
REMARK                         _______ _______ _______ _____ _____    ______ ____
ROOT
ATOM      1  C   UNL     1      46.581   5.192  13.503  0.00  0.00    +0.000 A 
ATOM      2  C   UNL     1      47.430   6.263  13.180  0.00  0.00    +0.000 A 
ATOM      3  C   UNL     1      48.374   6.730  14.095  0.00  0.00    +0.000 A 
ATOM      4  C   UNL     1      48.492   6.124  15.345  0.00  0.00    +0.000 A 
ATOM      5  C   UNL     1      47.671   5.049  15.719  0.00  0.00    +0.000 A 
ATOM      6  C   UNL     1      46.723   4.613  14.779  0.00  0.00    +0.000 A 
ENDROOT
BRANCH   1  10
ATOM      7  C   UNL     1      43.606   3.576  10.959  0.00  0.00    +0.000 A 
ATOM      8  C   UNL     1      44.385   4.617  10.472  0.00  0.00    +0.000 A 
ATOM      9  C   UNL     1      45.379   5.167  11.280  0.00  0.00    +0.000 A 
ATOM     10  C   UNL     1      45.573   4.659  12.564  0.00  0.00    +0.000 A 
ATOM     11  N   UNL     1      44.813   3.640  13.044  0.00  0.00    +0.000 NA
ATOM     12  C   UNL     1      43.862   3.123  12.238  0.00  0.00    +0.000 A 
ENDBRANCH   1  10
BRANCH   5  13
ATOM     13  C   UNL     1      47.786   4.384  17.086  0.00  0.00    +0.000 C 
ATOM     14  C   UNL     1      49.072   3.644  17.405  0.00  0.00    +0.000 C 
ATOM     15  C   UNL     1      47.831   2.860  17.140  0.00  0.00    +0.000 C 
BRANCH  13  16
ATOM     16  N   UNL     1      47.000   5.039  18.138  0.00  0.00    +0.000 N 
ATOM     17  C   UNL     1      47.581   5.925  19.041  0.00  0.00    +0.000 A 
ATOM     18  N   UNL     1      48.682   6.622  18.716  0.00  0.00    +0.000 NA
ATOM     19  C   UNL     1      49.171   7.467  19.638  0.00  0.00    +0.000 A 
ATOM     20  C   UNL     1      48.624   7.626  20.885  0.00  0.00    +0.000 A 
ATOM     21  C   UNL     1      47.512   6.862  21.133  0.00  0.00    +0.000 A 
ATOM     22  N   UNL     1      46.973   6.017  20.236  0.00  0.00    +0.000 NA
ATOM     23  H   UNL     1      46.289   4.517  18.633  0.00  0.00    +0.000 HD
ENDBRANCH  13  16
ENDBRANCH   5  13
TORSDOF 3
ENDMDL
MODEL 9
REMARK VINA RESULT:    -6.388      3.911      6.791
REMARK INTER + INTRA:          -7.149
REMARK INTER:                  -7.088
REMARK INTRA:                  -0.061
REMARK UNBOUND:                 0.359
REMARK  Name = 
REMARK  3 active torsions:
REMARK  status: ('A' for Active; 'I' for Inactive)
REMARK    1  A    between atoms: C_4  and  C_5
REMARK    2  A    between atoms: C_9  and  C_10
REMARK    3  A    between atoms: C_10  and  N_11
REMARK                            x       y       z     vdW  Elec       q    Type
REMARK                         _______ _______ _______ _____ _____    ______ ____
ROOT
ATOM      1  C   UNL     1      44.919  10.297  11.654  0.00  0.00    +0.000 A 
ATOM      2  C   UNL     1      45.965  11.225  11.782  0.00  0.00    +0.000 A 
ATOM      3  C   UNL     1      47.271  10.804  12.032  0.00  0.00    +0.000 A 
ATOM      4  C   UNL     1      47.555   9.444  12.149  0.00  0.00    +0.000 A 
ATOM      5  C   UNL     1      46.549   8.473  12.027  0.00  0.00    +0.000 A 
ATOM      6  C   UNL     1      45.244   8.932  11.789  0.00  0.00    +0.000 A 
ENDROOT
BRANCH   1  10
ATOM      7  C   UNL     1      40.967  11.621  10.913  0.00  0.00    +0.000 A 
ATOM      8  C   UNL     1      41.327  10.359  10.459  0.00  0.00    +0.000 A 
ATOM      9  C   UNL     1      42.618   9.888  10.694  0.00  0.00    +0.000 A 
ATOM     10  C   UNL     1      43.523  10.695  11.381  0.00  0.00    +0.000 A 
ATOM     11  N   UNL     1      43.174  11.930  11.827  0.00  0.00    +0.000 NA
ATOM     12  C   UNL     1      41.917  12.359  11.591  0.00  0.00    +0.000 A 
ENDBRANCH   1  10
BRANCH   5  13
ATOM     13  C   UNL     1      46.847   6.984  12.160  0.00  0.00    +0.000 C 
ATOM     14  C   UNL     1      47.112   6.439  13.552  0.00  0.00    +0.000 C 
ATOM     15  C   UNL     1      48.250   6.570  12.596  0.00  0.00    +0.000 C 
BRANCH  13  16
ATOM     16  N   UNL     1      46.229   6.155  11.119  0.00  0.00    +0.000 N 
ATOM     17  C   UNL     1      45.196   5.267  11.408  0.00  0.00    +0.000 A 
ATOM     18  N   UNL     1      44.375   5.477  12.449  0.00  0.00    +0.000 NA
ATOM     19  C   UNL     1      43.394   4.582  12.651  0.00  0.00    +0.000 A 
ATOM     20  C   UNL     1      43.214   3.468  11.872  0.00  0.00    +0.000 A 
ATOM     21  C   UNL     1      44.109   3.329  10.842  0.00  0.00    +0.000 A 
ATOM     22  N   UNL     1      45.096   4.208  10.587  0.00  0.00    +0.000 NA
ATOM     23  H   UNL     1      46.807   5.733  10.404  0.00  0.00    +0.000 HD
ENDBRANCH  13  16
ENDBRANCH   5  13
TORSDOF 3
ENDMDL
